data_mof_unit_10339.cif
_audit_creation_date              2012-12-11T14:34:16-0500
_audit_creation_method            fapswitch 2.2
_symmetry_space_group_name_H-M    P1
_symmetry_Int_Tables_number       1
_space_group_crystal_system       triclinic
_cell_length_a                    13.93305
_cell_length_b                    13.953174
_cell_length_c                    27.232397
_cell_angle_alpha                 90.560861
_cell_angle_beta                  89.657868
_cell_angle_gamma                 119.498892
_cell_volume                      4607.71294208

loop_
_atom_site_label
_atom_site_type_symbol
_atom_type_description
_atom_site_fract_x
_atom_site_fract_y
_atom_site_fract_z
_atom_type_partial_charge
C1    C     C_R   0.234193 0.787748 0.568714 0.539105
C2    C     C_1   0.708529 0.862686 0.860233 -0.047271
C3    C     C_3   0.693925 0.070170 0.126862 -0.314555
C4    C     C_3   0.920675 0.620579 0.119621 -0.306125
C5    C     C_3   0.350519 0.221082 0.124310 -0.284110
C6    C     C_3   0.618860 0.614298 0.091542 -0.246051
C7    C     C_3   0.380964 0.977363 0.089495 -0.255675
C8    C     C_3   0.954651 0.356789 0.094576 -0.244762
C9    C     C_3   0.635241 0.494246 0.193275 -0.119550
C10   C     C_3   0.503353 0.140990 0.205158 -0.117462
C11   C     C_3   0.831632 0.333631 0.208223 -0.105920
C12   C     C_3   0.646394 0.508517 0.318860 -0.164648
C13   C     C_1   0.136036 0.842028 0.860317 -0.073722
C14   C     C_3   0.530526 0.983023 0.298522 -0.123431
C15   C     C_3   0.972326 0.506212 0.306558 -0.130135
C16   C     C_1   0.112536 0.217626 0.850796 -0.083044
C17   C     C_1   0.630732 0.817314 0.658511 -0.073484
C18   C     C_1   0.183598 0.815522 0.658517 -0.074896
C19   C     C_1   0.175741 0.349961 0.654802 -0.075507
C20   C     C_1   0.602464 0.798264 0.616272 -0.015500
C21   C     C_1   0.202389 0.806065 0.616192 -0.015170
C22   C     C_1   0.190867 0.388645 0.614243 -0.017648
C23   C     C_R   0.113490 0.236899 0.080699 0.560607
C24   C     C_R   0.212333 0.446129 0.568633 0.542767
C25   C     C_R   0.775628 0.884330 0.087621 0.573145
C26   C     C_R   0.115553 0.891876 0.087702 0.568635
C27   C     C_R   0.068478 0.157871 0.943499 0.569729
C28   C     C_R   0.779366 0.886731 0.951025 0.542446
C29   C     C_R   0.113376 0.892716 0.950957 0.539687
C30   C     C_R   0.681935 0.897562 0.367981 -0.152962
C31   C     C_R   0.096089 0.766887 0.366601 -0.147482
C32   C     C_R   0.266706 0.370473 0.357080 -0.125122
C33   C     C_R   0.721309 0.913421 0.319517 0.016108
C34   C     C_R   0.079102 0.785448 0.317673 0.025061
C35   C     C_R   0.553260 0.765952 0.568814 0.540805
C36   C     C_R   0.256339 0.347064 0.306368 0.032301
C37   C     C_R   0.755415 0.943905 0.218334 0.041442
C38   C     C_R   0.050976 0.790893 0.216133 0.049182
C39   C     C_R   0.250047 0.324109 0.203020 0.050621
C40   C     C_R   0.233860 0.789247 0.431671 0.539333
C41   C     C_R   0.212557 0.446508 0.430204 0.539945
C42   C     C_R   0.554345 0.764760 0.431267 0.541662
C43   C     C_R   0.802640 0.034581 0.250867 -0.109133
C44   C     C_R   0.959016 0.737581 0.247611 -0.111001
C45   C     C_R   0.333081 0.320564 0.230843 -0.059339
C46   C     C_3   0.641049 0.730184 0.791022 -0.253187
C47   C     C_R   0.785559 0.019499 0.301173 -0.153506
C48   C     C_R   0.973121 0.734907 0.297960 -0.158083
C49   C     C_R   0.334638 0.329486 0.281846 -0.087534
C50   C     C_R   0.758484 0.959750 0.167845 0.096482
C51   C     C_R   0.037443 0.787864 0.165328 0.101192
C52   C     C_R   0.245422 0.310625 0.151494 0.115225
C53   C     C_R   0.723275 0.868657 0.135786 0.029417
C54   C     C_R   0.130218 0.850670 0.134838 0.031922
C55   C     C_R   0.156311 0.306477 0.125689 -0.018298
C56   C     C_R   0.592337 0.700373 0.353869 -0.116759
C57   C     C_3   0.253567 0.929873 0.789526 -0.245399
C58   C     C_R   0.289724 0.899758 0.356889 -0.108823
C59   C     C_R   0.097304 0.378395 0.355033 -0.115574
C60   C     C_R   0.631397 0.714644 0.306221 -0.035302
C61   C     C_R   0.276398 0.910147 0.307268 -0.023143
C62   C     C_R   0.090909 0.364893 0.303843 -0.021811
C63   C     C_R   0.688318 0.821385 0.287632 0.003566
C64   C     C_R   0.170915 0.850149 0.287007 0.007479
C65   C     C_R   0.170931 0.349085 0.279204 -0.001071
C66   C     C_R   0.605539 0.622927 0.275859 0.281386
C67   C     C_R   0.368758 0.973304 0.277479 0.266139
C68   C     C_3   0.048608 0.286361 0.783619 -0.245592
C69   C     C_R   0.011317 0.376894 0.277005 0.251099
C70   C     C_R   0.612750 0.635660 0.224675 0.302740
C71   C     C_R   0.357254 0.970491 0.226053 0.284408
C72   C     C_R   0.011878 0.374437 0.224956 0.300358
C73   C     C_R   0.657315 0.742870 0.204649 -0.034675
C74   C     C_R   0.251752 0.903946 0.205042 -0.029019
C75   C     C_R   0.090754 0.355224 0.199924 0.003844
C76   C     C_3   0.586350 0.882478 0.735737 -0.192414
C77   C     C_3   0.170255 0.722192 0.736651 -0.186866
C78   C     C_3   0.263322 0.392690 0.736776 -0.186766
C79   C     C_3   0.616578 0.717760 0.735081 -0.228223
C80   C     C_R   0.703921 0.835939 0.236804 -0.061148
C81   C     C_R   0.157757 0.850656 0.236047 -0.056970
C82   C     C_R   0.168386 0.339569 0.227434 -0.068278
C83   C     C_R   0.660602 0.760712 0.153540 0.114484
C84   C     C_R   0.237216 0.892406 0.153671 0.123588
C85   C     C_R   0.093687 0.349574 0.147935 0.130606
C86   C     C_R   0.611897 0.790678 0.384083 -0.011042
C87   C     C_R   0.203100 0.819737 0.385340 -0.013352
C88   C     C_R   0.189624 0.391098 0.381342 -0.023540
C89   C     C_3   0.776231 0.908864 0.722158 -0.221137
C90   C     C_3   0.264568 0.928332 0.733078 -0.228924
C91   C     C_3   0.058530 0.817545 0.723778 -0.215823
C92   C     C_3   0.142275 0.194650 0.710513 -0.210405
C93   C     C_3   0.796684 0.919602 0.778290 -0.208898
C94   C     C_3   0.047325 0.827651 0.780020 -0.197245
C95   C     C_3   0.120160 0.156132 0.764822 -0.198515
C96   C     C_1   0.734969 0.872520 0.902704 -0.027670
C97   C     C_1   0.127377 0.860959 0.902732 -0.042801
C98   C     C_1   0.093004 0.190787 0.893226 -0.040662
C99   C     C_3   0.652502 0.831644 0.711495 0.051499
C100  C     C_3   0.168934 0.821081 0.711611 0.054674
C101  C     C_3   0.059503 0.315724 0.728547 -0.228296
C102  C     C_3   0.160444 0.313292 0.706203 0.056333
C103  C     C_3   0.597448 0.883987 0.792603 0.062290
C104  C     C_3   0.149492 0.721173 0.793292 0.054570
C105  C     C_3   0.253632 0.352437 0.791023 0.055823
C106  C     C_3   0.686710 0.851985 0.807232 0.102639
C107  C     C_3   0.145219 0.828355 0.807348 0.106374
C108  C     C_3   0.134660 0.252009 0.799046 0.106064
C109  C     C_3   0.711012 0.087784 0.811118 -0.298948
C110  C     C_3   0.026916 0.593282 0.857992 -0.315189
C111  C     C_3   0.356383 0.300645 0.850423 -0.307240
Cr1   Cr    Cr6+3 0.164410 0.584450 0.499910 1.020469
Cr2   Cr    Cr6+3 0.415550 0.579960 0.499910 1.019266
Cr3   Cr    Cr6+3 0.420040 0.835590 0.499910 1.022267
Cr4   Cr    Cr6+3 0.155170 0.075460 0.019960 0.982618
Cr5   Cr    Cr6+3 0.924540 0.079710 0.019960 0.985026
Cr6   Cr    Cr6+3 0.920290 0.844830 0.019960 0.987144
H1    H     H_    0.497606 0.833167 0.725606 0.083673
H2    H     H_    0.700704 0.967194 0.391872 0.113671
H3    H     H_    0.027938 0.708992 0.389047 0.110229
H4    H     H_    0.337674 0.378645 0.376876 0.128585
H5    H     H_    0.851068 0.117560 0.237452 0.136886
H6    H     H_    0.875786 0.696073 0.233515 0.131182
H7    H     H_    0.397741 0.311052 0.213547 0.146922
H8    H     H_    0.816493 0.090894 0.325222 0.126572
H9    H     H_    0.901539 0.689738 0.321186 0.094299
H10   H     H_    0.398642 0.324556 0.302142 0.148205
H11   H     H_    0.615918 0.966737 0.721350 0.128166
H12   H     H_    0.251566 0.727035 0.730260 0.081008
H13   H     H_    0.107716 0.644618 0.718573 0.118063
H14   H     H_    0.338298 0.400431 0.718329 0.118375
H15   H     H_    0.538365 0.616953 0.366140 0.181001
H16   H     H_    0.371887 0.946238 0.372013 0.189620
H17   H     H_    0.035380 0.390395 0.373877 0.183038
H18   H     H_    0.826323 0.875781 0.704535 0.112093
H19   H     H_    0.054418 0.885948 0.705003 0.104614
H20   H     H_    0.071137 0.136868 0.687414 0.106391
H21   H     H_    0.803689 0.991705 0.706392 0.108297
H22   H     H_    0.988312 0.738852 0.710171 0.123292
H23   H     H_    0.272552 0.476654 0.736920 0.079930
H24   H     H_    0.216394 0.192187 0.696738 0.123959
H25   H     H_    0.840739 0.007350 0.789177 0.106381
H26   H     H_    0.967565 0.758279 0.792912 0.141359
H27   H     H_    0.177341 0.125999 0.775735 0.136557
H28   H     H_    0.854209 0.888425 0.787257 0.096985
H29   H     H_    0.045666 0.905082 0.788318 0.089384
H30   H     H_    0.035085 0.085589 0.768264 0.089240
H31   H     H_    0.526756 0.661871 0.729080 0.110208
H32   H     H_    0.345352 0.934918 0.723372 0.114857
H33   H     H_    0.067956 0.398843 0.724302 0.109022
H34   H     H_    0.517231 0.816506 0.806488 0.110625
H35   H     H_    0.661006 0.678737 0.717233 0.122466
H36   H     H_    0.263369 0.000973 0.717201 0.121745
H37   H     H_    0.983213 0.255872 0.708822 0.119050
H38   H     H_    0.564322 0.675194 0.811621 0.100610
H39   H     H_    0.325834 0.930100 0.806871 0.100684
H40   H     H_    0.060342 0.358677 0.805913 0.107134
H41   H     H_    0.539979 0.993057 0.810168 0.236140
H42   H     H_    0.696894 0.156810 0.821969 0.127124
H43   H     H_    0.742733 0.102190 0.772888 0.130134
H44   H     H_    0.772765 0.089186 0.837032 0.157926
H45   H     H_    0.220693 0.722476 0.812367 0.107943
H46   H     H_    0.038648 0.551658 0.786716 0.237829
H47   H     H_    0.969066 0.503682 0.862297 0.124861
H48   H     H_    0.985910 0.636785 0.874396 0.166582
H49   H     H_    0.104080 0.614254 0.878088 0.135722
H50   H     H_    0.416571 0.383147 0.785752 0.240429
H51   H     H_    0.346671 0.355902 0.877200 0.145163
H52   H     H_    0.440409 0.311426 0.854782 0.124047
H53   H     H_    0.297385 0.213106 0.858384 0.167593
H54   H     H_    0.859399 0.107090 0.132728 0.291121
H55   H     H_    0.714700 0.156933 0.121836 0.108223
H56   H     H_    0.265274 0.421337 0.815840 0.110731
H57   H     H_    0.619055 0.029715 0.150272 0.200232
H58   H     H_    0.675684 0.028745 0.090395 0.143316
H59   H     H_    0.890716 0.753541 0.130715 0.291579
H60   H     H_    0.969642 0.645176 0.085152 0.149452
H61   H     H_    0.832900 0.564232 0.110377 0.102272
H62   H     H_    0.949544 0.575441 0.143274 0.203967
H63   H     H_    0.351313 0.355517 0.091158 0.237347
H64   H     H_    0.335272 0.184943 0.086795 0.162993
H65   H     H_    0.294320 0.157492 0.150693 0.164217
H66   H     H_    0.437078 0.247323 0.133829 0.105770
H67   H     H_    0.701782 0.702658 0.799447 0.117433
H68   H     H_    0.503720 0.633962 0.134288 0.283147
H69   H     H_    0.557403 0.525292 0.093896 0.143375
H70   H     H_    0.699593 0.626158 0.104037 0.164420
H71   H     H_    0.624830 0.638749 0.052514 0.150742
H72   H     H_    0.366479 0.860349 0.140586 0.277675
H73   H     H_    0.462037 0.983409 0.081533 0.114398
H74   H     H_    0.396440 0.056891 0.105379 0.165170
H75   H     H_    0.336504 0.960739 0.054099 0.163243
H76   H     H_    0.122334 0.468571 0.096011 0.232003
H77   H     H_    0.917593 0.411167 0.094636 0.129720
H78   H     H_    0.255466 0.007621 0.800955 0.118359
H79   H     H_    0.898032 0.280436 0.113969 0.176042
H80   H     H_    0.964196 0.337782 0.055757 0.136217
H81   H     H_    0.613664 0.434394 0.223459 0.142601
H82   H     H_    0.724709 0.555570 0.193690 0.108577
H83   H     H_    0.618864 0.446146 0.158688 0.107365
H84   H     H_    0.570625 0.164379 0.232185 0.170217
H85   H     H_    0.446655 0.171361 0.217402 0.107161
H86   H     H_    0.543951 0.183910 0.170748 0.086142
H87   H     H_    0.802830 0.371806 0.236335 0.155320
H88   H     H_    0.810606 0.249215 0.219275 0.132626
H89   H     H_    0.963511 0.218365 0.790910 0.103871
H90   H     H_    0.784369 0.325829 0.174392 0.090168
H91   H     H_    0.613853 0.421046 0.328909 0.142153
H92   H     H_    0.673481 0.558037 0.353281 0.123524
H93   H     H_    0.718737 0.532141 0.294332 0.093143
H94   H     H_    0.483414 0.899115 0.314540 0.116541
H95   H     H_    0.558621 0.978064 0.260767 0.168930
H96   H     H_    0.604125 0.031026 0.321706 0.150568
H97   H     H_    0.980653 0.544465 0.270039 0.170201
H98   H     H_    0.911303 0.517881 0.328302 0.125513
H99   H     H_    0.052374 0.548952 0.326452 0.127538
N1    N     N_2   0.608783 0.984572 0.815168 -0.522685
N2    N     N_2   0.048647 0.619646 0.806332 -0.525181
N3    N     N_2   0.341715 0.326330 0.800546 -0.529502
N4    N     N_2   0.784652 0.065425 0.150190 -0.540367
N5    N     N_2   0.931164 0.716152 0.145588 -0.541296
N6    N     N_2   0.336622 0.317014 0.124723 -0.512298
N7    N     N_2   0.583180 0.678079 0.120974 -0.499262
N8    N     N_2   0.319256 0.888148 0.123238 -0.500418
N9    N     N_2   0.060816 0.412903 0.118615 -0.465467
O1    O     O_R   0.137150 0.468200 0.553200 -0.508143
O2    O     O_R   0.140110 0.470540 0.446010 -0.521858
O3    O     O_R   0.529460 0.669570 0.446010 -0.528829
O4    O     O_R   0.330430 0.859890 0.446010 -0.525772
O5    O     O_R   0.176710 0.690910 0.450560 -0.498588
O6    O     O_R   0.309090 0.485800 0.450560 -0.499674
O7    O     O_R   0.514200 0.823290 0.450560 -0.496583
O8    O     O_3   0.333333 0.666667 0.499990 -0.267099
O9    O     O_R   0.176750 0.985260 0.074180 -0.532027
O10   O     O_R   0.014740 0.191490 0.074180 -0.530257
O11   O     O_R   0.808510 0.823250 0.074180 -0.533956
O12   O     O_R   0.531800 0.668950 0.553200 -0.509648
O13   O     O_R   0.146100 0.172630 0.068980 -0.475212
O14   O     O_R   0.827370 0.973470 0.068980 -0.496059
O15   O     O_R   0.026530 0.853900 0.068980 -0.495465
O16   O     O_3   0.000000 0.000000 0.020040 -0.225316
O17   O     O_R   0.148270 0.170520 0.969620 -0.504629
O18   O     O_R   0.829480 0.977750 0.969620 -0.515936
O19   O     O_R   0.022250 0.851730 0.969620 -0.499632
O20   O     O_3   0.567249 0.543026 0.194548 -0.538193
O21   O     O_3   0.448809 0.026379 0.195865 -0.589649
O22   O     O_3   0.944966 0.402923 0.198188 -0.557490
O23   O     O_R   0.331050 0.862850 0.553200 -0.507617
O24   O     O_3   0.561589 0.518507 0.295327 -0.580458
O25   O     O_3   0.470141 0.039352 0.299037 -0.596831
O26   O     O_3   0.933266 0.392380 0.301947 -0.597916
O27   O     O_R   0.179100 0.982980 0.967000 -0.528129
O28   O     O_R   0.017020 0.196120 0.967000 -0.522067
O29   O     O_R   0.803880 0.820900 0.967000 -0.516878
O30   O     O_R   0.173970 0.688730 0.549930 -0.499444
O31   O     O_R   0.311270 0.485240 0.549930 -0.498654
O32   O     O_R   0.514760 0.826030 0.549930 -0.498448

loop_
_geom_bond_atom_site_label_1
_geom_bond_atom_site_label_2
_ccdc_geom_bond_type
C11   H88   S    
C94   H29   S    
C41   O2    A    
C27   C98   S    
C52   N6    S    
C101  C102  S    
C89   H18   S    
C7    N8    S    
C78   C102  S    
C18   C21   T    
C90   H32   S    
C35   O32   A    
C63   C80   A    
C35   O12   A    
C4    H60   S    
C13   C107  S    
C58   C87   A    
Cr3   O4    S    
C54   C84   A    
C65   C82   A    
H72   N8    S    
C1    O30   A    
C76   C99   S    
C1    C21   S    
C46   H38   S    
Cr5   O14   S    
C11   H90   S    
C14   H94   S    
C89   C99   S    
C78   C105  S    
C94   H26   S    
C12   H91   S    
C72   O22   S    
C79   C99   S    
C25   C53   S    
C12   H92   S    
C15   H97   S    
C104  H45   S    
C46   C79   S    
C110  H48   S    
C3    H55   S    
C30   H2    S    
C25   O14   A    
Cr1   O8    S    
C32   C88   A    
C6    H71   S    
C101  H33   S    
C17   C20   T    
Cr1   O5    S    
C77   H13   S    
C77   C100  S    
C46   H67   S    
C24   O31   A    
C59   C88   A    
C29   O19   A    
Cr4   O16   S    
C20   C35   S    
C75   C85   A    
C90   C100  S    
Cr3   O23   S    
C91   H19   S    
C41   O6    A    
C25   O11   A    
C3    N4    S    
C105  N3    S    
C8    H79   S    
C93   H25   S    
C7    H73   S    
H63   N6    S    
C42   C86   S    
C28   O18   A    
C91   C100  S    
C30   C86   A    
C9    O20   S    
C10   H86   S    
C67   C71   A    
H54   N4    S    
C62   C65   A    
C52   C55   A    
C92   C102  S    
C39   C45   A    
C83   N7    S    
H59   N5    S    
C26   O9    A    
C76   C103  S    
Cr2   O12   S    
C39   C52   A    
Cr5   O18   S    
C60   C66   A    
C95   H27   S    
C45   H7    S    
Cr2   O31   S    
C105  H56   S    
C89   C93   S    
C7    H74   S    
C8    H80   S    
C18   C100  S    
C72   C75   A    
C24   O1    A    
C92   H20   S    
C26   C54   S    
H50   N3    S    
C105  C108  S    
Cr2   O6    S    
Cr3   O8    S    
Cr5   O28   S    
C58   H16   S    
C49   H10   S    
C37   C80   A    
C94   C107  S    
C50   C53   A    
C31   C87   A    
C57   C90   S    
C27   O28   A    
C29   O27   A    
C19   C22   T    
Cr1   O1    S    
C68   C101  S    
Cr6   O15   S    
C15   H98   S    
C53   C83   A    
C84   N8    S    
C4    H61   S    
C23   O13   A    
C110  H47   S    
C36   C65   A    
Cr2   O3    S    
C38   C51   A    
C70   O20   S    
Cr6   O11   S    
Cr6   O19   S    
C48   H9    S    
C6    H70   S    
C2    C106  S    
C92   C95   S    
C76   H1    S    
C12   O24   S    
C56   C60   A    
C14   H96   S    
C111  H52   S    
C55   C85   A    
C61   C64   A    
Cr2   O8    S    
C78   H14   S    
C67   O25   S    
C38   C44   A    
C57   H39   S    
C51   N5    S    
C93   C106  S    
Cr4   O13   S    
Cr4   O17   S    
C17   C99   S    
Cr6   O29   S    
C61   C67   A    
C3    H57   S    
C56   C86   A    
C5    H64   S    
C64   C81   A    
C45   C49   A    
C33   C63   A    
C70   C73   A    
C34   C64   A    
C31   C34   A    
C95   H30   S    
C9    H82   S    
C77   H12   S    
C90   H36   S    
C8    H77   S    
C92   H24   S    
C10   H85   S    
C43   H5    S    
C104  N2    S    
C56   H15   S    
C103  N1    S    
C91   H22   S    
C3    H58   S    
C57   C107  S    
C57   H78   S    
C42   O3    A    
C23   O10   A    
C60   C63   A    
C38   C81   A    
C68   H89   S    
C33   C47   A    
C22   C24   S    
C93   H28   S    
C85   N9    S    
C74   C81   A    
C40   O5    A    
C68   H40   S    
C109  H42   S    
C27   O17   A    
C32   C36   A    
C5    H65   S    
C69   C72   A    
C9    H81   S    
C40   C87   S    
C69   O26   S    
C6    N7    S    
C41   C88   S    
Cr5   O16   S    
C59   C62   A    
C59   H17   S    
C30   C33   A    
C32   H4    S    
C39   C82   A    
C74   C84   A    
C15   H99   S    
Cr1   O30   S    
C1    O23   A    
C78   H23   S    
C71   C74   A    
C8    N9    S    
C9    H83   S    
C75   C82   A    
C23   C55   S    
C79   H31   S    
Cr4   O27   S    
C103  H34   S    
C68   C108  S    
Cr3   O32   S    
C6    H69   S    
C44   H6    S    
C29   C97   S    
C10   O21   S    
C28   C96   S    
C51   C54   A    
C11   O22   S    
C111  H53   S    
C2    C96   T    
H76   N9    S    
C14   H95   S    
C109  H44   S    
Cr4   O9    S    
C91   C94   S    
Cr3   O7    S    
C37   C50   A    
C110  H49   S    
C16   C98   T    
C4    N5    S    
C66   C70   A    
C15   O26   S    
C101  H37   S    
C58   C61   A    
H41   N1    S    
C76   H11   S    
C46   C106  S    
Cr5   O10   S    
C50   N4    S    
C19   C102  S    
C73   C80   A    
C5    H66   S    
C14   O25   S    
C5    N6    S    
C103  C106  S    
C28   O29   A    
C11   H87   S    
C104  C107  S    
C13   C97   T    
C7    H75   S    
C10   H84   S    
C31   H3    S    
C66   O24   S    
C109  N1    S    
C95   C108  S    
C16   C108  S    
C110  N2    S    
C12   H93   S    
H46   N2    S    
C26   O15   A    
C34   C48   A    
C62   C69   A    
C89   H21   S    
H68   N7    S    
C47   H8    S    
Cr1   O2    S    
C77   C104  S    
C111  H51   S    
C4    H62   S    
C71   O21   S    
C40   O4    A    
C111  N3    S    
C109  H43   S    
C43   C47   A    
C73   C83   A    
C37   C43   A    
C36   C49   A    
C44   C48   A    
Cr6   O16   S    
C79   H35   S    
C42   O7    A    
