data_mof_unit_62738.cif
_audit_creation_date              2012-12-10T17:00:51-0500
_audit_creation_method            fapswitch 2.2
_symmetry_space_group_name_H-M    P1
_symmetry_Int_Tables_number       1
_space_group_crystal_system       triclinic
_cell_length_a                    13.126492
_cell_length_b                    13.119058
_cell_length_c                    19.529991
_cell_angle_alpha                 99.883959
_cell_angle_beta                  80.372409
_cell_angle_gamma                 90.725343
_cell_volume                      3266.17507123

loop_
_atom_site_label
_atom_site_type_symbol
_atom_type_description
_atom_site_fract_x
_atom_site_fract_y
_atom_site_fract_z
_atom_type_partial_charge
C1    C     C_R   0.223192 0.535446 0.527352 0.511620
C2    C     C_2   0.452619 0.505333 0.986220 -0.142579
C3    C     C_2   0.534122 0.480079 0.013409 -0.102403
C4    C     C_R   0.776242 0.463292 0.473038 0.504000
C5    C     C_R   0.517142 0.481709 0.233602 -0.008616
C6    C     C_2   0.888352 0.452470 0.463628 -0.007764
C7    C     C_2   0.939501 0.481667 0.518299 -0.054958
C8    C     C_2   0.110351 0.544170 0.542284 -0.104007
C9    C     C_2   0.053294 0.475382 0.506908 -0.157979
C10   C     C_2   0.543564 0.887380 0.528309 -0.079155
C11   C     C_2   0.520885 0.938008 0.478889 -0.146145
C12   C     C_R   0.461029 0.506329 0.910418 0.040865
C13   C     C_2   0.464695 0.109182 0.465689 -0.070355
C14   C     C_2   0.532043 0.050906 0.488257 0.239896
C15   C     C_R   0.468753 0.222915 0.478408 0.521581
C16   C     C_R   0.532830 0.776222 0.520544 0.499063
C17   C     C_R   0.510779 0.486746 0.309612 0.507512
C18   C     C_R   0.489141 0.512807 0.690501 0.513626
C19   C     C_R   0.480234 0.512810 0.766284 0.038397
C20   C     C_R   0.535891 0.438706 0.789590 -0.111247
C21   C     C_R   0.525957 0.435066 0.860923 -0.107593
C22   C     C_3   0.781855 0.472633 0.072811 -0.127379
C23   C     C_R   0.403681 0.579173 0.887377 -0.108876
C24   C     C_1   0.884223 0.521873 0.588498 0.219122
C25   C     C_1   0.942128 0.420434 0.392107 0.174764
C26   C     C_3   0.704010 0.079028 0.484638 -0.090063
C27   C     C_R   0.413641 0.582911 0.815599 -0.121095
C28   C     C_R   0.438963 0.445456 0.128596 -0.161252
C29   C     C_R   0.433770 0.445847 0.200349 -0.141563
C30   C     C_R   0.606952 0.514300 0.193933 -0.102442
C31   C     C_R   0.614189 0.510544 0.121322 0.287345
C32   C     C_R   0.528234 0.479550 0.089023 0.048315
H1    H     H_    0.586676 0.382724 0.752683 0.148454
H2    H     H_    0.352517 0.634011 0.924973 0.113072
H3    H     H_    0.373494 0.417730 0.103964 0.122967
H4    H     H_    0.369057 0.640042 0.798747 0.137260
H5    H     H_    0.380461 0.531286 0.020608 0.123249
H6    H     H_    0.568351 0.375633 0.877112 0.107704
H7    H     H_    0.849043 0.498145 0.037642 0.152634
H8    H     H_    0.758914 0.395559 0.046602 0.108818
H9    H     H_    0.807483 0.466174 0.123395 0.121838
H10   H     H_    0.725935 0.995456 0.473350 0.118368
H11   H     H_    0.761825 0.120782 0.513937 0.148758
H12   H     H_    0.091302 0.414540 0.466025 0.169440
H13   H     H_    0.707860 0.109886 0.434585 0.114720
H14   H     H_    0.074044 0.606386 0.582748 0.125683
H15   H     H_    0.491110 0.897023 0.433244 0.102155
H16   H     H_    0.406510 0.072191 0.436650 0.060527
H17   H     H_    0.564312 0.928855 0.577037 0.144777
H18   H     H_    0.363954 0.419890 0.229989 0.152849
H19   H     H_    0.671732 0.542828 0.219109 0.145536
H20   H     H_    0.609105 0.465330 0.979927 0.156432
N1    N     N_1   0.840160 0.553848 0.644382 -0.294537
N2    N     N_1   0.984990 0.394876 0.334999 -0.302469
O1    O     O_3   0.500000 0.500000 0.500000 -0.449299
O2    O     O_R   0.441420 0.437150 0.344000 -0.540429
O3    O     O_R   0.438960 0.578560 0.667440 -0.546680
O4    O     O_R   0.575450 0.541060 0.341470 -0.547952
O5    O     O_R   0.544160 0.443230 0.647100 -0.535201
O6    O     O_3   0.701342 0.546646 0.083022 -0.564193
O7    O     O_3   0.605536 0.096492 0.526810 -0.530113
O8    O     O_R   0.530110 0.266880 0.518530 -0.479142
O9    O     O_R   0.465470 0.738830 0.563940 -0.533422
O10   O     O_R   0.266890 0.467300 0.476120 -0.537215
O11   O     O_R   0.737530 0.526990 0.441410 -0.534969
O12   O     O_R   0.276880 0.592620 0.567490 -0.537244
O13   O     O_R   0.718700 0.413090 0.514970 -0.533220
O14   O     O_R   0.414920 0.276880 0.447500 -0.552269
O15   O     O_R   0.589510 0.717410 0.470040 -0.531228
Zn1   Zn    Zn3+2 0.571990 0.407410 0.544380 0.975745
Zn2   Zn    Zn3+2 0.407420 0.421690 0.442900 0.939481
Zn3   Zn    Zn3+2 0.598910 0.570150 0.439280 0.948838
Zn4   Zn    Zn3+2 0.421690 0.600750 0.573440 0.949643

loop_
_geom_bond_atom_site_label_1
_geom_bond_atom_site_label_2
_ccdc_geom_bond_type
C31   O6    S    
O15   Zn3   S    
C3    H20   S    
C6    C7    D    
C16   O9    A    
C23   C27   A    
C27   H4    S    
C4    O13   A    
C1    C8    S    
C19   C27   A    
C18   O3    A    
C11   H15   S    
C19   C20   A    
C17   O2    A    
C17   O4    A    
C30   H19   S    
O13   Zn1   S    
C22   H8    S    
C23   H2    S    
C2    C3    D    
C2    C12   S    
C10   C16   S    
C13   C14   D    
C25   N2    T    
C21   H6    S    
O12   Zn4   S    
C2    H5    S    
O4    Zn3   S    
C4    O11   A    
O14   Zn2   S    
C15   O14   A    
C28   C29   A    
C26   O7    S    
C26   H11   S    
C1    O12   A    
C28   H3    S    
C5    C29   A    
C29   H18   S    
C13   C15   S    
C26   H10   S    
C22   O6    S    
C3    C32   S    
C11   C14   S    
C8    H14   S    
C22   H9    S    
C6    C25   S    
C5    C17   S    
C10   C11   D    
C20   H1    S    
O5    Zn1   S    
C7    C24   S    
O11   Zn3   S    
C1    O10   A    
C18   O5    A    
C28   C32   A    
C20   C21   A    
O8    Zn1   S    
C4    C6    S    
C5    C30   A    
O10   Zn2   S    
O3    Zn4   S    
C7    C9    S    
C30   C31   A    
C18   C19   S    
O1    Zn1   S    
C12   C23   A    
O9    Zn4   S    
C26   H13   S    
C24   N1    T    
C14   O7    S    
C10   H17   S    
C22   H7    S    
C12   C21   A    
C15   O8    A    
C31   C32   A    
O1    Zn2   S    
C16   O15   A    
O1    Zn3   S    
O2    Zn2   S    
C8    C9    D    
C9    H12   S    
C13   H16   S    
O1    Zn4   S    
