data_mof_unit_17227.cif
_audit_creation_date              2012-12-10T18:33:39-0500
_audit_creation_method            fapswitch 2.2
_symmetry_space_group_name_H-M    P1
_symmetry_Int_Tables_number       1
_space_group_crystal_system       triclinic
_cell_length_a                    10.500049
_cell_length_b                    15.017183
_cell_length_c                    15.127669
_cell_angle_alpha                 82.487663
_cell_angle_beta                  89.852263
_cell_angle_gamma                 104.543735
_cell_volume                      2287.53596457

loop_
_atom_site_label
_atom_site_type_symbol
_atom_type_description
_atom_site_fract_x
_atom_site_fract_y
_atom_site_fract_z
_atom_type_partial_charge
C1    C     C_R   0.485801 0.442277 0.663277 0.853563
C2    C     C_R   0.522583 0.557923 0.336684 0.852204
C3    C     C_R   0.555587 0.475303 0.813008 -0.232619
C4    C     C_R   0.574225 0.528434 0.186331 -0.232184
C5    C     C_R   0.600663 0.450319 0.897183 0.079020
C6    C     C_R   0.633600 0.556940 0.101007 0.076420
C7    C     C_R   0.579375 0.354679 0.930182 0.033712
C8    C     C_R   0.667885 0.653041 0.067659 0.034277
C9    C     C_R   0.652853 0.518713 0.952540 -0.116695
C10   C     C_R   0.645301 0.490699 0.045039 -0.122350
C11   C     C_R   0.641724 0.396390 0.077070 0.390057
C12   C     C_R   0.704843 0.614661 0.919960 0.392600
C13   C     C_R   0.608239 0.328765 0.019364 -0.074246
C14   C     C_R   0.711449 0.681411 0.977770 -0.066420
C15   C     C_R   0.704947 0.844791 0.633161 -0.249923
C16   C     C_R   0.294754 0.154816 0.367455 -0.265083
C17   C     C_R   0.665679 0.754139 0.614563 0.022721
C18   C     C_R   0.334237 0.245617 0.385569 0.023295
C19   C     C_R   0.513732 0.793853 0.510476 0.025806
C20   C     C_R   0.486221 0.206245 0.489812 0.034824
C21   C     C_R   0.540528 0.885163 0.532282 0.015393
C22   C     C_R   0.459240 0.114743 0.468471 0.015891
C23   C     C_R   0.742690 0.500951 0.500188 0.863458
C24   C     C_R   0.257284 0.499057 0.499788 0.866611
C25   C     C_R   0.645366 0.911262 0.589929 0.093631
C26   C     C_R   0.354283 0.088460 0.410938 0.111067
C27   C     C_R   0.472993 0.952065 0.495388 -0.042701
C28   C     C_R   0.526629 0.047823 0.505663 -0.044092
C29   C     C_R   0.646584 0.073192 0.551096 0.436535
C30   C     C_R   0.352841 0.926587 0.450242 0.434287
C31   C     C_R   0.696856 0.004130 0.598762 -0.306336
C32   C     C_R   0.302526 0.995534 0.402484 -0.305629
C33   C     C_3   0.932079 0.431941 0.561693 -0.169926
C34   C     C_3   0.067785 0.568073 0.438251 -0.172330
C35   C     C_3   0.047358 0.512828 0.581027 -0.175131
C36   C     C_3   0.952497 0.487185 0.418913 -0.170700
C37   C     C_3   0.121521 0.497813 0.499473 0.007890
C38   C     C_3   0.878378 0.502200 0.500474 0.010673
C39   C     C_3   0.008881 0.416889 0.480129 -0.115529
C40   C     C_3   0.990984 0.583120 0.519815 -0.116041
C41   C     C_R   0.506648 0.409340 0.756470 -0.076514
C42   C     C_R   0.563485 0.592528 0.243049 -0.076920
C43   C     C_R   0.528535 0.287903 0.873158 -0.171967
C44   C     C_R   0.656010 0.717747 0.125015 -0.171237
C45   C     C_R   0.494446 0.315264 0.786584 -0.182320
C46   C     C_R   0.605957 0.687628 0.212329 -0.180869
H1    H     H_    0.090583 0.522914 0.647019 0.144859
H2    H     H_    0.909124 0.477117 0.352945 0.145523
H3    H     H_    0.548501 0.229007 0.543088 0.187416
H4    H     H_    0.451430 0.771344 0.457116 0.190694
H5    H     H_    0.288158 0.297518 0.353352 0.134019
H6    H     H_    0.711767 0.702146 0.646564 0.165901
H7    H     H_    0.783469 0.863284 0.678951 0.170922
H8    H     H_    0.216042 0.136103 0.321860 0.149765
H9    H     H_    0.872051 0.376798 0.612028 0.148236
H10   H     H_    0.127733 0.623263 0.387930 0.146719
H11   H     H_    0.020080 0.349154 0.463993 0.155645
H12   H     H_    0.979735 0.650838 0.535966 0.156613
H13   H     H_    0.533481 0.455404 0.208785 0.204514
H14   H     H_    0.556584 0.546952 0.791278 0.201845
H15   H     H_    0.600197 0.738676 0.255555 0.156736
H16   H     H_    0.458633 0.262911 0.743412 0.155527
H17   H     H_    0.514117 0.214394 0.895089 0.144653
H18   H     H_    0.684203 0.791718 0.102726 0.146609
H19   H     H_    0.783586 0.023672 0.637726 0.145412
H20   H     H_    0.215628 0.975883 0.363702 0.142278
N1    N     N_R   0.574200 0.731700 0.552740 -0.128235
N2    N     N_R   0.425800 0.268300 0.447260 -0.119553
O1    O     O_R   0.462600 0.383110 0.605620 -0.620455
O2    O     O_R   0.537400 0.616890 0.394380 -0.619375
O3    O     O_R   0.510210 0.531900 0.639510 -0.612916
O4    O     O_R   0.489790 0.468100 0.360490 -0.611122
O5    O     O_R   0.662240 0.425610 0.483080 -0.597417
O6    O     O_R   0.337760 0.574390 0.516920 -0.598802
O7    O     O_R   0.709860 0.574400 0.516970 -0.632131
O8    O     O_R   0.290140 0.425600 0.483030 -0.630549
Zn1   Zn    Zn3+2 0.468210 0.400660 0.477370 0.951278
Zn2   Zn    Zn3+2 0.531790 0.599340 0.522630 0.946592
O9    O     O_3   0.719442 0.164574 0.542978 -0.802567
H21   H     H_    0.800574 0.169358 0.577432 0.329124
O10   O     O_3   0.279851 0.835209 0.458795 -0.805069
H22   H     H_    0.198517 0.830339 0.424547 0.329215
C47   C     C_1   0.600220 0.232839 0.053957 0.254073
N3    N     N_1   0.593818 0.156213 0.081696 -0.199318
C48   C     C_1   0.759307 0.778721 0.942532 0.245950
N4    N     N_1   0.797520 0.856431 0.914230 -0.211731
O11   O     O_3   0.678830 0.369283 0.161950 -0.767145
H23   H     H_    0.739242 0.423759 0.183113 0.333439
O12   O     O_3   0.757675 0.644821 0.834217 -0.795888
H24   H     H_    0.786414 0.593386 0.812162 0.332542

loop_
_geom_bond_atom_site_label_1
_geom_bond_atom_site_label_2
_ccdc_geom_bond_type
C25   C31   A    
C38   C40   S    
O11   H23   S    
C33   H9    S    
O2    Zn2   S    
C34   C37   S    
O1    Zn1   S    
C35   H1    S    
O10   H22   S    
C43   H17   S    
C48   N4    T    
C44   H18   S    
C34   H10   S    
C20   H3    S    
C34   C40   S    
C15   H7    S    
C28   C29   A    
C35   C37   S    
C2    C42   S    
C15   C25   A    
C18   N2    A    
C39   H11   S    
C45   H16   S    
C31   H19   S    
C42   C46   A    
C11   O11   S    
C19   N1    A    
C7    C43   A    
C9    C10   A    
C3    H14   S    
C21   C27   A    
C22   C28   A    
C27   C30   A    
N1    Zn2   S    
C23   O5    A    
C2    O4    A    
C17   H6    S    
C9    C12   A    
C44   C46   A    
C18   H5    S    
C16   C26   A    
C17   N1    A    
C40   H12   S    
C46   H15   S    
C12   O12   S    
O8    Zn1   S    
C4    C6    A    
C23   O7    A    
C5    C7    A    
C26   C32   A    
C24   O8    A    
C6    C8    A    
C1    O1    A    
C5    C9    A    
O4    Zn1   S    
C47   N3    T    
C29   O9    S    
C29   C31   A    
C24   C37   S    
C33   C39   S    
C43   C45   A    
C1    C41   S    
C12   C14   A    
O6    Zn2   S    
C32   H20   S    
N2    Zn1   S    
C15   C17   A    
C21   C25   A    
C3    C41   A    
C8    C14   A    
C19   C21   A    
C20   N2    A    
C36   C39   S    
C8    C44   A    
C14   C48   S    
C20   C22   A    
C3    C5    A    
C6    C10   A    
C23   C38   S    
C13   C47   S    
C33   C38   S    
C30   O10   S    
C36   C38   S    
C35   C40   S    
C37   C39   S    
C41   C45   A    
C30   C32   A    
C11   C13   A    
C19   H4    S    
C24   O6    A    
C4    C42   A    
C1    O3    A    
C4    H13   S    
C33   C35   S    
C36   H2    S    
C34   C36   S    
O7    Zn2   S    
C16   H8    S    
C10   C11   A    
O9    H21   S    
C7    C13   A    
C16   C18   A    
C22   C26   A    
C27   C28   A    
O5    Zn1   S    
O12   H24   S    
C2    O2    A    
O3    Zn2   S    
