data_mof_unit_16439.cif
_audit_creation_date              2012-12-10T17:55:04-0500
_audit_creation_method            fapswitch 2.2
_symmetry_space_group_name_H-M    P1
_symmetry_Int_Tables_number       1
_space_group_crystal_system       triclinic
_cell_length_a                    8.729062
_cell_length_b                    10.800148
_cell_length_c                    9.526179
_cell_angle_alpha                 89.755667
_cell_angle_beta                  97.920018
_cell_angle_gamma                 90.227421
_cell_volume                      889.502329809

loop_
_atom_site_label
_atom_site_type_symbol
_atom_type_description
_atom_site_fract_x
_atom_site_fract_y
_atom_site_fract_z
_atom_type_partial_charge
C1    C     C_R   0.504110 0.262276 0.500934 0.826531
C2    C     C_R   0.495888 0.737724 0.499065 0.826528
C3    C     C_R   0.203773 0.500001 0.463737 0.889625
C4    C     C_R   0.796227 0.499999 0.536263 0.889627
C5    C     C_2   0.037928 0.500179 0.443747 -0.344386
C6    C     C_2   0.962072 0.499820 0.556253 -0.344385
C7    C     C_R   0.415609 0.066953 0.390002 -0.215702
C8    C     C_R   0.584384 0.933047 0.609996 -0.215701
C9    C     C_R   0.409044 0.938734 0.387492 0.165816
C10   C     C_R   0.590950 0.061266 0.612504 0.165815
C11   C     C_R   0.494963 0.871484 0.498181 -0.102948
C12   C     C_R   0.505031 0.128516 0.501817 -0.102946
C13   C     C_R   0.400772 0.425516 0.062209 0.007478
C14   C     C_R   0.599228 0.574484 0.937791 0.007478
C15   C     C_R   0.400763 0.425576 0.913450 0.010929
C16   C     C_R   0.599236 0.574425 0.086550 0.010930
Cu1   Cu    Cu3+1 0.500000 0.500020 0.640660 0.978680
Cu2   Cu    Cu3+1 0.500000 0.499980 0.359340 0.978680
H1    H     H_    0.977976 0.500649 0.335814 0.179401
H2    H     H_    0.022024 0.499351 0.664186 0.179401
H3    H     H_    0.347735 0.118912 0.305862 0.172016
H4    H     H_    0.652259 0.881089 0.694135 0.172017
H5    H     H_    0.321435 0.365723 0.108494 0.126417
H6    H     H_    0.678565 0.634278 0.891506 0.126417
H7    H     H_    0.321334 0.365862 0.847703 0.132696
H8    H     H_    0.678664 0.634140 0.152297 0.132696
N1    N     N_R   0.500040 0.500030 0.852080 -0.165633
N2    N     N_R   0.499960 0.499970 0.147920 -0.165633
O1    O     O_R   0.499990 0.319660 0.618740 -0.560468
O2    O     O_R   0.500010 0.680340 0.381260 -0.560468
O3    O     O_R   0.499990 0.319630 0.381170 -0.589139
O4    O     O_R   0.500010 0.680370 0.618830 -0.589139
O5    O     O_R   0.274840 0.500010 0.591370 -0.584410
O6    O     O_R   0.725160 0.499990 0.408630 -0.584410
O7    O     O_R   0.274830 0.499980 0.353800 -0.580161
O8    O     O_R   0.725170 0.500020 0.646200 -0.580159
I1    I     I_    0.257362 0.856309 0.219031 -0.346746
I2    I     I_    0.742641 0.143693 0.780951 -0.346747

loop_
_geom_bond_atom_site_label_1
_geom_bond_atom_site_label_2
_ccdc_geom_bond_type
C16   N2    A    
C8    H4    S    
C4    O8    A    
C13   N2    A    
C5    H1    S    
Cu1   O8    S    
C14   N1    A    
C6    H2    S    
Cu2   O7    S    
C15   N1    A    
C13   C15   A    
C3    O7    A    
C10   I2    S    
C1    O1    A    
Cu1   Cu2   S    
Cu2   N2    S    
C9    C11   A    
C5    C6    D    
C1    C12   S    
Cu1   O5    S    
C8    C11   A    
Cu2   O2    S    
C2    C11   S    
C10   C12   A    
C9    I1    S    
C14   C16   A    
Cu2   O6    S    
C16   H8    S    
C7    C12   A    
C4    O6    A    
C15   H7    S    
C4    C6    S    
C2    O2    A    
C3    O5    A    
Cu1   N1    S    
C1    O3    A    
Cu1   O1    S    
C13   H5    S    
C2    O4    A    
C14   H6    S    
C7    C9    A    
Cu1   O4    S    
Cu2   O3    S    
C7    H3    S    
C8    C10   A    
C3    C5    S    
