data_mof_unit_55803.cif
_audit_creation_date              2012-12-10T17:15:53-0500
_audit_creation_method            fapswitch 2.2
_symmetry_space_group_name_H-M    P1
_symmetry_Int_Tables_number       1
_space_group_crystal_system       triclinic
_cell_length_a                    10.222034
_cell_length_b                    10.758462
_cell_length_c                    10.271773
_cell_angle_alpha                 91.04687
_cell_angle_beta                  93.129352
_cell_angle_gamma                 82.892736
_cell_volume                      1119.19460869

loop_
_atom_site_label
_atom_site_type_symbol
_atom_type_description
_atom_site_fract_x
_atom_site_fract_y
_atom_site_fract_z
_atom_type_partial_charge
C1    C     C_R   0.447415 0.513203 0.264081 0.961759
C2    C     C_R   0.567916 0.054140 0.398656 0.006867
C3    C     C_R   0.491178 0.128114 0.489505 -0.125611
C4    C     C_R   0.422021 0.072584 0.583728 -0.068119
C5    C     C_R   0.426666 0.944221 0.582510 -0.187507
C6    C     C_R   0.513896 0.871094 0.504515 -0.131905
C7    C     C_2   0.425877 0.531957 0.123695 -0.299991
C8    C     C_2   0.468987 0.629951 0.066658 -0.077742
C9    C     C_2   0.572599 0.523501 0.875351 0.341737
C10   C     C_2   0.495698 0.621104 0.927314 0.452093
C11   C     C_2   0.069370 0.505729 0.473072 -0.064044
C12   C     C_R   0.497177 0.260558 0.496283 0.938386
C13   C     C_2   0.922741 0.527798 0.489505 -0.150417
C14   C     C_R   0.552662 0.498249 0.736084 0.911503
C15   C     C_R   0.503866 0.739461 0.501880 0.933093
C16   C     C_R   0.616109 0.102749 0.284805 0.008948
C17   C     C_R   0.721824 0.034911 0.223403 -0.093856
C18   C     C_R   0.771332 0.916317 0.265899 -0.134489
C19   C     C_R   0.707197 0.859726 0.360263 -0.131223
C20   C     C_R   0.598403 0.926061 0.423015 0.080796
H1    H     H_    0.407144 0.451397 0.064043 0.156466
H2    H     H_    0.880871 0.617516 0.528206 0.169222
H3    H     H_    0.761993 0.071071 0.138370 0.206686
H4    H     H_    0.853680 0.864335 0.218867 0.177261
H5    H     H_    0.749146 0.765850 0.382545 0.173068
H6    H     H_    0.367819 0.900198 0.648926 0.242506
N1    N     N_2   0.157290 0.551390 0.551110 -0.203492
N2    N     N_2   0.842740 0.448550 0.448960 -0.171916
O1    O     O_R   0.568950 0.489660 0.307530 -0.581340
O2    O     O_R   0.348880 0.522640 0.340350 -0.586857
O3    O     O_R   0.610060 0.300270 0.483590 -0.630435
O4    O     O_R   0.389990 0.333260 0.516410 -0.565355
O5    O     O_R   0.651120 0.477360 0.659650 -0.576069
O6    O     O_R   0.431050 0.510340 0.692470 -0.595399
O7    O     O_R   0.610010 0.666740 0.483590 -0.673991
O8    O     O_R   0.389940 0.699730 0.516410 -0.557683
Zn1   Zn    Zn3+2 0.646940 0.477980 0.478090 1.038288
Zn2   Zn    Zn3+2 0.353060 0.522020 0.521910 1.072094
C21   C     C_2   0.349033 0.143696 0.688229 1.004190
O9    O     O_2   0.239965 0.118491 0.713991 -0.543007
O10   O     O_R   0.407249 0.235393 0.761012 -0.789256
H7    H     H_    0.348361 0.276108 0.830120 0.350637
C22   C     C_2   0.111256 0.435874 0.354793 0.983968
O11   O     O_2   0.083431 0.482756 0.247741 -0.596815
O12   O     O_R   0.169502 0.311916 0.364901 -0.753699
H8    H     H_    0.169466 0.266570 0.277699 0.368108
C23   C     C_2   0.892294 0.319296 0.440685 1.092859
O13   O     O_2   0.947456 0.265266 0.536230 -0.560436
O14   O     O_R   0.876082 0.254418 0.323287 -0.780418
H9    H     H_    0.920787 0.164987 0.327743 0.336686
C24   C     C_2   0.120203 0.613614 0.669728 1.018233
O15   O     O_2   0.181004 0.697949 0.711637 -0.538806
O16   O     O_R   0.021124 0.574341 0.742345 -0.787427
H10   H     H_    0.006785 0.625266 0.825501 0.361761
C25   C     C_2   0.538080 0.204210 0.209886 0.904470
O17   O     O_2   0.591616 0.266902 0.135540 -0.530406
O18   O     O_R   0.400938 0.218839 0.214561 -0.821905
H11   H     H_    0.354963 0.277211 0.145789 0.332541
F1    F     F_    0.432048 0.712345 0.848428 -0.640997
C26   C     C_2   0.464504 0.754600 0.131395 0.965341
O19   O     O_2   0.531680 0.831583 0.093076 -0.588241
O20   O     O_R   0.375909 0.787594 0.228752 -0.803084
H12   H     H_    0.373214 0.878744 0.256416 0.351371
F2    F     F_    0.652279 0.440443 0.951315 -0.599002

loop_
_geom_bond_atom_site_label_1
_geom_bond_atom_site_label_2
_ccdc_geom_bond_type
C14   O6    A    
C9    C14   S    
N2    C23   S    
C11   C22   S    
O20   H12   S    
O4    Zn2   S    
C9    F2    S    
C6    C20   A    
O10   H7    S    
C19   C20   A    
C4    C21   S    
C11   N1    D    
C25   O17   D    
C13   N2    D    
O8    Zn2   S    
C17   C18   A    
C16   C25   S    
C7    C8    D    
C23   O14   S    
C7    H1    S    
O16   H10   S    
C8    C26   S    
C22   O12   S    
O18   H11   S    
C17   H3    S    
N2    Zn1   S    
C14   O5    A    
C18   H4    S    
C9    C10   D    
C1    O1    A    
C1    O2    A    
O7    Zn1   S    
N1    C24   S    
C13   H2    S    
C2    C3    A    
C25   O18   S    
C22   O11   D    
C5    C6    A    
C19   H5    S    
O5    Zn1   S    
C16   C17   A    
N1    Zn2   S    
C2    C20   A    
C24   O15   D    
C23   O13   D    
O12   H8    S    
C15   O8    A    
C11   C13   S    
C2    C16   A    
O2    Zn2   S    
C26   O20   S    
O14   H9    S    
C12   O3    A    
C21   O10   S    
O1    Zn1   S    
C21   O9    D    
C15   O7    A    
C18   C19   A    
C3    C12   S    
C26   O19   D    
C1    C7    S    
C6    C15   S    
O6    Zn2   S    
C10   F1    S    
C8    C10   S    
C12   O4    A    
C3    C4    A    
C5    H6    S    
O3    Zn1   S    
C4    C5    A    
C24   O16   S    
