data_mof_unit_49416.cif
_audit_creation_date              2012-12-11T14:59:08-0500
_audit_creation_method            fapswitch 2.2
_symmetry_space_group_name_H-M    P1
_symmetry_Int_Tables_number       1
_space_group_crystal_system       triclinic
_cell_length_a                    8.508471
_cell_length_b                    15.271574
_cell_length_c                    18.849882
_cell_angle_alpha                 101.044179
_cell_angle_beta                  92.039619
_cell_angle_gamma                 100.577909
_cell_volume                      2356.73358336

loop_
_atom_site_label
_atom_site_type_symbol
_atom_type_description
_atom_site_fract_x
_atom_site_fract_y
_atom_site_fract_z
_atom_type_partial_charge
Ba1   Ba    Ba6+2 0.854120 0.540280 0.465540 1.625755
Ba2   Ba    Ba6+2 0.335710 0.459790 0.534460 1.351101
C1    C     C_3   0.735516 0.854979 0.274827 0.055875
C2    C     C_3   0.685700 0.762711 0.299703 0.539989
C3    C     C_3   0.596188 0.207069 0.308462 0.768648
C4    C     C_3   0.633645 0.114079 0.312409 -0.404566
C5    C     C_3   0.038918 0.279034 0.728699 0.369198
C6    C     C_3   0.054620 0.260039 0.804610 -0.276243
C7    C     C_3   0.539814 0.233616 0.695639 0.237855
C8    C     C_3   0.589847 0.164171 0.735893 0.397157
C9    C     C_R   0.995987 0.452769 0.044592 -0.016045
C10   C     C_R   0.898150 0.411637 0.093147 -0.093390
C11   C     C_R   0.772487 0.427480 0.949768 -0.089677
C12   C     C_3   0.163992 0.810228 0.279352 0.645275
C13   C     C_R   0.935702 0.458424 0.974046 0.011178
C14   C     C_R   0.716481 0.428666 0.879998 -0.083942
C15   C     C_R   0.819607 0.461267 0.830509 -0.039649
C16   C     C_R   0.981690 0.499472 0.854238 0.000318
C17   C     C_R   0.040343 0.497696 0.926285 0.025213
C18   C     C_R   0.764741 0.456574 0.758007 -0.015333
C19   C     C_R   0.871700 0.488344 0.709474 -0.284746
C20   C     C_R   0.029028 0.533788 0.732477 0.034465
C21   C     C_R   0.084273 0.540344 0.806409 -0.040677
C22   C     C_R   0.160625 0.486484 0.066874 0.067373
C23   C     C_3   0.150613 0.888796 0.240215 0.369677
C24   C     C_R   0.221314 0.481279 0.137739 0.069815
C25   C     C_R   0.115136 0.447148 0.187712 -0.035860
C26   C     C_R   0.956818 0.408768 0.162407 0.014169
C27   C     C_R   0.237906 0.586932 0.834686 -0.022681
C28   C     C_R   0.296833 0.583227 0.903935 -0.062945
C29   C     C_R   0.202963 0.535125 0.949873 0.005814
C30   C     C_R   0.265062 0.525880 0.019085 0.060952
C31   C     C_R   0.430054 0.552455 0.041435 -0.047656
C32   C     C_R   0.387344 0.512629 0.159041 -0.057015
C33   C     C_R   0.489273 0.545766 0.109508 -0.022857
C34   C     C_3   0.260736 0.743862 0.633102 0.261955
C35   C     C_R   0.447619 0.509234 0.229099 -0.022047
C36   C     C_R   0.340384 0.471011 0.274683 0.107071
C37   C     C_R   0.172117 0.449337 0.260347 -0.021512
C38   C     C_R   0.754265 0.236638 0.530935 -0.254318
C39   C     C_R   0.845581 0.180011 0.555828 0.004542
C40   C     C_R   0.780281 0.087360 0.550010 -0.154928
C41   C     C_R   0.623806 0.049054 0.516818 0.034231
C42   C     C_R   0.537843 0.108683 0.489286 -0.102149
C43   C     C_R   0.603075 0.200897 0.495392 -0.038786
C44   C     C_R   0.395417 0.912766 0.475507 -0.129846
C45   C     C_3   0.301723 0.846581 0.658940 -0.313493
C46   C     C_R   0.329962 0.820360 0.463402 -0.011177
C47   C     C_R   0.575075 0.791264 0.518706 0.036281
C48   C     C_R   0.641771 0.884906 0.528807 -0.129476
C49   C     C_R   0.553737 0.947984 0.507209 0.009414
C50   C     C_R   0.418268 0.760310 0.486794 -0.268934
C51   C     C_3   0.988968 0.258090 0.385067 0.443932
C52   C     C_3   0.031351 0.163539 0.368134 -0.314322
C53   C     C_3   0.741048 0.670410 0.682492 0.307593
C54   C     C_3   0.766500 0.701588 0.764473 -0.357840
H1    H     H_    0.774465 0.760017 0.343415 0.062107
H2    H     H_    0.388543 0.864134 0.707228 0.171617
H3    H     H_    0.355972 0.879939 0.616160 0.081165
H4    H     H_    0.191349 0.872941 0.673434 0.145208
H5    H     H_    0.871579 0.253239 0.407922 -0.198201
H6    H     H_    0.075460 0.299942 0.428650 0.121175
H7    H     H_    0.968273 0.122360 0.317076 0.094288
H8    H     H_    0.000094 0.127349 0.412977 0.057551
H9    H     H_    0.160729 0.168345 0.360862 0.166337
H10   H     H_    0.853023 0.652365 0.661162 0.012304
H11   H     H_    0.641776 0.610077 0.669961 0.060291
H12   H     H_    0.857825 0.887832 0.297162 0.011323
H13   H     H_    0.867640 0.760741 0.778604 0.135437
H14   H     H_    0.794490 0.646255 0.790056 0.050050
H15   H     H_    0.656051 0.721598 0.786548 0.122327
H16   H     H_    0.662935 0.904754 0.300254 0.054212
H17   H     H_    0.698430 0.263214 0.326388 0.008168
H18   H     H_    0.523228 0.060615 0.299089 0.149438
H19   H     H_    0.722387 0.097432 0.273437 0.126600
H20   H     H_    0.684832 0.113345 0.366866 0.011049
H21   H     H_    0.109426 0.348127 0.729275 0.065772
H22   H     H_    0.910354 0.277219 0.714686 -0.122350
H23   H     H_    0.182952 0.273675 0.824109 0.176554
H24   H     H_    0.992080 0.304957 0.842198 0.042157
H25   H     H_    0.000200 0.188128 0.804587 0.127460
H26   H     H_    0.646188 0.260526 0.668173 0.519638
H27   H     H_    0.443143 0.199126 0.652923 0.115153
H28   H     H_    0.638065 0.112976 0.697125 -0.050909
H29   H     H_    0.685894 0.198926 0.778807 -0.007646
H30   H     H_    0.828733 0.482239 0.653687 0.066796
H31   H     H_    0.590078 0.403268 0.865834 0.118829
H32   H     H_    0.876380 0.374498 0.195618 0.147402
H33   H     H_    0.316163 0.626328 0.803598 0.106482
H34   H     H_    0.617318 0.565389 0.122290 0.093085
H35   H     H_    0.682871 0.401847 0.983444 0.074286
H36   H     H_    0.774419 0.379674 0.079372 0.097777
H37   H     H_    0.416673 0.620823 0.920639 0.071182
H38   H     H_    0.290982 0.825111 0.299322 -0.080887
H39   H     H_    0.518333 0.576470 0.006413 0.053721
H40   H     H_    0.318209 0.954656 0.459046 0.063477
H41   H     H_    0.855184 0.046919 0.570726 0.083470
H42   H     H_    0.761154 0.906634 0.554696 0.080550
H43   H     H_    0.424294 0.085396 0.458384 0.059596
H44   H     H_    0.364166 0.689159 0.480547 0.083190
H45   H     H_    0.805993 0.307713 0.534327 0.062982
H46   H     H_    0.026896 0.882898 0.219860 0.021482
H47   H     H_    0.189147 0.955042 0.278576 -0.061799
H48   H     H_    0.372491 0.718573 0.620341 0.020424
H49   H     H_    0.174992 0.727365 0.584364 0.060900
O1    O     O_2   0.871030 0.438240 0.324420 -0.399423
O2    O     O_3   0.702375 0.742078 0.653355 -0.633108
O3    O     O_3   0.062742 0.812985 0.337944 -0.676602
O4    O     O_2   0.318670 0.561790 0.675630 -0.464316
O5    O     O_3   0.069120 0.554770 0.586270 -0.497143
O6    O     O_3   0.526680 0.394150 0.629950 -0.468687
O7    O     O_3   0.191492 0.706430 0.689109 -0.635649
O8    O     O_3   0.607620 0.388570 0.462320 -0.372038
O9    O     O_3   0.103380 0.345110 0.593380 -0.489602
O10   O     O_2   0.175695 0.183156 0.545588 -0.480770
O11   O     O_3   0.097970 0.213304 0.679626 -0.540015
O12   O     O_3   0.120590 0.445310 0.413740 -0.430249
O13   O     O_3   0.582100 0.611510 0.537680 -0.452681
O14   O     O_2   0.334040 0.276520 0.462890 -0.410677
O15   O     O_3   0.465372 0.220482 0.348974 -0.608942
O16   O     O_2   0.437301 0.467928 0.756798 -0.488624
O17   O     O_3   0.483464 0.301297 0.744383 -0.563468
O18   O     O_3   0.663040 0.605930 0.370050 -0.431094
O19   O     O_2   0.786917 0.536936 0.244690 -0.402002
O20   O     O_3   0.983026 0.292470 0.320592 -0.635492
O21   O     O_3   0.677937 0.686344 0.242127 -0.582884
O22   O     O_2   0.855660 0.723510 0.537160 -0.449314
O23   O     O_3   0.086340 0.654970 0.406630 -0.441024
O24   O     O_2   0.015098 0.815038 0.471261 -0.477419
P1    P     P_3+3 0.038110 0.412300 0.335300 1.115393
P2    P     P_3+3 0.679950 0.711710 0.558590 1.009220
P3    P     P_3+3 0.127211 0.776133 0.416935 0.955735
P4    P     P_3+3 0.151600 0.587780 0.664700 0.986850
P5    P     P_3+3 0.054867 0.228631 0.591906 0.976307
P6    P     P_3+3 0.647227 0.581710 0.272663 1.113568
P7    P     P_3+3 0.511999 0.270761 0.441698 1.062993
P8    P     P_3+3 0.553972 0.407793 0.723236 0.955521
N1    N     N_2   0.534253 0.766559 0.330545 -0.476254
H50   H     H_    0.542913 0.814302 0.377208 0.131628
C55   C     C_3   0.409007 0.687796 0.321012 -0.142728
H51   H     H_    0.300407 0.704929 0.334429 0.101147
H52   H     H_    0.422735 0.642801 0.358532 0.079730
H53   H     H_    0.386568 0.657793 0.263678 0.154059
S1    S     S_3+6 0.541154 0.208013 0.215315 -0.051389
O25   O     O_2   0.363319 0.175651 0.200139 -0.260095
O26   O     O_2   0.584682 0.302318 0.200685 -0.326449
O27   O     O_3   0.636775 0.139859 0.158734 -0.553951
H54   H     H_    0.603295 0.146627 0.109523 0.364514
N2    N     N_2   0.717541 0.847201 0.196754 -0.361625
H55   H     H_    0.768757 0.798633 0.166117 0.283998
C56   C     C_3   0.745528 0.932159 0.171446 -0.111738
H56   H     H_    0.863222 0.974925 0.193820 0.083711
H57   H     H_    0.649561 0.970269 0.187527 0.187719
H58   H     H_    0.742850 0.918146 0.111337 0.136956
S2    S     S_3+6 0.261117 0.889222 0.161172 -0.045784
O28   O     O_2   0.405338 0.847776 0.168886 -0.278666
O29   O     O_2   0.156034 0.835303 0.095750 -0.243542
O30   O     O_3   0.319436 0.996124 0.149684 -0.466920
H59   H     H_    0.375377 0.990404 0.104314 0.373839
S3    S     S_3+6 0.426181 0.106541 0.776533 -0.061411
O31   O     O_2   0.474715 0.026550 0.800758 -0.301633
O32   O     O_2   0.384895 0.170243 0.841198 -0.286815
O33   O     O_3   0.266380 0.070011 0.716046 -0.517883
H60   H     H_    0.177299 0.047029 0.744175 0.353438
S4    S     S_3+6 0.104362 0.702340 0.215704 -0.069080
O34   O     O_2   0.235382 0.685538 0.166653 -0.282772
O35   O     O_2   0.071054 0.627566 0.257162 -0.341796
O36   O     O_3   0.940345 0.698226 0.162684 -0.510764
H61   H     H_    0.922289 0.637710 0.129929 0.357549
S5    S     S_3+6 0.421177 0.429151 0.341872 -0.036221
O37   O     O_2   0.582393 0.409824 0.326223 -0.262705
O38   O     O_2   0.432001 0.498355 0.410238 -0.257111
O39   O     O_3   0.300220 0.331834 0.344632 -0.520023
H62   H     H_    0.279911 0.299174 0.293457 0.340751

loop_
_geom_bond_atom_site_label_1
_geom_bond_atom_site_label_2
_ccdc_geom_bond_type
C5    O11   S    
C53   C54   S    
C8    H29   S    
S4    O34   D    
C23   S2    S    
C32   C35   A    
C39   C40   A    
O33   H60   S    
C55   H53   S    
O7    P4    S    
C17   C29   A    
C27   H33   S    
Ba2   O13   S    
C5    C6    S    
Ba2   O4    S    
C52   H9    S    
O39   H62   S    
C13   C17   A    
C47   P2    S    
C24   C25   A    
C35   C36   A    
S5    O38   D    
C10   C26   A    
C21   C27   A    
C1    H12   S    
C22   C24   A    
Ba1   Ba2   S    
C28   H37   S    
N2    C56   S    
C3    C4    S    
C42   H43   S    
C23   H46   S    
S2    O29   D    
S5    O37   D    
C31   H39   S    
C9    C22   A    
C15   C18   A    
C34   C45   S    
C32   C33   A    
C56   H58   S    
O16   P8    D    
O13   P2    S    
C31   C33   A    
C45   H4    S    
C9    C13   A    
O20   P1    S    
C24   C32   A    
Ba2   O5    S    
O27   H54   S    
C25   C37   A    
C14   C15   A    
O8    P7    S    
C2    H1    S    
C34   O7    S    
C14   H31   S    
C56   H56   S    
Ba1   O23   S    
C36   S5    S    
C7    C8    S    
C7    H26   S    
C5    H21   S    
O24   P3    D    
C54   H15   S    
C12   O3    S    
C38   H45   S    
S4    O35   D    
C19   C20   A    
C11   H35   S    
S2    O30   S    
C7    O17   S    
Ba1   O8    S    
S1    O27   S    
O23   P3    S    
C39   P5    S    
Ba2   O12   S    
C4    H18   S    
Ba1   O18   S    
C38   C43   A    
C44   C46   A    
Ba2   O6    S    
C1    N2    S    
Ba2   P4    S    
C48   H42   S    
C20   P4    S    
O4    P4    D    
C16   C21   A    
S3    O33   S    
C4    H19   S    
C36   C37   A    
C55   H51   S    
S1    O26   D    
Ba1   P1    S    
C40   H41   S    
C16   C17   A    
C3    S1    S    
C3    O15   S    
C48   C49   A    
C51   C52   S    
C45   H3    S    
C44   C49   A    
C50   H44   S    
C6    H25   S    
O18   P6    S    
O15   P7    S    
S3    O32   D    
C18   P8    S    
C41   C42   A    
C22   C30   A    
C26   H32   S    
C27   C28   A    
Ba1   O5    S    
C6    H23   S    
C51   H6    S    
C29   C30   A    
Ba2   O14   S    
C47   C50   A    
C35   P6    S    
C15   C16   A    
O9    P5    S    
C44   H40   S    
Ba1   O12   S    
C12   S4    S    
O12   P1    S    
C51   O20   S    
C7    H27   S    
C5    H22   S    
O2    P2    S    
C38   C39   A    
O10   P5    D    
O21   P6    S    
C47   C48   A    
S4    O36   S    
C54   H14   S    
C11   C13   A    
O30   H59   S    
C40   C41   A    
C51   H5    S    
C1    C2    S    
C8    S3    S    
S2    O28   D    
C53   H10   S    
C42   C43   A    
O6    P8    S    
O1    P1    D    
C19   H30   S    
O36   H61   S    
C43   P7    S    
O19   P6    D    
C34   H49   S    
C10   H36   S    
C23   H47   S    
Ba1   O22   S    
O17   P8    S    
C55   H52   S    
S1    O25   D    
Ba1   P2    S    
C53   H11   S    
C9    C10   A    
C4    H20   S    
N1    C55   S    
C37   P1    S    
Ba1   O1    S    
O14   P7    D    
C2    O21   S    
C34   H48   S    
S3    O31   D    
C1    H16   S    
N2    H55   S    
C30   C31   A    
C45   H2    S    
Ba2   O9    S    
C41   C49   S    
C28   C29   A    
C52   H8    S    
C8    H28   S    
Ba2   O8    S    
Ba1   O13   S    
C56   H57   S    
C12   C23   S    
C3    H17   S    
O22   P2    D    
O3    P3    S    
N1    H50   S    
C2    N1    S    
C33   H34   S    
C46   C50   A    
O11   P5    S    
C18   C19   A    
C54   H13   S    
C52   H7    S    
C11   C14   A    
C53   O2    S    
C25   C26   A    
C6    H24   S    
C20   C21   A    
C46   P3    S    
O5    P4    S    
C12   H38   S    
S5    O39   S    
