data_mof_unit_13197.cif
_audit_creation_date              2012-12-10T17:18:18-0500
_audit_creation_method            fapswitch 2.2
_symmetry_space_group_name_H-M    P1
_symmetry_Int_Tables_number       1
_space_group_crystal_system       triclinic
_cell_length_a                    10.226384
_cell_length_b                    10.593327
_cell_length_c                    14.903361
_cell_angle_alpha                 90.91107
_cell_angle_beta                  81.571794
_cell_angle_gamma                 95.699822
_cell_volume                      1589.16869031

loop_
_atom_site_label
_atom_site_type_symbol
_atom_type_description
_atom_site_fract_x
_atom_site_fract_y
_atom_site_fract_z
_atom_type_partial_charge
C1    C     C_R   0.556145 0.733825 0.490832 0.846823
C2    C     C_R   0.443758 0.265898 0.503029 0.846192
C3    C     C_R   0.582227 0.719522 0.941669 -0.190430
C4    C     C_R   0.411377 0.279340 0.059007 -0.200871
C5    C     C_2   0.588220 0.868375 0.471608 0.376170
C6    C     C_2   0.412074 0.129822 0.492397 0.360769
C7    C     C_2   0.493567 0.930503 0.443711 -0.154724
C8    C     C_2   0.504575 0.066961 0.442551 -0.212974
C9    C     C_2   0.928670 0.513831 0.505778 0.243493
C10   C     C_2   0.072407 0.491050 0.490821 0.229869
C11   C     C_R   0.499912 0.497680 0.672511 0.951777
C12   C     C_R   0.499909 0.501713 0.327426 0.911599
C13   C     C_R   0.445724 0.398140 0.192260 -0.222465
C14   C     C_R   0.550641 0.600622 0.808245 -0.212072
C15   C     C_R   0.499162 0.506063 0.232174 -0.102553
C16   C     C_R   0.499983 0.492157 0.767720 -0.131037
C17   C     C_R   0.552936 0.614756 0.182280 0.229556
C18   C     C_R   0.446829 0.382549 0.816925 0.230437
C19   C     C_R   0.542609 0.617848 0.088981 -0.012388
C20   C     C_R   0.453603 0.379959 0.910974 -0.021848
C21   C     C_R   0.496863 0.502547 0.047159 -0.001439
C22   C     C_R   0.498433 0.495586 0.953034 0.001109
C23   C     C_R   0.449671 0.393567 0.099523 0.083018
C24   C     C_R   0.545443 0.604957 0.900934 0.076431
C25   C     C_R   0.576680 0.728788 0.034941 0.330103
C26   C     C_R   0.417315 0.269556 0.965637 0.322924
H1    H     H_    0.407262 0.315262 0.233498 0.158975
H2    H     H_    0.588511 0.683984 0.767353 0.176942
H3    H     H_    0.610376 0.804314 0.900686 0.203682
H4    H     H_    0.381917 0.195005 0.100304 0.194701
H5    H     H_    0.595139 0.115906 0.406526 0.164989
H6    H     H_    0.399672 0.881244 0.430723 0.172809
H7    H     H_    0.124610 0.614417 0.586211 0.202694
H8    H     H_    0.873352 0.378409 0.419020 0.194577
N1    N     N_2   0.842700 0.448880 0.462930 -0.195543
N2    N     N_2   0.157300 0.551120 0.537070 -0.191625
O1    O     O_R   0.431060 0.692470 0.507460 -0.632008
O2    O     O_R   0.568940 0.307530 0.492540 -0.628614
O3    O     O_R   0.651120 0.659650 0.483670 -0.556889
O4    O     O_R   0.348880 0.340350 0.516330 -0.568071
O5    O     O_R   0.389960 0.516440 0.644050 -0.584415
O6    O     O_R   0.610040 0.483560 0.355950 -0.597396
O7    O     O_R   0.610030 0.483620 0.620260 -0.560746
O8    O     O_R   0.389970 0.516380 0.379740 -0.567785
Zn1   Zn    Zn3+2 0.353060 0.521920 0.515880 1.033429
Zn2   Zn    Zn3+2 0.646940 0.478080 0.484120 1.034070
Br1   Br    Br    0.658049 0.742480 0.242416 -0.507739
Br2   Br    Br    0.350905 0.251539 0.752986 -0.363403
Br3   Br    Br    0.593030 0.900817 0.078848 -0.392955
Br4   Br    Br    0.395633 0.097012 0.923462 -0.355468
O9    O     O_3   0.304607 0.064422 0.545572 -0.568668
C27   C     C_3   0.186840 0.082499 0.510953 -0.184058
H9    H     H_    0.198858 0.078705 0.435383 0.143570
H10   H     H_    0.149092 0.172882 0.536602 0.219987
H11   H     H_    0.110117 0.004876 0.536472 0.200562
O10   O     O_3   0.703406 0.932140 0.495109 -0.585998
C28   C     C_3   0.805206 0.929527 0.420524 -0.181844
H12   H     H_    0.778375 0.974244 0.359504 0.179607
H13   H     H_    0.830532 0.831125 0.404819 0.204863
H14   H     H_    0.895719 0.985062 0.438200 0.178553
Br5   Br    Br    0.131825 0.370362 0.399590 -0.554483
Br6   Br    Br    0.871070 0.644058 0.589893 -0.463772

loop_
_geom_bond_atom_site_label_1
_geom_bond_atom_site_label_2
_ccdc_geom_bond_type
C4    C26   A    
C10   N2    D    
C27   H11   S    
C11   O7    A    
C6    O9    S    
C11   C16   S    
C2    O2    A    
C5    O10   S    
C18   C20   A    
C12   C15   S    
C1    O1    A    
H7    N2    S    
C13   C15   A    
C3    C24   A    
N2    Zn1   S    
C12   O8    A    
C21   C22   A    
C27   H9    S    
N1    Zn2   S    
C3    H3    S    
C28   H12   S    
C2    C6    S    
C20   C26   A    
O3    Zn2   S    
C1    C5    S    
C6    C8    D    
C9    C10   S    
C17   C19   A    
C27   H10   S    
C11   O5    A    
C22   C24   A    
C26   Br4   S    
C21   C23   A    
O4    Zn1   S    
C19   C25   A    
O7    Zn2   S    
C14   C16   A    
C28   H13   S    
C10   Br5   S    
O2    Zn2   S    
C1    O3    A    
O1    Zn1   S    
C9    Br6   S    
C2    O4    A    
C7    C8    S    
C3    C25   A    
O9    C27   S    
O10   C28   S    
C13   C23   A    
C16   C18   A    
H8    N1    S    
O6    Zn2   S    
C14   C24   A    
C5    C7    D    
C4    C23   A    
O5    Zn1   S    
C13   H1    S    
C28   H14   S    
C12   O6    A    
C7    H6    S    
C9    N1    D    
C14   H2    S    
C15   C17   A    
C8    H5    S    
C4    H4    S    
O8    Zn1   S    
C17   Br1   S    
C20   C22   A    
C19   C21   A    
C25   Br3   S    
C18   Br2   S    
