data_mof_unit_46212.cif
_audit_creation_date              2013-03-05T15:48:30-0500
_audit_creation_method            fapswitch 2.2
_symmetry_space_group_name_H-M    P1
_symmetry_Int_Tables_number       1
_space_group_crystal_system       triclinic
_cell_length_a                    20.097567
_cell_length_b                    7.103656
_cell_length_c                    13.58343
_cell_angle_alpha                 89.999305
_cell_angle_beta                  103.481958
_cell_angle_gamma                 90.000608
_cell_volume                      1885.81541575

loop_
_atom_site_label
_atom_site_type_symbol
_atom_site_description
_atom_site_fract_x
_atom_site_fract_y
_atom_site_fract_z
_atom_type_partial_charge
O1    O     O_R   0.449830 0.506740 0.599960 -0.579635
O2    O     O_R   0.550170 0.006740 0.400040 -0.579633
O3    O     O_R   0.588980 0.179860 0.596720 -0.605510
O4    O     O_R   0.411020 0.679860 0.403280 -0.605503
C1    C     C_R   0.617251 0.344112 0.616291 0.950438
C2    C     C_R   0.382752 0.844112 0.383697 0.950426
O5    O     O_R   0.452740 0.177340 0.612040 -0.601690
O6    O     O_R   0.547260 0.677340 0.387960 -0.601684
O7    O     O_R   0.412960 0.002070 0.415460 -0.574381
O8    O     O_R   0.587040 0.502070 0.584540 -0.574415
C3    C     C_R   0.436376 0.345270 0.638169 0.946886
C4    C     C_R   0.563625 0.845272 0.361832 0.946831
O9    O     O_3   0.487110 0.337570 0.435490 -0.263987
O10   O     O_3   0.512890 0.837570 0.564510 -0.264024
V1    V     V_3+5 0.502390 0.064650 0.511970 1.225682
V2    V     V_3+5 0.497610 0.564650 0.488030 1.225687
C5    C     C_R   0.611262 0.772809 0.114615 -0.129426
C6    C     C_R   0.388740 0.272827 0.885393 -0.129479
H1    H     H_    0.517324 0.772934 0.163364 0.153796
H2    H     H_    0.482675 0.272912 0.836637 0.153873
H3    H     H_    0.695569 0.725846 0.994253 0.186563
H4    H     H_    0.304436 0.225957 0.005771 0.186516
H5    H     H_    0.585962 0.733499 0.037905 0.167462
H6    H     H_    0.414041 0.233529 0.962105 0.167464
C7    C     C_R   0.603283 0.847992 0.284622 -0.094091
C8    C     C_R   0.396718 0.347982 0.715380 -0.094123
C9    C     C_R   0.932249 0.908675 0.316913 -0.151550
C10   C     C_R   0.067751 0.408621 0.683084 -0.151491
C11   C     C_R   0.896562 0.925539 0.392638 -0.041971
C12   C     C_R   0.103438 0.425453 0.607357 -0.042023
C13   C     C_R   0.825722 0.903342 0.370329 -0.141648
C14   C     C_R   0.174278 0.403276 0.629670 -0.141709
C15   C     C_R   0.788613 0.860733 0.270722 0.073634
C16   C     C_R   0.211389 0.360729 0.729285 0.073595
C17   C     C_R   0.826053 0.835494 0.194417 0.082196
C18   C     C_R   0.173950 0.335531 0.805595 0.082277
C19   C     C_R   0.715699 0.843719 0.243961 0.103739
C20   C     C_R   0.284303 0.343725 0.756046 0.103714
C21   C     C_R   0.682561 0.794074 0.142988 0.125712
C22   C     C_R   0.317442 0.294106 0.857024 0.125792
C23   C     C_R   0.720654 0.764169 0.070951 -0.073028
C24   C     C_R   0.279350 0.264247 0.929068 -0.073334
C25   C     C_R   0.791087 0.786427 0.095672 -0.067247
C26   C     C_R   0.208919 0.286527 0.904350 -0.067151
C27   C     C_R   0.674246 0.872962 0.313699 -0.241999
C28   C     C_R   0.325755 0.372956 0.686305 -0.242037
C29   C     C_R   0.572013 0.797179 0.185410 -0.114275
C30   C     C_R   0.427988 0.297170 0.814593 -0.114263
C31   C     C_R   0.897788 0.863604 0.217996 -0.145585
C32   C     C_R   0.102215 0.363609 0.782009 -0.145541
H7    H     H_    0.695432 0.909078 0.391792 0.101962
H8    H     H_    0.304569 0.409074 0.608213 0.101985
H9    H     H_    0.987038 0.932400 0.335288 0.137511
H10   H     H_    0.012961 0.432318 0.664704 0.137567
H11   H     H_    0.801719 0.920312 0.432854 0.143025
H12   H     H_    0.198280 0.420205 0.567141 0.143044
H13   H     H_    0.923891 0.959288 0.469131 0.165237
H14   H     H_    0.076107 0.459151 0.530858 0.165210
H15   H     H_    0.817867 0.765310 0.036102 0.126476
H16   H     H_    0.182140 0.265463 0.963926 0.126425
C33   C     C_3   0.201003 0.661548 0.246381 0.288648
C34   C     C_3   0.799034 0.161633 0.753516 0.288715
H17   H     H_    0.198509 0.550882 0.187868 0.130539
H18   H     H_    0.801563 0.050838 0.811966 0.130606
C35   C     C_3   0.274478 0.657621 0.315554 -0.519696
C36   C     C_3   0.725550 0.157677 0.684363 -0.519795
H19   H     H_    0.303992 0.544233 0.288613 0.215891
H20   H     H_    0.696057 0.044208 0.711285 0.215765
H21   H     H_    0.273421 0.620082 0.394734 0.195718
H22   H     H_    0.726599 0.120236 0.605167 0.195699
H23   H     H_    0.152993 0.008444 0.315180 0.208363
H24   H     H_    0.846994 0.508729 0.684880 0.208394
H25   H     H_    0.258174 0.961794 0.425680 0.175236
H26   H     H_    0.741826 0.462028 0.574351 0.175290
C37   C     C_3   0.194637 0.014503 0.274093 -0.314402
C38   C     C_3   0.805345 0.514638 0.725961 -0.314343
C39   C     C_3   0.242094 0.898883 0.131037 0.060070
C40   C     C_3   0.757899 0.398707 0.868965 0.060157
C41   C     C_3   0.186168 0.857239 0.191671 -0.260746
C42   C     C_3   0.813835 0.357246 0.808320 -0.260715
H27   H     H_    0.232924 0.044951 0.101402 0.115375
H28   H     H_    0.767053 0.544741 0.898656 0.115362
C43   C     C_3   0.311449 0.850633 0.314156 -0.116162
C44   C     C_3   0.688556 0.350633 0.685829 -0.116143
C45   C     C_3   0.265526 0.000831 0.349584 -0.320592
C46   C     C_3   0.734462 0.500954 0.650454 -0.320594
C47   C     C_3   0.315663 0.888593 0.202374 0.123870
C48   C     C_3   0.684336 0.388426 0.797620 0.123988
H29   H     H_    0.343707 0.767108 0.179524 0.132138
H30   H     H_    0.656308 0.266869 0.820436 0.132110
H31   H     H_    0.190220 0.155718 0.237627 0.195358
H32   H     H_    0.809737 0.655801 0.762481 0.195211
H33   H     H_    0.290335 0.141406 0.358673 0.194531
H34   H     H_    0.709634 0.641503 0.641401 0.194520
O11   O     O_R   0.912980 0.203550 0.915410 -0.569041
O12   O     O_R   0.087020 0.703550 0.084590 -0.569012
O13   O     O_R   0.047270 0.535570 0.887960 -0.574346
O14   O     O_R   0.952730 0.035570 0.112040 -0.574412
C49   C     C_R   0.063432 0.368390 0.861174 0.927921
C50   C     C_R   0.936567 0.868388 0.138826 0.927886
O15   O     O_R   0.911030 0.532970 0.903270 -0.609068
O16   O     O_R   0.088970 0.032970 0.096730 -0.609002
O17   O     O_R   0.949820 0.708150 0.099970 -0.586285
O18   O     O_R   0.050180 0.208150 0.900030 -0.586164
C51   C     C_R   0.884716 0.364524 0.879510 0.959844
C52   C     C_R   0.115283 0.864523 0.120491 0.960211
O19   O     O_3   0.012900 0.375230 0.064480 -0.254549
O20   O     O_3   0.987100 0.875230 0.935520 -0.254552
V3    V     V_3+5 0.997610 0.648190 0.988040 1.267232
V4    V     V_3+5 0.002390 0.148190 0.011960 1.267253
N1    N     N_R   0.235886 0.774110 0.043102 0.225415
O21   O     O_R   0.212006 0.839517 0.952223 -0.413041
O22   O     O_R   0.256945 0.600623 0.054003 -0.440241
N2    N     N_R   0.764101 0.273803 0.956846 0.225473
O23   O     O_R   0.787623 0.339321 0.047785 -0.412994
O24   O     O_R   0.743219 0.100174 0.945832 -0.440336
N3    N     N_R   0.355401 0.058621 0.193133 0.225886
O25   O     O_R   0.412850 0.043993 0.165166 -0.438930
O26   O     O_R   0.332983 0.225200 0.208680 -0.439137
N4    N     N_R   0.644582 0.558394 0.806916 0.225872
O27   O     O_R   0.587141 0.543663 0.834897 -0.438974
O28   O     O_R   0.666982 0.725024 0.791411 -0.439012
N5    N     N_R   0.149769 0.612433 0.303837 0.222361
O29   O     O_R   0.109158 0.469975 0.275315 -0.419476
O30   O     O_R   0.148607 0.696599 0.388531 -0.453150
N6    N     N_R   0.850267 0.112760 0.696017 0.222324
O31   O     O_R   0.890922 0.970368 0.724476 -0.419486
O32   O     O_R   0.851383 0.197055 0.611340 -0.453131

loop_
_geom_bond_atom_site_label_1
_geom_bond_atom_site_label_2
_geom_bond_distance
_ccdc_geom_bond_type
C43   C47   1.563748 S    
N6    O31   1.301112 A    
O14   V4    2.028980 S    
C7    C27   1.399581 A    
C25   H15   1.081667 S    
C9    C11   1.389535 A    
O19   V3    2.187121 S    
C36   H20   1.111674 S    
N1    O21   1.301478 A    
O1    C3    1.312848 A    
H24   C38   1.109782 S    
O2    C4    1.312845 A    
C17   C25   1.405316 A    
C2    O7    1.300633 A    
N2    O23   1.301413 A    
O3    V1    2.022222 S    
N5    O29   1.301110 A    
C21   C23   1.392128 A    
H4    C24   1.081102 S    
O5    C3    1.308290 A    
C32   C49   1.468269 S    
C5    H5    1.084077 S    
C6    H6    1.084074 S    
C10   C32   1.397727 A    
C34   C42   1.571726 S    
C44   C46   1.558526 S    
C47   N3    1.469393 S    
N3    O26   1.300859 A    
H1    C29   1.083460 S    
N5    O30   1.301546 A    
C27   H7    1.077840 S    
O15   V3    2.022204 S    
C28   H8    1.077838 S    
O20   V3    1.756259 S    
C39   N1    1.469159 S    
C5    C21   1.402557 A    
C33   H17   1.110709 S    
C6    C22   1.402553 A    
C34   H18   1.110661 S    
C46   H34   1.110102 S    
C45   H33   1.110105 S    
C37   C45   1.552243 S    
C35   H19   1.111644 S    
C17   C31   1.416195 A    
C13   C15   1.417029 A    
C48   N4    1.469396 S    
O11   C51   1.318674 A    
C7    C29   1.395160 A    
C16   C18   1.426987 A    
C18   C26   1.405323 A    
C8    C30   1.395160 A    
C22   C24   1.392137 A    
C49   O18   1.307951 A    
O6    V2    2.028938 S    
C23   C25   1.385575 A    
C40   N2    1.469148 S    
C24   C26   1.385576 A    
O13   C49   1.305135 A    
N4    O28   1.300895 A    
C39   C41   1.568697 S    
O15   C51   1.317595 A    
H23   C37   1.109786 S    
C34   C36   1.554792 S    
C12   C14   1.393712 A    
C44   C48   1.563721 S    
O4    C2    1.297864 A    
C34   N6    1.471651 S    
C1    C44   1.522110 S    
C10   H10   1.083970 S    
C3    C8    1.457866 S    
C42   C51   1.524724 S    
C50   O17   1.307957 A    
C15   C19   1.430299 A    
C41   C52   1.524725 S    
C26   H16   1.081668 S    
C14   C16   1.417029 A    
O4    V2    2.022225 S    
O13   V3    2.029000 S    
C40   H28   1.112681 S    
C39   H27   1.112682 S    
O6    C4    1.308291 A    
N1    O22   1.300240 A    
O1    V2    2.020806 S    
H26   C46   1.112803 S    
O2    V1    2.020818 S    
H25   C45   1.112806 S    
H2    C30   1.083454 S    
C38   H32   1.113113 S    
H3    C23   1.081096 S    
C43   C45   1.558509 S    
C11   H13   1.082890 S    
O14   C50   1.305138 A    
C47   H29   1.113699 S    
O19   V4    1.756271 S    
O16   V4    2.022209 S    
C38   C42   1.562583 S    
C19   C27   1.415109 A    
C38   C46   1.552259 S    
C18   C32   1.416192 A    
N4    O27   1.301038 A    
O18   V4    2.023951 S    
C40   C48   1.569153 S    
O12   C52   1.318666 A    
N6    O32   1.301550 A    
C2    C43   1.522111 S    
C16   C20   1.430293 A    
C5    C29   1.389483 A    
C48   H30   1.113715 S    
O3    C1    1.297868 A    
O11   V4    2.001181 S    
C6    C30   1.389486 A    
N2    O24   1.300191 A    
C9    H9    1.083969 S    
C37   H31   1.113111 S    
O12   V3    2.001178 S    
C33   N5    1.471652 S    
C4    C7    1.457856 S    
O17   V3    2.023963 S    
C10   C12   1.389532 A    
O7    V1    2.011943 S    
C1    O8    1.300631 A    
C11   C13   1.393714 A    
O8    V2    2.011947 S    
N3    O25   1.301035 A    
C31   C50   1.468286 S    
C20   C22   1.422385 A    
C36   H22   1.113109 S    
C33   C41   1.571709 S    
C35   H21   1.113104 S    
C12   H14   1.082888 S    
O5    V1    2.028958 S    
C15   C17   1.426989 A    
O20   V4    2.187137 S    
O16   C52   1.317603 A    
C40   C42   1.568727 S    
C20   C28   1.415110 A    
C35   C43   1.561692 S    
C8    C28   1.399578 A    
C36   C44   1.561698 S    
C33   C35   1.554762 S    
C39   C47   1.569210 S    
C19   C21   1.422385 A    
O9    V2    1.756628 S    
O10   V1    1.756617 S    
C13   H11   1.076850 S    
C37   C41   1.562566 S    
C14   H12   1.076848 S    
C9    C31   1.397731 A    
