data_mof_unit_29829.cif
_audit_creation_date              2012-12-10T16:52:03-0500
_audit_creation_method            fapswitch 2.2
_symmetry_space_group_name_H-M    P1
_symmetry_Int_Tables_number       1
_space_group_crystal_system       triclinic
_cell_length_a                    7.754742
_cell_length_b                    8.589718
_cell_length_c                    14.91563
_cell_angle_alpha                 90.197219
_cell_angle_beta                  86.470751
_cell_angle_gamma                 93.744213
_cell_volume                      989.544630113

loop_
_atom_site_label
_atom_site_type_symbol
_atom_type_description
_atom_site_fract_x
_atom_site_fract_y
_atom_site_fract_z
_atom_type_partial_charge
C1    C     C_R   0.545992 0.794804 0.498544 0.965743
C2    C     C_R   0.588803 0.629687 0.812097 0.391998
C3    C     C_R   0.491591 0.492603 0.232038 -0.156914
C4    C     C_R   0.510587 0.501807 0.767700 -0.174440
C5    C     C_R   0.573759 0.618178 0.184883 -0.338082
C6    C     C_R   0.430907 0.373276 0.813846 -0.325030
C7    C     C_R   0.576562 0.621234 0.092470 0.140142
C8    C     C_R   0.426572 0.369741 0.906625 0.132300
C9    C     C_R   0.497880 0.494608 0.046603 0.014400
C10   C     C_R   0.502613 0.497373 0.952914 0.014695
C11   C     C_R   0.416626 0.364729 0.094257 0.014002
C12   C     C_R   0.454249 0.205281 0.504670 0.943418
C13   C     C_R   0.582119 0.628548 0.905652 0.039410
C14   C     C_R   0.655447 0.749849 0.045476 -0.236010
C15   C     C_R   0.346109 0.241492 0.953664 -0.215866
C16   C     C_3   0.463041 0.146053 0.275352 0.085207
C17   C     C_3   0.594346 0.074713 0.208482 -0.423271
C18   C     C_3   0.745930 0.017877 0.257557 -0.921549
C19   C     C_3   0.821441 0.744401 0.726961 0.096553
C20   C     C_3   0.952869 0.857843 0.769918 -0.412138
C21   C     C_3   0.129465 0.861616 0.718501 -0.889763
C22   C     C_R   0.653624 0.755675 0.952931 -0.188642
C23   C     C_R   0.340800 0.238995 0.046952 -0.183283
C24   C     C_2   0.570265 0.958368 0.499871 -0.378317
C25   C     C_2   0.430308 0.041712 0.507011 -0.387608
C26   C     C_R   0.503747 0.503064 0.672703 0.944380
C27   C     C_R   0.496685 0.498796 0.327217 0.902293
C28   C     C_R   0.417112 0.361572 0.188086 0.428762
H1    H     H_    0.634939 0.713974 0.220876 0.174553
H2    H     H_    0.986602 0.617874 0.566073 0.174326
H3    H     H_    0.391101 0.048712 0.313256 0.166832
H4    H     H_    0.532051 0.214939 0.325792 0.160221
H5    H     H_    0.527346 0.976293 0.173514 0.223031
H6    H     H_    0.648519 0.161071 0.157417 0.231150
H7    H     H_    0.817167 0.117919 0.289278 0.280448
H8    H     H_    0.837606 0.961936 0.209450 0.261048
H9    H     H_    0.698727 0.932420 0.310591 0.256159
H10   H     H_    0.820080 0.774435 0.654761 0.174637
H11   H     H_    0.865550 0.623523 0.731481 0.134140
H12   H     H_    0.371387 0.276705 0.777103 0.162246
H13   H     H_    0.905286 0.977170 0.770963 0.241897
H14   H     H_    0.969065 0.820920 0.839973 0.219219
H15   H     H_    0.181914 0.744457 0.719159 0.284970
H16   H     H_    0.221145 0.945928 0.750774 0.264007
H17   H     H_    0.118436 0.898570 0.647940 0.254468
H18   H     H_    0.718334 0.846488 0.079931 0.155498
H19   H     H_    0.287326 0.143203 0.918283 0.151412
H20   H     H_    0.709371 0.859744 0.918963 0.182214
H21   H     H_    0.278323 0.137996 0.081690 0.191943
H22   H     H_    0.702450 0.009716 0.494063 0.181954
H23   H     H_    0.298188 0.990410 0.512466 0.177885
H24   H     H_    0.013827 0.382655 0.433351 0.204236
N1    N     N_2   0.950330 0.457950 0.475660 -0.171637
N2    N     N_2   0.049670 0.542050 0.524340 -0.177288
O1    O     O_R   0.389250 0.738570 0.505970 -0.612381
O2    O     O_3   0.652362 0.762972 0.765449 -0.663052
O3    O     O_R   0.610750 0.261430 0.494030 -0.619796
O4    O     O_R   0.678390 0.711620 0.490370 -0.643314
O5    O     O_R   0.321610 0.288380 0.509630 -0.625952
O6    O     O_R   0.355420 0.513510 0.639950 -0.624055
O7    O     O_R   0.644580 0.486490 0.360050 -0.625569
O8    O     O_R   0.644560 0.486560 0.624350 -0.644002
O9    O     O_R   0.355440 0.513440 0.375650 -0.605565
O10   O     O_3   0.339179 0.232778 0.234569 -0.661874
Zn1   Zn    Zn3+2 0.306940 0.517990 0.510420 0.948539
Zn2   Zn    Zn3+2 0.693060 0.482010 0.489580 0.935061

loop_
_geom_bond_atom_site_label_1
_geom_bond_atom_site_label_2
_ccdc_geom_bond_type
C19   O2    S    
C13   C22   A    
C2    C4    A    
C24   C25   D    
C25   H23   S    
C19   H10   S    
C16   H4    S    
C21   H16   S    
C9    C11   A    
C9    C10   A    
O3    Zn2   S    
C20   H14   S    
C19   C20   S    
C15   H19   S    
C12   C25   S    
O9    Zn1   S    
C14   C22   A    
C15   C23   A    
C17   C18   S    
C1    O1    A    
C5    C7    A    
C14   H18   S    
N2    Zn1   S    
C2    O2    S    
C1    O4    A    
O5    Zn1   S    
C16   H3    S    
N1    Zn2   S    
H2    N2    S    
C26   O6    A    
C17   H5    S    
C11   C28   A    
C12   O3    A    
C28   O10   S    
C11   C23   A    
C3    C28   A    
O1    Zn1   S    
C18   H9    S    
O6    Zn1   S    
C20   H13   S    
C8    C15   A    
C21   H17   S    
C3    C27   S    
C24   H22   S    
C8    C10   A    
C6    H12   S    
C4    C26   S    
C23   H21   S    
C4    C6    A    
C17   H6    S    
O8    Zn2   S    
C5    H1    S    
C22   H20   S    
H24   N1    S    
C1    C24   S    
C19   H11   S    
C18   H7    S    
C7    C9    A    
C2    C13   A    
C26   O8    A    
C27   O9    A    
C6    C8    A    
C16   O10   S    
C20   C21   S    
N1    N2    D    
C12   O5    A    
C18   H8    S    
O7    Zn2   S    
O4    Zn2   S    
C7    C14   A    
C21   H15   S    
C16   C17   S    
C3    C5    A    
C10   C13   A    
C27   O7    A    
