data_mof_unit_62494.cif
_audit_creation_date              2013-03-05T16:15:24-0500
_audit_creation_method            fapswitch 2.2
_symmetry_space_group_name_H-M    P1
_symmetry_Int_Tables_number       1
_space_group_crystal_system       triclinic
_cell_length_a                    23.515498
_cell_length_b                    14.256815
_cell_length_c                    13.366676
_cell_angle_alpha                 90.015838
_cell_angle_beta                  89.999944
_cell_angle_gamma                 90.000061
_cell_volume                      4481.25955625

loop_
_atom_site_label
_atom_site_type_symbol
_atom_site_description
_atom_site_fract_x
_atom_site_fract_y
_atom_site_fract_z
_atom_type_partial_charge
O1    O     O_R   0.500000 0.373710 0.576470 -0.594623
O2    O     O_R   0.500000 0.626290 0.423530 -0.594622
O3    O     O_R   0.500000 0.626290 0.576470 -0.593694
O4    O     O_R   0.500000 0.373710 0.423530 -0.593694
C1    C     C_R   0.500000 0.326544 0.499992 0.935655
C2    C     C_R   0.500000 0.673456 0.500008 0.935654
O5    O     O_R   0.416150 0.500000 0.576470 -0.613018
O6    O     O_R   0.583850 0.500000 0.423530 -0.613022
O7    O     O_R   0.583850 0.500000 0.576470 -0.613023
O8    O     O_R   0.416150 0.500000 0.423530 -0.613020
C3    C     C_R   0.387699 0.500000 0.500000 0.908511
C4    C     C_R   0.612301 0.500000 0.500000 0.908513
Zn1   Zn    Zn3+2 0.500000 0.500000 0.602090 0.984326
Zn2   Zn    Zn3+2 0.500000 0.500000 0.397910 0.984325
C5    C     C_R   0.880688 0.581690 0.481606 0.546954
C6    C     C_R   0.119309 0.418296 0.518361 0.546948
C7    C     C_R   0.880686 0.418306 0.518397 0.546960
C8    C     C_R   0.119309 0.581688 0.481615 0.546952
N1    N     N_R   0.852819 0.499999 0.500003 -0.365395
N2    N     N_R   0.147177 0.499993 0.499990 -0.365379
C9    C     C_R   0.940128 0.418054 0.529597 -0.101879
C10   C     C_R   0.059869 0.581935 0.470397 -0.101867
C11   C     C_R   0.940128 0.581936 0.470393 -0.101878
C12   C     C_R   0.059869 0.418049 0.529579 -0.101864
C13   C     C_R   0.970117 0.499994 0.499993 -0.073476
C14   C     C_R   0.029880 0.499992 0.499990 -0.073467
C15   C     C_R   0.970017 0.340190 0.570077 0.163333
C16   C     C_R   0.029982 0.659795 0.429909 0.163321
C17   C     C_R   0.970017 0.659794 0.429902 0.163337
C18   C     C_R   0.029982 0.340187 0.570066 0.163320
O9    O     O_2   0.850420 0.661783 0.477438 -0.505033
O10   O     O_2   0.149575 0.338200 0.522495 -0.505046
O11   O     O_2   0.850414 0.338218 0.522574 -0.505040
O12   O     O_2   0.149575 0.661784 0.477478 -0.505049
C19   C     C_R   0.237123 0.508148 0.409552 -0.083464
C20   C     C_R   0.762878 0.492020 0.590459 -0.083489
C21   C     C_R   0.237121 0.491841 0.590436 -0.083470
C22   C     C_R   0.762879 0.507984 0.409546 -0.083499
H1    H     H_    0.214132 0.514338 0.339664 0.146126
H2    H     H_    0.785872 0.485964 0.660354 0.146091
H3    H     H_    0.214128 0.485650 0.660323 0.146125
H4    H     H_    0.785873 0.514041 0.339651 0.146090
C23   C     C_R   0.296155 0.507903 0.409423 -0.203907
C24   C     C_R   0.703845 0.492266 0.590590 -0.203896
C25   C     C_R   0.296153 0.492091 0.590571 -0.203909
C26   C     C_R   0.703846 0.507738 0.409413 -0.203895
H5    H     H_    0.318502 0.514152 0.338873 0.164445
H6    H     H_    0.681498 0.486156 0.661150 0.164454
H7    H     H_    0.318499 0.485844 0.661123 0.164444
H8    H     H_    0.681500 0.513847 0.338852 0.164454
C27   C     C_R   0.325877 0.499998 0.499998 -0.064615
C28   C     C_R   0.674123 0.500001 0.500001 -0.064627
C29   C     C_R   0.207718 0.499993 0.499993 0.301705
C30   C     C_R   0.792281 0.500002 0.500003 0.301773
C31   C     C_1   0.500000 0.225902 0.499974 -0.209033
C32   C     C_1   0.500000 0.774098 0.500026 -0.209033
C33   C     C_1   0.500000 0.141334 0.499965 0.013549
C34   C     C_1   0.500000 0.858666 0.500035 0.013549
C35   C     C_1   0.500000 0.042281 0.499986 0.030286
C36   C     C_1   0.500000 0.957719 0.500013 0.030286
N3    N     N_1   0.500000 0.500000 0.261870 -0.064554
N4    N     N_1   0.500000 0.500000 0.738130 -0.064554
C37   C     C_1   0.500000 0.500000 0.169416 0.081529
C38   C     C_1   0.500000 0.500000 0.830584 0.081529
C39   C     C_1   0.500000 0.500000 0.049525 -0.034992
C40   C     C_1   0.500000 0.500000 0.950475 -0.034992
I1    I     I_    0.926337 0.227196 0.646156 -0.141107
I2    I     I_    0.073668 0.772786 0.353836 -0.141148
I3    I     I_    0.926335 0.772773 0.353816 -0.141124
I4    I     I_    0.073668 0.227196 0.646124 -0.141149

loop_
_geom_bond_atom_site_label_1
_geom_bond_atom_site_label_2
_geom_bond_distance
_ccdc_geom_bond_type
C19   H1    1.082975 S    
C37   C39   1.602549 S    
C5    O9    1.346704 S    
C32   C34   1.205675 T    
C19   C29   1.397550 A    
C8    C10   1.405805 A    
C19   C23   1.388172 A    
C26   H8    1.083203 S    
O7    Zn1   2.001292 S    
C8    N2    1.358867 A    
C22   C30   1.397505 A    
C18   I4    2.164443 S    
C25   H7    1.083255 S    
O6    C4    1.221638 A    
O3    C2    1.223571 A    
C21   C29   1.397553 A    
C24   C28   1.402479 A    
C5    C11   1.405790 A    
C9    C15   1.421061 A    
C35   C36   1.205598 T    
C6    C12   1.405805 A    
C20   C30   1.397503 A    
C10   C16   1.421044 A    
C15   C18   1.410097 A    
O5    C3    1.221636 A    
C8    O12   1.346695 S    
C23   C27   1.402507 A    
O2    C2    1.223434 A    
C7    O11   1.346690 S    
C21   H3    1.082974 S    
O1    C1    1.223434 A    
O4    C1    1.223571 A    
C11   C17   1.421053 A    
N1    C30   1.423600 S    
C6    N2    1.358866 A    
C4    C28   1.453792 S    
C12   C14   1.420853 A    
C22   H4    1.082920 S    
C34   C36   1.412172 S    
C17   I3    2.164443 S    
C31   C33   1.205675 T    
O4    Zn2   1.832865 S    
O2    Zn2   1.832677 S    
O7    C4    1.221633 A    
C12   C18   1.421045 A    
C20   C24   1.388184 A    
C33   C35   1.412172 S    
C3    C27   1.453780 S    
O8    C3    1.221632 A    
C25   C27   1.402507 A    
C21   C25   1.388175 A    
C7    N1    1.358867 A    
C26   C28   1.402477 A    
O5    Zn1   2.001295 S    
C11   C13   1.420864 A    
O1    Zn1   1.832679 S    
C39   C40   1.323960 T    
C10   C14   1.420852 A    
C2    C32   1.434834 S    
C15   I1    2.164531 S    
N3    C37   1.235801 T    
C9    C13   1.420868 A    
C6    O10   1.346705 S    
C16   C17   1.410093 A    
C20   H2    1.082922 S    
N4    C38   1.235801 T    
C38   C40   1.602549 S    
O6    Zn2   2.001293 S    
C22   C26   1.388184 A    
C13   C14   1.405354 A    
C5    N1    1.358865 A    
Zn2   N3    1.818403 S    
C23   H5    1.083254 S    
C1    C31   1.434834 S    
C7    C9    1.405803 A    
Zn1   N4    1.818403 S    
C24   H6    1.083202 S    
O8    Zn2   2.001294 S    
N2    C29   1.423647 S    
C16   I2    2.164523 S    
O3    Zn1   1.832863 S    
