data_mof_unit_22067.cif
_audit_creation_date              2013-03-05T16:00:44-0500
_audit_creation_method            fapswitch 2.2
_symmetry_space_group_name_H-M    P1
_symmetry_Int_Tables_number       1
_space_group_crystal_system       triclinic
_cell_length_a                    20.568448
_cell_length_b                    21.838954
_cell_length_c                    14.180476
_cell_angle_alpha                 90.389921
_cell_angle_beta                  89.958799
_cell_angle_gamma                 89.997326
_cell_volume                      6369.62692414

loop_
_atom_site_label
_atom_site_type_symbol
_atom_site_description
_atom_site_fract_x
_atom_site_fract_y
_atom_site_fract_z
_atom_type_partial_charge
O1    O     O_R   0.066090 0.433930 0.580280 -0.581686
O2    O     O_R   0.933910 0.566070 0.419720 -0.576604
O3    O     O_R   0.933910 0.566070 0.580280 -0.584154
O4    O     O_R   0.066090 0.433930 0.419720 -0.571274
O5    O     O_R   0.933910 0.433930 0.419720 -0.584191
O6    O     O_R   0.066090 0.566070 0.580280 -0.571330
O7    O     O_R   0.066090 0.566070 0.419720 -0.581449
O8    O     O_R   0.933910 0.433930 0.580280 -0.576678
O9    O     O_R   0.566090 0.933930 0.580280 -0.574835
O10   O     O_R   0.433910 0.066070 0.419720 -0.578228
O11   O     O_R   0.433910 0.066070 0.580280 -0.575002
O12   O     O_R   0.566090 0.933930 0.419720 -0.585447
O13   O     O_R   0.433910 0.933930 0.419720 -0.575389
O14   O     O_R   0.566090 0.066070 0.580280 -0.585386
O15   O     O_R   0.566090 0.066070 0.419720 -0.575241
O16   O     O_R   0.433910 0.933930 0.580280 -0.578345
C1    C     C_R   0.087105 0.413952 0.499574 0.960308
C2    C     C_R   0.911868 0.584952 0.500022 0.962561
C3    C     C_R   0.911847 0.415066 0.500022 0.962697
C4    C     C_R   0.087098 0.586034 0.500398 0.960488
C5    C     C_R   0.587827 0.914816 0.499934 0.963622
C6    C     C_R   0.412773 0.085853 0.500054 0.960763
C7    C     C_R   0.412747 0.914156 0.499987 0.960487
C8    C     C_R   0.587828 0.085189 0.500016 0.963185
Zn1   Zn    Zn3+2 1.000000 0.500000 0.607200 1.085086
Zn2   Zn    Zn3+2 1.000000 0.500000 0.392800 1.085323
Zn3   Zn    Zn3+2 0.500000 0.000000 0.607200 1.085409
Zn4   Zn    Zn3+2 0.500000 0.000000 0.392800 1.085019
C9    C     C_R   0.113906 0.694117 0.489297 -0.317941
C10   C     C_R   0.875404 0.315642 0.551436 -0.305283
C11   C     C_R   0.875507 0.684401 0.448728 -0.305356
C12   C     C_R   0.114068 0.305975 0.512675 -0.317298
C13   C     C_R   0.622964 0.185451 0.450411 -0.308202
C14   C     C_R   0.384348 0.807130 0.479284 -0.318741
C15   C     C_R   0.384595 0.193022 0.519373 -0.318863
C16   C     C_R   0.622690 0.814385 0.548957 -0.308467
C17   C     C_R   0.134866 0.634099 0.501252 -0.124253
C18   C     C_R   0.862501 0.368533 0.501035 -0.127708
C19   C     C_R   0.862535 0.631496 0.499080 -0.127903
C20   C     C_R   0.134889 0.365861 0.498739 -0.124913
C21   C     C_R   0.636565 0.132160 0.499458 -0.127399
C22   C     C_R   0.364465 0.866612 0.499777 -0.124088
C23   C     C_R   0.364532 0.133404 0.500352 -0.123556
C24   C     C_R   0.636510 0.867805 0.500359 -0.127155
C25   C     C_R   0.200656 0.620710 0.514854 0.393576
C26   C     C_R   0.802841 0.377231 0.455728 0.381991
C27   C     C_R   0.802784 0.622744 0.544236 0.381972
C28   C     C_R   0.200588 0.379114 0.483727 0.393643
C29   C     C_R   0.695938 0.123837 0.545535 0.379543
C30   C     C_R   0.299459 0.879969 0.520594 0.392960
C31   C     C_R   0.299372 0.119901 0.481064 0.393127
C32   C     C_R   0.696016 0.876196 0.454552 0.379710
C33   C     C_R   0.246783 0.666042 0.498396 -0.018669
C34   C     C_R   0.758094 0.329166 0.452528 -0.022068
C35   C     C_R   0.757913 0.670726 0.547129 -0.021965
C36   C     C_R   0.246848 0.333935 0.500331 -0.018593
C37   C     C_R   0.739946 0.172386 0.550208 -0.023158
C38   C     C_R   0.252416 0.834917 0.506543 -0.018497
C39   C     C_R   0.252451 0.165039 0.495398 -0.018674
C40   C     C_R   0.740011 0.827628 0.449809 -0.023126
C41   C     C_R   0.226042 0.727341 0.492736 -0.015895
C42   C     C_R   0.771543 0.274752 0.502332 -0.012473
C43   C     C_R   0.771472 0.725189 0.497473 -0.012448
C44   C     C_R   0.226172 0.272706 0.507687 -0.016052
C45   C     C_R   0.726291 0.226905 0.500745 -0.011623
C46   C     C_R   0.272580 0.773899 0.492214 -0.015236
C47   C     C_R   0.272721 0.226158 0.508167 -0.015267
C48   C     C_R   0.726186 0.773015 0.498965 -0.011640
C49   C     C_R   0.158890 0.742031 0.492923 0.138327
C50   C     C_R   0.829958 0.268506 0.554475 0.132583
C51   C     C_R   0.830045 0.731516 0.445601 0.132655
C52   C     C_R   0.159036 0.258024 0.509297 0.138124
C53   C     C_R   0.667829 0.233127 0.448661 0.132999
C54   C     C_R   0.339427 0.759254 0.482231 0.137293
C55   C     C_R   0.339643 0.240871 0.516485 0.137528
C56   C     C_R   0.667522 0.766681 0.550660 0.133108
C57   C     C_R   0.312945 0.651492 0.489607 -0.124882
C58   C     C_R   0.700541 0.334366 0.400109 -0.134432
C59   C     C_R   0.700108 0.665387 0.599055 -0.134300
C60   C     C_R   0.313074 0.348550 0.507598 -0.124607
C61   C     C_R   0.796973 0.167540 0.603785 -0.134444
C62   C     C_R   0.185956 0.849393 0.508477 -0.123870
C63   C     C_R   0.185999 0.150533 0.495388 -0.123718
C64   C     C_R   0.797185 0.832543 0.396459 -0.134513
C65   C     C_R   0.841720 0.215230 0.607577 0.176277
C66   C     C_R   0.138913 0.803821 0.498216 0.175940
C67   C     C_R   0.139054 0.196184 0.506001 0.176813
C68   C     C_R   0.841932 0.784842 0.392643 0.175908
C69   C     C_R   0.359348 0.697397 0.477340 0.173360
C70   C     C_R   0.655540 0.286815 0.396744 0.173180
C71   C     C_R   0.655009 0.712867 0.602177 0.173009
C72   C     C_R   0.359584 0.302752 0.519835 0.173468
H1    H     H_    0.062258 0.702836 0.482689 0.153373
H2    H     H_    0.921622 0.311855 0.587509 0.168546
H3    H     H_    0.921805 0.688223 0.412780 0.168524
H4    H     H_    0.062487 0.297325 0.520568 0.153488
H5    H     H_    0.576748 0.189073 0.414283 0.169720
H6    H     H_    0.435514 0.798589 0.466622 0.157518
H7    H     H_    0.435866 0.201643 0.530845 0.157092
H8    H     H_    0.576351 0.810708 0.584831 0.169542
H9    H     H_    0.328539 0.604121 0.489533 0.206362
H10   H     H_    0.690565 0.375107 0.359668 0.207060
H11   H     H_    0.689970 0.624573 0.639254 0.207178
H12   H     H_    0.328670 0.395907 0.506447 0.206511
H13   H     H_    0.806767 0.126920 0.644618 0.206968
H14   H     H_    0.170281 0.896541 0.515263 0.206825
H15   H     H_    0.170310 0.103318 0.489994 0.206702
H16   H     H_    0.807086 0.873221 0.355796 0.206967
C73   C     C_R   0.942567 0.497585 0.799283 0.392378
C74   C     C_R   0.057836 0.499878 0.201260 0.391628
C75   C     C_R   0.057847 0.500359 0.798593 0.391453
C76   C     C_R   0.942562 0.502231 0.200824 0.392471
C77   C     C_R   0.442296 0.002916 0.798918 0.392756
C78   C     C_R   0.557446 0.003156 0.200760 0.391841
C79   C     C_R   0.557425 0.996496 0.799153 0.392116
C80   C     C_R   0.442264 0.997479 0.201252 0.392540
N1    N     N_R   1.000000 0.500000 0.750030 -0.173111
N2    N     N_R   1.000000 0.500000 0.249970 -0.173087
N3    N     N_R   0.500000 0.000000 0.750030 -0.173383
N4    N     N_R   0.500000 0.000000 0.249970 -0.173385
C81   C     C_R   0.059296 0.500269 0.899031 -0.065856
C82   C     C_R   0.941410 0.500766 0.100674 -0.064434
C83   C     C_R   0.941412 0.499005 0.899430 -0.064434
C84   C     C_R   0.059289 0.499936 0.100820 -0.065886
C85   C     C_R   0.558662 0.998469 0.899319 -0.064444
C86   C     C_R   0.440821 0.999019 0.100907 -0.066063
C87   C     C_R   0.440840 0.001350 0.899267 -0.066050
C88   C     C_R   0.558672 0.001167 0.100601 -0.064403
C89   C     C_R   0.000389 0.499967 0.949564 0.031698
C90   C     C_R   0.000388 0.499997 0.050411 0.031654
C91   C     C_R   0.499723 0.999998 0.949611 0.031419
C92   C     C_R   0.499721 0.999989 0.050436 0.031554
C93   C     C_R   0.117914 0.500347 0.950473 -0.125980
C94   C     C_R   0.882797 0.500404 0.049365 -0.129458
C95   C     C_R   0.882799 0.499154 0.950862 -0.129452
C96   C     C_R   0.117911 0.500080 0.049258 -0.125742
C97   C     C_R   0.617284 0.998660 0.950643 -0.129225
C98   C     C_R   0.382200 0.999506 0.049502 -0.125697
C99   C     C_R   0.382210 0.001229 0.950800 -0.125366
C100  C     C_R   0.617290 0.000628 0.049165 -0.129507
H17   H     H_    0.164539 0.500602 0.915198 0.204072
H18   H     H_    0.836114 0.500558 0.084479 0.203625
H19   H     H_    0.836116 0.498831 0.915848 0.203663
H20   H     H_    0.164537 0.500002 0.084436 0.204140
H21   H     H_    0.663958 0.998007 0.915517 0.203597
H22   H     H_    0.335568 0.999126 0.084754 0.204458
H23   H     H_    0.335581 0.001898 0.915653 0.204527
H24   H     H_    0.663963 0.001005 0.084207 0.203527
Cl1   Cl    Cl    0.224407 0.552351 0.569708 -0.498283
Cl2   Cl    Cl    0.781431 0.450069 0.412884 -0.491408
Cl3   Cl    Cl    0.781522 0.549955 0.587479 -0.491374
Cl4   Cl    Cl    0.224027 0.447060 0.427401 -0.497594
Cl5   Cl    Cl    0.717915 0.050881 0.587574 -0.489476
Cl6   Cl    Cl    0.278106 0.949291 0.576451 -0.500287
Cl7   Cl    Cl    0.277636 0.050298 0.426381 -0.500430
Cl8   Cl    Cl    0.718134 0.949238 0.412942 -0.489477
C101  C     C_3   0.900815 0.208404 0.669613 -0.882113
H25   H     H_    0.901213 0.164088 0.707594 0.251492
H26   H     H_    0.945213 0.210465 0.625789 0.233866
H27   H     H_    0.901836 0.245746 0.723133 0.255999
C102  C     C_3   0.068305 0.822108 0.495949 -0.884219
H28   H     H_    0.061774 0.872436 0.502772 0.253492
H29   H     H_    0.047297 0.807637 0.427496 0.237841
H30   H     H_    0.041549 0.800137 0.554740 0.249188
C103  C     C_3   0.068535 0.177887 0.511127 -0.886531
H31   H     H_    0.061962 0.127501 0.505700 0.253816
H32   H     H_    0.048659 0.193006 0.580025 0.238589
H33   H     H_    0.040816 0.199264 0.452804 0.248918
C104  C     C_3   0.901123 0.791685 0.330656 -0.880823
H34   H     H_    0.901575 0.836028 0.292747 0.251352
H35   H     H_    0.945509 0.789567 0.374423 0.233235
H36   H     H_    0.902176 0.754387 0.277062 0.255905
C105  C     C_3   0.429492 0.679330 0.463371 -0.876137
H37   H     H_    0.435897 0.628830 0.461525 0.252315
H38   H     H_    0.447671 0.697823 0.395545 0.250652
H39   H     H_    0.459149 0.697718 0.522264 0.234015
C106  C     C_3   0.595793 0.294134 0.335990 -0.875273
H40   H     H_    0.595131 0.338747 0.298846 0.250887
H41   H     H_    0.594356 0.257277 0.281699 0.255151
H42   H     H_    0.551540 0.291770 0.380310 0.232822
C107  C     C_3   0.594893 0.705329 0.662233 -0.875052
H43   H     H_    0.594045 0.660606 0.699058 0.250939
H44   H     H_    0.593091 0.742023 0.716764 0.255055
H45   H     H_    0.550901 0.707787 0.617450 0.232869
C108  C     C_3   0.429836 0.320919 0.531999 -0.876429
H46   H     H_    0.436248 0.371424 0.532808 0.252376
H47   H     H_    0.448650 0.302929 0.599751 0.250619
H48   H     H_    0.458922 0.302086 0.472783 0.234064
Cl9   Cl    Cl    0.869681 0.488533 0.737646 -0.511006
Cl10  Cl    Cl    0.131001 0.502364 0.264490 -0.507467
Cl11  Cl    Cl    0.131044 0.498358 0.735154 -0.508200
Cl12  Cl    Cl    0.869663 0.511235 0.262579 -0.511178
Cl13  Cl    Cl    0.369250 0.009317 0.736268 -0.506699
Cl14  Cl    Cl    0.630356 0.012525 0.262408 -0.510603
Cl15  Cl    Cl    0.630318 0.986744 0.737447 -0.510356
Cl16  Cl    Cl    0.369167 0.991739 0.264170 -0.507092

loop_
_geom_bond_atom_site_label_1
_geom_bond_atom_site_label_2
_geom_bond_distance
_ccdc_geom_bond_type
C63   C67   1.395207 A    
C75   Cl11  1.753675 S    
C101  H25   1.110818 S    
O8    Zn1   2.017178 S    
O5    Zn2   2.020521 S    
C75   C81   1.424606 A    
C104  H34   1.110816 S    
C57   H9    1.083101 S    
C14   C22   1.390618 A    
C69   C105  1.508291 S    
C59   H11   1.081513 S    
C100  H24   1.081301 S    
C108  H47   1.110319 S    
C102  H28   1.110827 S    
O15   Zn4   2.017174 S    
C45   C53   1.418631 A    
C12   C52   1.397688 A    
C105  H37   1.110835 S    
O10   C6    1.290713 A    
C31   Cl7   1.759605 S    
C103  H31   1.110820 S    
C7    C22   1.436783 S    
C65   C101  1.508899 S    
C32   C40   1.395454 A    
C60   H12   1.083086 S    
C54   C69   1.412901 A    
C29   Cl5   1.763954 S    
C39   C63   1.403061 A    
C53   C70   1.411598 A    
C38   C62   1.403266 A    
C107  H45   1.107342 S    
O6    Zn1   2.020519 S    
C76   Cl12  1.746289 S    
O10   Zn4   2.016715 S    
C46   C54   1.418380 A    
C29   C37   1.395393 A    
C42   C50   1.418312 A    
O3    C2    1.295368 A    
C20   C28   1.398451 A    
O14   C8    1.294399 A    
C14   C54   1.396171 A    
C27   C35   1.396712 A    
C82   C94   1.408562 A    
C16   C56   1.391583 A    
C39   C47   1.408933 A    
C23   C31   1.399112 A    
C77   N3    1.375330 A    
C33   C41   1.407842 A    
C41   C46   1.396541 A    
C38   C46   1.408962 A    
C62   H14   1.082600 S    
C73   Cl9   1.746444 S    
C106  H41   1.110434 S    
C35   C43   1.414016 A    
C93   C96   1.400877 A    
C36   C44   1.407724 A    
O13   Zn4   2.020521 S    
O11   Zn3   2.020799 S    
O14   Zn3   2.020519 S    
C15   C23   1.390556 A    
C59   C71   1.391714 A    
C61   C65   1.390723 A    
C10   H2    1.083281 S    
C74   C84   1.424588 A    
O16   C7    1.290887 A    
C24   C32   1.397872 A    
O16   Zn3   2.017178 S    
C95   H19   1.081289 S    
C70   C106  1.510415 S    
C25   C33   1.391998 A    
C101  H26   1.105311 S    
C80   C86   1.423895 A    
C83   C89   1.406573 A    
O1    Zn1   2.016716 S    
C8    C21   1.434364 S    
C104  H35   1.105451 S    
C74   N2    1.375162 A    
C87   C99   1.409617 A    
C15   H7    1.083447 S    
C88   C92   1.406399 A    
C21   C29   1.397879 A    
C10   C50   1.391365 A    
O13   C7    1.295193 A    
C9    C49   1.397541 A    
C107  H44   1.110426 S    
C97   C100  1.397455 A    
C61   H13   1.081642 S    
O8    C3    1.290462 A    
C10   C18   1.388152 A    
C78   C88   1.420868 A    
C84   C96   1.409697 A    
C73   N1    1.373096 A    
C30   C38   1.393446 A    
C44   C47   1.396482 A    
C64   C68   1.390799 A    
O3    Zn1   2.020799 S    
O2    Zn2   2.016715 S    
Zn4   N4    2.025399 S    
C37   C45   1.414268 A    
C9    H1    1.083490 S    
C72   C108  1.508171 S    
C73   C83   1.420445 A    
C108  H48   1.107576 S    
C102  H29   1.106908 S    
C34   C42   1.413908 A    
C85   C97   1.408828 A    
C107  H43   1.110802 S    
O12   C5    1.294286 A    
C74   Cl10  1.752968 S    
C58   C70   1.391720 A    
C80   N4    1.375217 A    
C83   C95   1.408576 A    
C1    C20   1.438352 S    
C60   C72   1.395754 A    
C33   C57   1.402704 A    
C2    C19   1.436346 S    
C76   C82   1.420524 A    
C3    C18   1.436440 S    
C94   H18   1.081294 S    
C5    C24   1.434137 S    
C35   C59   1.403335 A    
C85   C91   1.406334 A    
C6    C23   1.436250 S    
C86   C92   1.406866 A    
C106  H42   1.107144 S    
C99   H23   1.081320 S    
C26   C34   1.396592 A    
C84   C90   1.407114 A    
C16   H8    1.083317 S    
C66   C102  1.506617 S    
C52   C67   1.412190 A    
O7    Zn2   2.017174 S    
C40   C48   1.414335 A    
C105  H38   1.110302 S    
C55   C72   1.412800 A    
C22   C30   1.399362 A    
C77   C87   1.423938 A    
O4    C1    1.291071 A    
C30   Cl6   1.759360 S    
C13   C53   1.391646 A    
O15   C8    1.290351 A    
C26   Cl2   1.762625 S    
C43   C51   1.418358 A    
C106  H40   1.110806 S    
C103  H33   1.110379 S    
C79   N3    1.374084 A    
C12   C20   1.391525 A    
C28   Cl4   1.757244 S    
C104  H36   1.110444 S    
C37   C61   1.402346 A    
C15   C55   1.396100 A    
C31   C39   1.393329 A    
C17   C25   1.398194 A    
C91   C92   1.429751 A    
C102  H30   1.110374 S    
O9    Zn3   2.016716 S    
C19   C27   1.399104 A    
C89   C90   1.430058 A    
C105  H39   1.107696 S    
C41   C49   1.417962 A    
C28   C36   1.391995 A    
C79   Cl15  1.747697 S    
C43   C48   1.399478 A    
C86   C98   1.409502 A    
C68   C104  1.509126 S    
C78   Cl14  1.747720 S    
C42   C45   1.399462 A    
C12   H4    1.083481 S    
C57   C69   1.395863 A    
C77   Cl13  1.752071 S    
Zn2   N2    2.025399 S    
C81   C89   1.407245 A    
O2    C2    1.290404 A    
Zn1   N1    2.025397 S    
O4    Zn2   2.020799 S    
C97   H21   1.081285 S    
C94   C95   1.396896 A    
O5    C3    1.295375 A    
Zn3   N3    2.025397 S    
C101  H27   1.110449 S    
C48   C56   1.418662 A    
O6    C4    1.290727 A    
O11   C6    1.295099 A    
C93   H17   1.081329 S    
C36   C60   1.402780 A    
C75   N1    1.375176 A    
C13   C21   1.388438 A    
C71   C107  1.510512 S    
C88   C100  1.408707 A    
C96   H20   1.081323 S    
C62   C66   1.395089 A    
C76   N2    1.373118 A    
C4    C17   1.437808 S    
C40   C64   1.402374 A    
O9    C5    1.290360 A    
C108  H46   1.110832 S    
C67   C103  1.506356 S    
C98   H22   1.081329 S    
C11   H3    1.083287 S    
C79   C85   1.421002 A    
C11   C51   1.391278 A    
C14   H6    1.083431 S    
C63   H15   1.082674 S    
C25   Cl1   1.757477 S    
C44   C52   1.417844 A    
C32   Cl8   1.764120 S    
C87   C91   1.406733 A    
C18   C26   1.399089 A    
C16   C24   1.388324 A    
C98   C99   1.400394 A    
C27   Cl3   1.762719 S    
C56   C71   1.411578 A    
C51   C68   1.411250 A    
C80   Cl16  1.752663 S    
C64   H16   1.081648 S    
C47   C55   1.418321 A    
O1    C1    1.295937 A    
O12   Zn4   2.020799 S    
C103  H32   1.107114 S    
O7    C4    1.295998 A    
C9    C17   1.391271 A    
C11   C19   1.388152 A    
C58   H10   1.081548 S    
C13   H5    1.083309 S    
C81   C93   1.409622 A    
C50   C65   1.411191 A    
C82   C90   1.406580 A    
C78   N4    1.373791 A    
C49   C66   1.412065 A    
C34   C58   1.403265 A    
