data_mof_unit_11035.cif
_audit_creation_date              2012-12-10T17:06:03-0500
_audit_creation_method            fapswitch 2.2
_symmetry_space_group_name_H-M    P1
_symmetry_Int_Tables_number       1
_space_group_crystal_system       triclinic
_cell_length_a                    11.539795
_cell_length_b                    10.018645
_cell_length_c                    10.082741
_cell_angle_alpha                 90.902066
_cell_angle_beta                  90.744353
_cell_angle_gamma                 89.898241
_cell_volume                      1165.4527715

loop_
_atom_site_label
_atom_site_type_symbol
_atom_type_description
_atom_site_fract_x
_atom_site_fract_y
_atom_site_fract_z
_atom_type_partial_charge
C1    C     C_R   0.500951 0.255906 0.498868 0.966689
C2    C     C_1   0.161531 0.497855 0.497970 -0.087693
C3    C     C_1   0.059333 0.498233 0.498793 0.070751
C4    C     C_1   0.940659 0.498963 0.500694 0.077077
C5    C     C_1   0.838454 0.499560 0.501633 -0.077591
C6    C     C_2   0.369971 0.927715 0.404507 0.366082
C7    C     C_1   0.289573 0.815034 0.593471 0.341503
C8    C     C_1   0.403483 0.570058 0.102679 0.358145
C9    C     C_2   0.383345 0.838284 0.502135 -0.424794
C10   C     C_2   0.459537 0.031943 0.392484 0.368435
C11   C     C_2   0.477010 0.111925 0.500402 -0.461229
C12   C     C_2   0.588332 0.532419 0.930369 0.357511
C13   C     C_2   0.590527 0.494786 0.072830 -0.157109
C14   C     C_R   0.282050 0.498023 0.499206 0.876549
C15   C     C_R   0.478769 0.739561 0.500869 0.874109
C16   C     C_R   0.717922 0.500046 0.500668 0.921918
H1    H     H_    0.445872 0.077870 0.595485 0.156783
H2    H     H_    0.440392 0.438236 0.890876 0.159046
H3    H     H_    0.673603 0.470480 0.117963 0.213606
H4    H     H_    0.100016 0.115762 0.420107 0.393123
H5    H     H_    0.536782 0.947845 0.052959 0.384161
H6    H     H_    0.703421 0.770217 0.040323 0.368035
N1    N     N_2   0.501210 0.501330 0.852150 -0.231750
N2    N     N_2   0.501250 0.501360 0.147810 -0.150971
N3    N     N_1   0.214939 0.796846 0.666579 -0.112101
N4    N     N_1   0.322288 0.627289 0.065882 -0.141224
O1    O     O_R   0.499980 0.319060 0.613040 -0.611162
O2    O     O_2   0.150551 0.855352 0.345068 -0.270829
O3    O     O_3   0.175875 0.088915 0.458368 -0.567569
O4    O     O_2   0.446184 0.167911 0.165169 -0.248638
O5    O     O_2   0.640311 0.110794 0.248933 -0.283115
O6    O     O_3   0.513759 0.921321 0.143088 -0.556752
O7    O     O_2   0.801170 0.530920 0.829022 -0.241876
O8    O     O_2   0.678649 0.723674 0.774465 -0.266356
O9    O     O_3   0.765766 0.708671 0.011483 -0.493776
O10   O     O_R   0.500020 0.319100 0.386900 -0.527464
O11   O     O_R   0.334430 0.499990 0.613070 -0.615933
O12   O     O_R   0.334470 0.500030 0.386930 -0.601310
O13   O     O_R   0.499980 0.680900 0.613100 -0.552598
O14   O     O_R   0.500020 0.680940 0.386960 -0.575943
O15   O     O_R   0.665530 0.499970 0.613070 -0.531743
O16   O     O_R   0.665570 0.500010 0.386930 -0.613552
O17   O     O_2   0.233911 0.035290 0.215213 -0.205140
S1    S     S_3+6 0.228817 0.975200 0.350582 0.078423
S2    S     S_3+6 0.517254 0.063338 0.234205 0.080887
S3    S     S_3+6 0.709820 0.625081 0.879645 0.087521
Zn1   Zn    Zn3+2 0.499980 0.499970 0.650990 1.046738
Zn2   Zn    Zn3+2 0.500020 0.500030 0.349010 1.061126

loop_
_geom_bond_atom_site_label_1
_geom_bond_atom_site_label_2
_ccdc_geom_bond_type
C6    C10   S    
O17   S1    D    
O8    S3    D    
O11   Zn1   S    
C8    N4    T    
O6    S2    S    
O4    S2    D    
O12   Zn2   S    
H2    N1    S    
C1    C11   S    
C10   S2    S    
C2    C3    T    
O15   Zn1   S    
O16   Zn2   S    
C14   O11   A    
H6    O9    S    
C12   N1    D    
C15   O13   A    
C6    C9    D    
C12   S3    S    
C8    N2    S    
O10   Zn2   S    
C7    C9    S    
H4    O3    S    
O3    S1    S    
C9    C15   S    
C2    C14   S    
H5    O6    S    
C15   O14   A    
N1    Zn1   S    
C10   C11   D    
C13   H3    S    
C14   O12   A    
N2    Zn2   S    
C16   O16   A    
C12   C13   S    
C13   N2    D    
O13   Zn1   S    
O5    S2    D    
O1    Zn1   S    
C1    O1    A    
O14   Zn2   S    
C11   H1    S    
C5    C16   S    
C6    S1    S    
O9    S3    S    
C16   O15   A    
O2    S1    D    
C3    C4    S    
C1    O10   A    
O7    S3    D    
C4    C5    T    
C7    N3    T    
