data_mof_unit_20585.cif
_audit_creation_date              2012-12-11T15:33:50-0500
_audit_creation_method            fapswitch 2.2
_symmetry_space_group_name_H-M    P1
_symmetry_Int_Tables_number       1
_space_group_crystal_system       triclinic
_cell_length_a                    27.084063
_cell_length_b                    7.207367
_cell_length_c                    22.713457
_cell_angle_alpha                 89.549492
_cell_angle_beta                  101.158555
_cell_angle_gamma                 89.490078
_cell_volume                      4349.57677869

loop_
_atom_site_label
_atom_site_type_symbol
_atom_type_description
_atom_site_fract_x
_atom_site_fract_y
_atom_site_fract_z
_atom_type_partial_charge
O1    O     O_R   0.207310 0.594030 0.676830 -0.536802
O2    O     O_R   0.792690 0.405970 0.323170 -0.536802
O3    O     O_R   0.292690 0.094030 0.823170 -0.531437
O4    O     O_R   0.707310 0.905970 0.176830 -0.531437
O5    O     O_R   0.197320 0.262370 0.795700 -0.534180
O6    O     O_R   0.802680 0.737630 0.204300 -0.534181
O7    O     O_R   0.302680 0.762370 0.704300 -0.535548
O8    O     O_R   0.697320 0.237630 0.295700 -0.535548
C1    C     C_R   0.184459 0.432703 0.811505 0.696008
C2    C     C_R   0.815541 0.567297 0.188495 0.696007
C3    C     C_R   0.315563 0.932438 0.688473 0.693395
C4    C     C_R   0.684437 0.067562 0.311527 0.693395
O9    O     O_R   0.201410 0.264250 0.675590 -0.527811
O10   O     O_R   0.798590 0.735750 0.324410 -0.527811
O11   O     O_R   0.298590 0.764250 0.824410 -0.527586
O12   O     O_R   0.701410 0.235750 0.175590 -0.527586
O13   O     O_R   0.296810 0.094940 0.702210 -0.540386
O14   O     O_R   0.703190 0.905060 0.297790 -0.540386
O15   O     O_R   0.203190 0.594940 0.797790 -0.542138
O16   O     O_R   0.796810 0.405060 0.202210 -0.542138
C5    C     C_R   0.189888 0.433733 0.653442 0.691356
C6    C     C_R   0.810112 0.566267 0.346558 0.691356
C7    C     C_R   0.310256 0.930989 0.846796 0.688800
C8    C     C_R   0.689744 0.069011 0.153204 0.688799
O17   O     O_3   0.281300 0.427390 0.758870 -0.367230
O18   O     O_3   0.718700 0.572610 0.241130 -0.367230
O19   O     O_3   0.218700 0.927390 0.741130 -0.371757
O20   O     O_3   0.781300 0.072610 0.258870 -0.371756
V1    V     V_3+5 0.244190 0.152150 0.748350 1.472085
V2    V     V_3+5 0.755810 0.847850 0.251650 1.472085
V3    V     V_3+5 0.255810 0.652150 0.751650 1.469670
V4    V     V_3+5 0.744190 0.347850 0.248350 1.469670
C9    C     C_R   0.654640 0.072527 0.094429 -0.062263
C10   C     C_R   0.345359 0.927473 0.905571 -0.062261
C11   C     C_R   0.844828 0.555894 0.405052 -0.055119
C12   C     C_R   0.155171 0.444106 0.594948 -0.055119
C13   C     C_R   0.631242 0.227084 0.997922 -0.106541
C14   C     C_R   0.368756 0.772922 0.002080 -0.106539
C15   C     C_R   0.857430 0.543165 0.513163 -0.120862
C16   C     C_R   0.142568 0.456826 0.486837 -0.120862
C17   C     C_R   0.667337 0.180755 0.048323 -0.138560
C18   C     C_R   0.332661 0.819246 0.951677 -0.138558
C19   C     C_R   0.825507 0.565560 0.457601 -0.163295
C20   C     C_R   0.174492 0.434430 0.542399 -0.163295
C21   C     C_R   0.605751 0.999325 0.087148 -0.116258
C22   C     C_R   0.394248 0.000676 0.912853 -0.116256
C23   C     C_R   0.896967 0.533960 0.408704 -0.131552
C24   C     C_R   0.103033 0.466048 0.591297 -0.131552
C25   C     C_R   0.569226 0.033048 0.033729 0.107531
C26   C     C_R   0.430773 0.966957 0.966273 0.107532
C27   C     C_R   0.930874 0.531369 0.464940 0.103956
C28   C     C_R   0.069126 0.468637 0.535061 0.103956
C29   C     C_R   0.581896 0.162058 0.991843 0.083745
C30   C     C_R   0.418102 0.837949 0.008159 0.083746
C31   C     C_R   0.909528 0.520133 0.517041 0.070994
C32   C     C_R   0.090471 0.479867 0.482959 0.070995
C33   C     C_R   0.519213 0.958693 0.023046 -0.036276
C34   C     C_R   0.480785 0.041313 0.976957 -0.036277
C35   C     C_R   0.984730 0.525560 0.471338 -0.038111
C36   C     C_R   0.015270 0.474449 0.528663 -0.038112
C37   C     C_R   0.494078 0.196073 0.944244 0.264375
C38   C     C_R   0.505919 0.803936 0.055760 0.264376
C39   C     C_R   0.990364 0.428845 0.576597 0.264455
C40   C     C_R   0.009635 0.571165 0.423405 0.264454
C41   C     C_R   0.544388 0.241269 0.947963 -0.160082
C42   C     C_R   0.455610 0.758743 0.052041 -0.160082
C43   C     C_R   0.939408 0.469037 0.571811 -0.174051
C44   C     C_R   0.060591 0.530966 0.428190 -0.174051
H1    H     H_    0.553682 0.354274 0.920365 0.167416
H2    H     H_    0.446315 0.645742 0.079641 0.167417
H3    H     H_    0.921891 0.441960 0.610057 0.170384
H4    H     H_    0.078108 0.558041 0.389943 0.170383
H5    H     H_    0.404583 0.065939 0.874189 0.156014
H6    H     H_    0.595416 0.934062 0.125813 0.156016
H7    H     H_    0.090223 0.491891 0.632529 0.155863
H8    H     H_    0.909777 0.508124 0.367471 0.155863
H9    H     H_    0.295531 0.759366 0.946653 0.112981
H10   H     H_    0.704467 0.240634 0.053347 0.112981
H11   H     H_    0.214604 0.417885 0.544530 0.110770
H12   H     H_    0.785395 0.582097 0.455469 0.110769
H13   H     H_    0.641263 0.322701 0.965179 0.125987
H14   H     H_    0.358735 0.677307 0.034822 0.125987
H15   H     H_    0.841183 0.538876 0.553168 0.130759
H16   H     H_    0.158816 0.461109 0.446831 0.130759
C45   C     C_R   0.616729 0.891864 0.348916 -0.174810
C46   C     C_R   0.383271 0.108136 0.651084 -0.174810
C47   C     C_R   0.883344 0.389560 0.151032 -0.167748
C48   C     C_R   0.116655 0.610440 0.848967 -0.167747
H17   H     H_    0.623000 0.776520 0.320869 0.162526
H18   H     H_    0.376999 0.223480 0.679131 0.162525
H19   H     H_    0.877114 0.272981 0.178994 0.161070
H20   H     H_    0.122886 0.727019 0.821006 0.161070
C49   C     C_R   0.579834 0.875130 0.384253 0.288809
C50   C     C_R   0.420166 0.124870 0.615746 0.288809
C51   C     C_R   0.920286 0.372774 0.115725 0.292158
C52   C     C_R   0.079714 0.627226 0.884275 0.292158
C53   C     C_R   0.570647 0.022981 0.421555 -0.046259
C54   C     C_R   0.429352 0.977019 0.578445 -0.046259
C55   C     C_R   0.929407 0.522271 0.078537 -0.046908
C56   C     C_R   0.070593 0.477729 0.921462 -0.046908
C57   C     C_R   0.598094 0.187664 0.420179 -0.118486
C58   C     C_R   0.401906 0.812336 0.579821 -0.118487
C59   C     C_R   0.901872 0.688436 0.080010 -0.115707
C60   C     C_R   0.098128 0.311564 0.919989 -0.115707
H21   H     H_    0.592154 0.303487 0.448168 0.183858
H22   H     H_    0.407846 0.696512 0.551832 0.183858
H23   H     H_    0.907757 0.805551 0.052115 0.182663
H24   H     H_    0.092243 0.194449 0.947885 0.182662
C61   C     C_R   0.634279 0.204338 0.383868 -0.125630
C62   C     C_R   0.365721 0.795662 0.616132 -0.125630
C63   C     C_R   0.865660 0.705073 0.116291 -0.119776
C64   C     C_R   0.134340 0.294927 0.883709 -0.119775
H25   H     H_    0.654982 0.332458 0.384635 0.137837
H26   H     H_    0.345018 0.667542 0.615365 0.137837
H27   H     H_    0.844903 0.834466 0.115601 0.137095
H28   H     H_    0.155097 0.165534 0.884399 0.137095
C65   C     C_R   0.644564 0.055551 0.348393 -0.101605
C66   C     C_R   0.355436 0.944449 0.651607 -0.101606
C67   C     C_R   0.855418 0.554819 0.151634 -0.097626
C68   C     C_R   0.144582 0.445181 0.848366 -0.097625
N1    N     N_R   0.508917 0.164397 0.475929 -0.233654
N2    N     N_R   0.491083 0.835603 0.524070 -0.233654
N3    N     N_R   0.990962 0.663489 0.024174 -0.231336
N4    N     N_R   0.009038 0.336511 0.975826 -0.231336
N5    N     N_R   0.476148 0.154228 0.512760 -0.211109
N6    N     N_R   0.523852 0.845772 0.487240 -0.211109
N7    N     N_R   0.023685 0.653717 0.987272 -0.212056
N8    N     N_R   0.976315 0.346283 0.012728 -0.212056
C69   C     C_R   0.466654 0.989903 0.537972 0.537719
C70   C     C_R   0.533346 0.010097 0.462027 0.537719
C71   C     C_R   0.033295 0.490332 0.961952 0.538915
C72   C     C_R   0.966704 0.509668 0.038048 0.538915
Br1   Br    Br    0.447339 0.383483 0.905333 -0.557484
Br2   Br    Br    0.552658 0.616524 0.094671 -0.557482
Br3   Br    Br    0.017831 0.270796 0.644222 -0.518113
Br4   Br    Br    0.982170 0.729222 0.355781 -0.518113
Br5   Br    Br    0.541267 0.651218 0.375570 -0.492247
Br6   Br    Br    0.458732 0.348782 0.624429 -0.492249
Br7   Br    Br    0.958999 0.146197 0.124286 -0.470797
Br8   Br    Br    0.041001 0.853803 0.875714 -0.470796

loop_
_geom_bond_atom_site_label_1
_geom_bond_atom_site_label_2
_ccdc_geom_bond_type
C52   Br8   S    
O17   V3    S    
C55   C59   A    
C40   Br4   S    
O1    C5    A    
C47   H19   S    
N3    C72   A    
O19   V1    S    
C9    C21   A    
C16   H16   S    
O3    C7    A    
C10   C18   A    
C56   C60   A    
N1    C70   A    
O15   V3    S    
C62   C66   A    
C48   C52   A    
C56   C71   S    
C37   Br1   S    
C33   C38   A    
C5    C12   S    
O7    C3    A    
C6    C11   S    
C35   C40   A    
C26   C30   A    
C55   C72   S    
C36   C39   A    
C40   C44   A    
O2    V4    S    
O9    V1    S    
C23   H8    S    
C14   C18   A    
O4    C8    A    
C51   C55   A    
C50   C54   A    
C57   C61   A    
C60   H24   S    
O1    V3    S    
O13   V1    S    
C59   C63   A    
O3    V1    S    
C2    C67   S    
C46   C50   A    
N1    N5    A    
C45   C49   A    
C1    O15   A    
C15   C31   A    
C48   H20   S    
C2    O16   A    
C16   C32   A    
C47   C51   A    
O2    C6    A    
C12   C24   A    
C10   C22   A    
C48   C68   A    
C11   C19   A    
C62   H26   S    
N2    C69   A    
C43   H3    S    
C12   C20   A    
C44   H4    S    
N4    N8    A    
C13   C29   A    
C34   C37   A    
O11   C7    A    
C11   C23   A    
C35   C36   A    
O12   C8    A    
C14   H14   S    
C24   H7    S    
C13   H13   S    
C47   C67   A    
O10   V2    S    
N8    C72   A    
O5    V1    S    
C57   H21   S    
C39   C43   A    
O7    V3    S    
C38   C42   A    
C61   C65   A    
C26   C34   A    
C46   H18   S    
C17   H10   S    
C64   C68   A    
C45   H17   S    
O18   V4    S    
C15   C19   A    
C19   H12   S    
C54   C58   A    
N4    C71   A    
C21   H6    S    
O8    V4    S    
N2    N6    A    
O5    C1    A    
C23   C27   A    
C63   H27   S    
N3    N7    A    
C14   C30   A    
C21   C25   A    
O8    C4    A    
C7    C10   S    
C53   C57   A    
O9    C5    A    
C46   C66   A    
C45   C65   A    
O14   V2    S    
C63   C67   A    
O6    V2    S    
C16   C20   A    
C50   Br6   S    
C58   C62   A    
C27   C35   A    
C49   C53   A    
C64   H28   S    
C29   C41   A    
C60   C64   A    
O16   V4    S    
C3    O13   A    
C20   H11   S    
C53   C70   S    
C25   C33   A    
C31   C43   A    
O11   V3    S    
C30   C42   A    
C61   H25   S    
O12   V4    S    
C22   C26   A    
C51   Br7   S    
C8    C9    S    
C9    C17   A    
O10   C6    A    
O20   V2    S    
C15   H15   S    
C32   C44   A    
C38   Br2   S    
C33   C34   A    
C42   H2    S    
C41   H1    S    
C52   C56   A    
C54   C69   S    
C58   H22   S    
C27   C31   A    
C37   C41   A    
C13   C17   A    
N7    C71   A    
C25   C29   A    
C49   Br5   S    
O6    C2    A    
C4    C65   S    
N5    C69   A    
C24   C28   A    
C18   H9    S    
C28   C36   A    
C4    O14   A    
C1    C68   S    
N6    C70   A    
C59   H23   S    
C3    C66   S    
C22   H5    S    
O4    V2    S    
C28   C32   A    
C39   Br3   S    
