data_mof_unit_54466.cif
_audit_creation_date              2012-12-11T14:03:17-0500
_audit_creation_method            fapswitch 2.2
_symmetry_space_group_name_H-M    P1
_symmetry_Int_Tables_number       1
_space_group_crystal_system       triclinic
_cell_length_a                    6.93573
_cell_length_b                    11.389538
_cell_length_c                    18.733165
_cell_angle_alpha                 90.000541
_cell_angle_beta                  92.876405
_cell_angle_gamma                 90.00009
_cell_volume                      1477.95746357

loop_
_atom_site_label
_atom_site_type_symbol
_atom_type_description
_atom_site_fract_x
_atom_site_fract_y
_atom_site_fract_z
_atom_type_partial_charge
O1    O     O_R   0.330540 0.606360 0.598870 -0.542079
O2    O     O_R   0.669460 0.106360 0.401130 -0.542078
O3    O     O_R   0.026770 0.620470 0.750430 -0.540634
O4    O     O_R   0.973230 0.120470 0.249570 -0.540641
O5    O     O_R   0.856460 0.393640 0.750930 -0.528156
O6    O     O_R   0.143540 0.893640 0.249070 -0.528159
C1    C     C_R   0.198659 0.647642 0.774830 0.803327
C2    C     C_R   0.801342 0.147641 0.225169 0.803326
O7    O     O_R   0.000920 0.620350 0.599420 -0.552906
O8    O     O_R   0.999080 0.120350 0.400580 -0.552906
O9    O     O_R   0.830430 0.393520 0.598850 -0.540611
O10   O     O_R   0.169570 0.893520 0.401150 -0.540612
C3    C     C_R   0.166654 0.647868 0.574521 0.748865
C4    C     C_R   0.833346 0.147868 0.425479 0.748870
O11   O     O_R   0.356570 0.606480 0.750960 -0.532285
O12   O     O_R   0.643430 0.106480 0.249040 -0.532280
O13   O     O_3   0.176990 0.425580 0.674890 -0.368163
O14   O     O_3   0.823010 0.925580 0.325110 -0.368164
V1    V     V_3+5 0.902170 0.513810 0.674910 1.435959
V2    V     V_3+5 0.097830 0.013810 0.325090 1.435955
O15   O     O_R   0.500800 0.379530 0.599380 -0.552013
O16   O     O_R   0.499200 0.879530 0.400620 -0.552013
C5    C     C_R   0.666548 0.352007 0.574494 0.754314
C6    C     C_R   0.333451 0.852007 0.425505 0.754310
O17   O     O_R   0.526650 0.379650 0.750390 -0.532497
O18   O     O_R   0.473350 0.879650 0.249610 -0.532494
C7    C     C_R   0.698619 0.351244 0.774089 0.716578
C8    C     C_R   0.301380 0.851243 0.225912 0.716578
V3    V     V_3+5 0.402160 0.486190 0.674900 1.444570
V4    V     V_3+5 0.597840 0.986190 0.325100 1.444574
O19   O     O_3   0.677210 0.574420 0.674910 -0.380021
O20   O     O_3   0.322790 0.074420 0.325090 -0.380020
C9    C     C_R   0.723836 0.068617 0.876533 -0.134466
C10   C     C_R   0.276092 0.568616 0.123465 -0.134464
H1    H     H_    0.696308 0.114692 0.765505 0.102657
H2    H     H_    0.303611 0.614690 0.234494 0.102656
H3    H     H_    0.752330 0.935234 0.990183 0.132381
H4    H     H_    0.247568 0.435235 0.009814 0.132382
H5    H     H_    0.720766 0.975321 0.865035 0.129869
H6    H     H_    0.279121 0.475320 0.134963 0.129870
C11   C     C_R   0.714972 0.267838 0.833194 -0.032737
C12   C     C_R   0.285025 0.767837 0.166805 -0.032739
C13   C     C_R   0.786818 0.347153 0.178485 -0.215138
C14   C     C_R   0.213208 0.847151 0.821517 -0.215144
C15   C     C_R   0.773609 0.428535 0.123580 -0.105924
C16   C     C_R   0.226436 0.928532 0.876423 -0.105927
C17   C     C_R   0.759201 0.391611 0.052856 -0.141794
C18   C     C_R   0.240842 0.891609 0.947146 -0.141798
C19   C     C_R   0.757979 0.270599 0.034784 0.010690
C20   C     C_R   0.242035 0.770598 0.965216 0.010690
C21   C     C_R   0.771051 0.185959 0.091459 0.033125
C22   C     C_R   0.228941 0.685960 0.908540 0.033130
C23   C     C_R   0.743719 0.231633 0.962192 0.052098
C24   C     C_R   0.256283 0.731632 0.037808 0.052097
C25   C     C_R   0.740564 0.109469 0.947337 0.097763
C26   C     C_R   0.259391 0.609469 0.052662 0.097762
C27   C     C_R   0.754047 0.028212 0.002790 -0.293826
C28   C     C_R   0.245887 0.528213 0.997208 -0.293828
C29   C     C_R   0.770135 0.063967 0.074369 0.293151
C30   C     C_R   0.229820 0.563968 0.925629 0.293148
C31   C     C_R   0.732025 0.309789 0.903332 -0.191616
C32   C     C_R   0.268001 0.809787 0.096668 -0.191609
C33   C     C_R   0.710165 0.147458 0.819814 -0.197638
C34   C     C_R   0.289781 0.647457 0.180185 -0.197641
C35   C     C_R   0.785258 0.226953 0.163629 -0.080659
C36   C     C_R   0.214745 0.726953 0.836371 -0.080658
H7    H     H_    0.734807 0.403761 0.909582 0.109838
H8    H     H_    0.265259 0.903760 0.090419 0.109835
H9    H     H_    0.798192 0.378174 0.233242 0.100672
H10   H     H_    0.201839 0.878172 0.766760 0.100672
H11   H     H_    0.748903 0.460836 0.013792 0.118466
H12   H     H_    0.251159 0.960831 0.986211 0.118467
H13   H     H_    0.774493 0.521453 0.135904 0.133490
H14   H     H_    0.225571 0.021448 0.864100 0.133493
C37   C     C_2   0.832000 0.233673 0.484707 -0.346845
C38   C     C_2   0.168000 0.733673 0.515293 -0.346844
H15   H     H_    0.969691 0.270444 0.503771 0.148924
H16   H     H_    0.030309 0.770444 0.496230 0.148925
C39   C     C_2   0.667912 0.266187 0.515276 -0.349100
C40   C     C_2   0.332087 0.766187 0.484724 -0.349098
H17   H     H_    0.530222 0.229416 0.496211 0.148928
H18   H     H_    0.469778 0.729417 0.503788 0.148928
O21   O     O_3   0.785070 0.980052 0.127732 -0.644361
H19   H     H_    0.782509 0.900282 0.106454 0.287808
O22   O     O_3   0.214867 0.480054 0.872265 -0.644361
H20   H     H_    0.217407 0.400284 0.893541 0.287809

loop_
_geom_bond_atom_site_label_1
_geom_bond_atom_site_label_2
_ccdc_geom_bond_type
C9    C25   A    
C10   C26   A    
O13   V3    S    
C14   C36   A    
C11   C31   A    
O4    C2    A    
V1    O19   S    
C17   C19   A    
O22   H20   S    
O9    V1    S    
C9    H5    S    
C10   H6    S    
C38   H16   S    
O3    C1    A    
C27   C29   A    
C28   C30   A    
C15   H13   S    
C21   C35   A    
C15   C17   A    
C8    C12   S    
C31   H7    S    
O7    C3    A    
C22   C30   A    
O5    C7    A    
C23   C31   A    
C6    C40   S    
O6    C8    A    
C14   C16   A    
C19   C21   A    
C20   C22   A    
O3    V1    S    
O14   V4    S    
C12   C32   A    
C9    C33   A    
C18   C20   A    
C2    C35   S    
C2    O12   A    
H4    C28   S    
C18   H12   S    
C10   C34   A    
O7    V1    S    
O11   V3    S    
C16   C18   A    
C23   C25   A    
O17   V3    S    
C24   C26   A    
C40   H18   S    
O8    C4    A    
O8    V2    S    
C39   H17   S    
C1    O11   A    
C24   C32   A    
O15   V3    S    
C37   H15   S    
C7    C11   S    
O21   H19   S    
C3    C38   S    
C13   C35   A    
O10   V2    S    
O1    V3    S    
C20   C24   A    
C14   H10   S    
C13   C15   A    
C17   H11   S    
O18   V4    S    
C25   C27   A    
O16   C6    A    
C21   C29   A    
C11   C33   A    
C12   C34   A    
C16   H14   S    
C22   C36   A    
V2    O20   S    
O16   V4    S    
C38   C40   D    
C29   O21   S    
C30   O22   S    
O5    V1    S    
O17   C7    A    
O6    V2    S    
O10   C6    A    
O18   C8    A    
C32   H8    S    
O2    V4    S    
C4    C37   S    
O15   C5    A    
V3    O19   S    
C1    C36   S    
V4    O20   S    
C37   C39   D    
C19   C23   A    
O9    C5    A    
O13   V1    S    
C26   C28   A    
O14   V2    S    
O2    C4    A    
O4    V2    S    
O1    C3    A    
C13   H9    S    
H1    C33   S    
C5    C39   S    
H2    C34   S    
O12   V4    S    
H3    C27   S    
