data_mof_unit_30679.cif
_audit_creation_date              2013-03-05T15:50:20-0500
_audit_creation_method            fapswitch 2.2
_symmetry_space_group_name_H-M    P1
_symmetry_Int_Tables_number       1
_space_group_crystal_system       triclinic
_cell_length_a                    19.818173
_cell_length_b                    19.907474
_cell_length_c                    20.746942
_cell_angle_alpha                 107.548393
_cell_angle_beta                  106.852822
_cell_angle_gamma                 111.030353
_cell_volume                      6514.99613037

loop_
_atom_site_label
_atom_site_type_symbol
_atom_site_description
_atom_site_fract_x
_atom_site_fract_y
_atom_site_fract_z
_atom_type_partial_charge
C1    C     C_R   0.722997 0.719089 0.646695 0.548610
N1    N     N_R   0.652650 0.649400 0.604520 -0.084095
C2    C     C_R   0.442900 0.278259 0.513061 0.157249
N2    N     N_R   0.456500 0.342990 0.499770 -0.064300
C3    C     C_R   0.497298 0.555469 0.713148 -0.117025
H1    H     H_    0.515099 0.616482 0.750677 0.100044
N3    N     N_R   0.494060 0.532730 0.644340 -0.035589
C4    C     C_R   0.667303 0.439402 0.439306 0.150656
N4    N     N_R   0.615090 0.459670 0.459940 -0.067589
C5    C     C_R   0.427181 0.421685 0.649684 -0.139828
H2    H     H_    0.379359 0.362494 0.631389 0.100014
N5    N     N_R   0.452360 0.449090 0.604500 -0.042793
C6    C     C_R   0.729152 0.573560 0.501135 -0.160218
H3    H     H_    0.767352 0.636354 0.517491 0.172628
N6    N     N_R   0.656790 0.543310 0.499790 -0.053705
C7    C     C_R   0.511885 0.281332 0.445832 -0.203011
H4    H     H_    0.528832 0.256202 0.403961 0.118929
N7    N     N_R   0.501350 0.345910 0.459930 -0.050402
C8    C     C_R   0.650966 0.711353 0.711907 -0.168916
H5    H     H_    0.626866 0.728974 0.750653 0.141070
N8    N     N_R   0.607810 0.646480 0.644360 -0.065009
C9    C     C_R   0.724519 0.758091 0.716070 -0.157887
C10   C     C_R   0.481532 0.242056 0.482873 0.069577
C11   C     C_R   0.456726 0.486554 0.718762 0.030862
C12   C     C_R   0.737427 0.510652 0.463456 0.043267
C13   C     C_R   0.553780 0.583675 0.348428 0.091107
N9    N     N_R   0.547640 0.550910 0.395500 -0.086869
C14   C     C_R   0.264851 0.434357 0.462603 -0.140777
H6    H     H_    0.214997 0.374253 0.428108 0.173368
N10   N     N_R   0.343210 0.456690 0.500210 -0.042837
C15   C     C_R   0.502569 0.726133 0.569320 0.505345
N11   N     N_R   0.498650 0.654090 0.540070 -0.084666
C16   C     C_R   0.341737 0.295942 0.283713 -0.180726
H7    H     H_    0.357663 0.277681 0.238898 0.179663
N12   N     N_R   0.392190 0.353520 0.355640 -0.074515
C17   C     C_R   0.272531 0.288683 0.350359 0.510680
N13   N     N_R   0.347350 0.350600 0.395480 -0.089724
C18   C     C_R   0.572820 0.730054 0.502664 -0.222625
H8    H     H_    0.619159 0.754893 0.486413 0.133459
N14   N     N_R   0.543500 0.657010 0.500230 -0.066851
C19   C     C_R   0.479862 0.450226 0.281774 0.493147
N15   N     N_R   0.505940 0.467270 0.355660 -0.112774
C20   C     C_R   0.333750 0.568921 0.525674 -0.114054
H9    H     H_    0.349316 0.631499 0.547173 0.107199
N16   N     N_R   0.384910 0.540330 0.540060 -0.040284
Ni1   Ni    Ni4+2 0.599250 0.599260 0.500010 0.206311
Ni2   Ni    Ni4+2 0.400750 0.400740 0.499990 0.220009
Ni3   Ni    Ni4+2 0.496390 0.592570 0.591380 0.241007
Ni4   Ni    Ni4+2 0.503610 0.407430 0.408620 0.181665
C21   C     C_R   0.502412 0.521699 0.274896 -0.109568
C22   C     C_R   0.258735 0.503626 0.476141 0.058364
C23   C     C_R   0.549768 0.774564 0.546585 -0.056880
C24   C     C_R   0.265110 0.258147 0.278131 -0.077926
C25   C     C_3   0.988988 0.458730 0.429775 -0.320372
C26   C     C_3   0.990394 0.531074 0.485927 -0.202068
H10   H     H_    0.989460 0.538215 0.540812 0.136888
H11   H     H_    0.988677 0.406098 0.438105 0.129018
H12   H     H_    0.112622 0.646464 0.522432 0.116400
C27   C     C_1   0.801723 0.521104 0.443501 -0.064815
C28   C     C_1   0.187151 0.507700 0.447623 -0.052861
C29   C     C_3   0.925846 0.456476 0.364256 0.607624
C30   C     C_3   0.926256 0.527369 0.419785 0.117712
C31   C     C_3   0.991573 0.515256 0.352629 -0.292490
C32   C     C_3   0.054841 0.518658 0.419488 0.159146
C33   C     C_3   0.991945 0.587572 0.409802 -0.199479
C34   C     C_3   0.056937 0.590937 0.476054 -0.086263
C35   C     C_1   0.857051 0.526928 0.429325 -0.033146
C36   C     C_1   0.127042 0.512647 0.429732 -0.043089
H13   H     H_    0.991914 0.640392 0.402149 0.135750
H14   H     H_    0.992992 0.507760 0.297895 0.130883
C37   C     C_3   0.555818 0.039627 0.617537 -0.298470
C38   C     C_3   0.618748 0.119192 0.624797 -0.206506
H15   H     H_    0.653805 0.178904 0.675514 0.135982
H16   H     H_    0.540078 0.032313 0.663012 0.145751
H17   H     H_    0.720388 0.091789 0.603920 0.114132
C39   C     C_1   0.507692 0.191643 0.504251 -0.050730
C40   C     C_1   0.579040 0.857960 0.570563 -0.030482
C41   C     C_3   0.498022 0.022718 0.539916 0.614963
C42   C     C_3   0.559075 0.100769 0.546991 0.107852
C43   C     C_3   0.532360 0.976846 0.498972 -0.308642
C44   C     C_3   0.591649 0.994509 0.577052 0.165281
C45   C     C_3   0.595178 0.055985 0.506846 -0.197569
C46   C     C_3   0.655129 0.072571 0.584696 -0.095253
C47   C     C_1   0.532488 0.151807 0.524536 -0.019064
C48   C     C_1   0.593569 0.924585 0.580882 -0.068889
H18   H     H_    0.610849 0.063913 0.461450 0.134868
H19   H     H_    0.496987 0.917719 0.447447 0.128264
C49   C     C_R   0.462738 0.529026 0.206420 0.117688
C50   C     C_R   0.385929 0.466083 0.149323 -0.082964
C51   C     C_R   0.348042 0.471180 0.084471 -0.325493
C52   C     C_R   0.386030 0.539212 0.074641 -0.111597
C53   C     C_R   0.459383 0.605684 0.134308 0.585264
C54   C     C_R   0.496131 0.600415 0.199844 -0.364290
C55   C     C_R   0.454159 0.523860 0.907511 -0.141208
C56   C     C_R   0.485024 0.527540 0.854907 0.103003
C57   C     C_R   0.346498 0.437452 0.754150 -0.205781
C58   C     C_R   0.317604 0.433613 0.807258 -0.193333
C59   C     C_R   0.371183 0.477789 0.883863 0.271069
C60   C     C_2   0.358132 0.535295 0.998270 0.542857
C61   C     C_2   0.343527 0.469580 0.940616 -0.423039
C62   C     C_R   0.429520 0.484199 0.777125 0.070017
H20   H     H_    0.354021 0.412544 0.154297 0.166234
H21   H     H_    0.303739 0.404076 0.694800 0.134540
H22   H     H_    0.331842 0.413868 0.944912 0.130475
H23   H     H_    0.494005 0.554654 0.967324 0.098297
H24   H     H_    0.551447 0.652461 0.243908 0.152282
H25   H     H_    0.290226 0.420425 0.040492 0.147483
H26   H     H_    0.253678 0.396461 0.788726 0.128136
C63   C     C_R   0.782988 0.839663 0.775549 0.149453
C64   C     C_R   0.757542 0.896455 0.797288 -0.207692
C65   C     C_R   0.813889 0.974961 0.853117 -0.179820
C66   C     C_R   0.895471 0.996323 0.887153 0.227858
C67   C     C_R   0.920973 0.940133 0.863992 -0.200994
C68   C     C_R   0.864727 0.861633 0.808856 -0.185480
C69   C     C_R   0.091498 0.098853 0.089844 -0.373034
C70   C     C_R   0.168961 0.142647 0.150582 0.558157
C71   C     C_R   0.134994 0.245068 0.205555 -0.234097
C72   C     C_R   0.059335 0.202680 0.143908 -0.225529
C73   C     C_R   0.037013 0.128842 0.086786 0.141069
C74   C     C_2   0.954063 0.072368 0.954787 -0.324588
C75   C     C_2   0.956451 0.081114 0.022487 0.133024
C76   C     C_R   0.188992 0.214327 0.209839 0.018317
H27   H     H_    0.694365 0.879989 0.770961 0.142291
H28   H     H_    0.151146 0.301445 0.250744 0.150021
H29   H     H_    0.983971 0.956210 0.891047 0.122283
H30   H     H_    0.073185 0.040975 0.045492 0.142099
H31   H     H_    0.884671 0.818073 0.791987 0.135865
H32   H     H_    0.008851 0.108627 0.952706 0.139498
H33   H     H_    0.793913 0.018132 0.871297 0.122436
H34   H     H_    0.017816 0.226470 0.141327 0.132029
O1    O     O_3   0.772886 0.750695 0.616006 -0.696236
C77   C     C_3   0.789146 0.830248 0.629189 0.167045
H35   H     H_    0.841802 0.874168 0.684860 0.140557
H36   H     H_    0.736062 0.838987 0.626659 0.107810
C78   C     C_3   0.812503 0.849268 0.570270 -0.294497
H37   H     H_    0.864443 0.839486 0.570849 0.209324
H38   H     H_    0.761043 0.808818 0.513428 0.196095
C79   C     C_3   0.835379 0.936338 0.585676 -1.012882
H39   H     H_    0.783652 0.946889 0.584087 0.269335
H40   H     H_    0.851488 0.948082 0.541698 0.271825
H41   H     H_    0.888220 0.979080 0.641861 0.268157
O2    O     O_3   0.496334 0.754045 0.635920 -0.679657
C80   C     C_3   0.454062 0.798203 0.634466 0.164592
H42   H     H_    0.395000 0.761964 0.632156 0.119291
H43   H     H_    0.440637 0.811186 0.584943 0.065572
C81   C     C_3   0.502018 0.877445 0.707685 -0.250876
H44   H     H_    0.521332 0.865034 0.756725 0.208889
H45   H     H_    0.557132 0.918628 0.707224 0.189946
C82   C     C_3   0.451663 0.918938 0.717773 -1.042314
H46   H     H_    0.429467 0.930419 0.668861 0.266292
H47   H     H_    0.489315 0.977579 0.769803 0.272589
H48   H     H_    0.399044 0.880632 0.723315 0.273276
O3    O     O_3   0.217182 0.257582 0.376101 -0.704421
C83   C     C_3   0.182774 0.172755 0.348270 0.175943
H49   H     H_    0.202937 0.160765 0.397135 0.131288
H50   H     H_    0.201336 0.142952 0.307348 0.111410
C84   C     C_3   0.090624 0.133725 0.313013 -0.281693
H51   H     H_    0.072320 0.160044 0.355777 0.204335
H52   H     H_    0.068601 0.146328 0.264832 0.207606
C85   C     C_3   0.051034 0.042485 0.284871 -1.026649
H53   H     H_    0.066454 0.014660 0.240210 0.275433
H54   H     H_    0.984349 0.016152 0.260666 0.273674
H55   H     H_    0.071677 0.028220 0.332296 0.272345
O4    O     O_3   0.444817 0.375428 0.221122 -0.699446
C86   C     C_3   0.495295 0.340537 0.230265 0.156142
H56   H     H_    0.459448 0.276998 0.185242 0.134817
H57   H     H_    0.510821 0.337511 0.284654 0.078343
C87   C     C_3   0.571517 0.384750 0.222056 -0.303262
H58   H     H_    0.557627 0.409333 0.181434 0.216203
H59   H     H_    0.619152 0.436142 0.277798 0.176605
C88   C     C_3   0.603500 0.328491 0.193700 -0.990827
H60   H     H_    0.608385 0.294917 0.227235 0.267214
H61   H     H_    0.664066 0.364183 0.198402 0.280147
H62   H     H_    0.561917 0.284215 0.133511 0.264254
C89   C     C_3   0.380063 0.241274 0.537345 -0.484904
C90   C     C_3   0.333646 0.148348 0.497499 -0.231109
C91   C     C_3   0.266155 0.115592 0.519556 -0.930384
H63   H     H_    0.292058 0.134144 0.581203 0.266981
H64   H     H_    0.223140 0.138368 0.505313 0.255875
H65   H     H_    0.232569 0.048585 0.488603 0.250857
H66   H     H_    0.307428 0.125633 0.435187 0.188793
H67   H     H_    0.374728 0.124314 0.514170 0.242165
H68   H     H_    0.410494 0.262325 0.599229 0.195809
H69   H     H_    0.335037 0.261826 0.523189 0.203892
O5    O     O_3   0.853247 0.387974 0.305270 -0.681119
C92   C     C_3   0.870129 0.327510 0.270262 0.166942
H70   H     H_    0.887620 0.301870 0.308985 0.101082
H71   H     H_    0.919619 0.351822 0.254506 0.094190
C93   C     C_3   0.794342 0.259860 0.198269 -0.235850
H72   H     H_    0.743722 0.235446 0.212396 0.206920
H73   H     H_    0.776795 0.284547 0.158730 0.201026
C94   C     C_3   0.808605 0.191424 0.159371 -1.053662
H74   H     H_    0.858163 0.214147 0.143552 0.266128
H75   H     H_    0.752691 0.143416 0.107240 0.275189
H76   H     H_    0.824641 0.164750 0.197413 0.273989
O6    O     O_3   0.415689 0.000769 0.517159 -0.680135
C95   C     C_3   0.370914 0.919157 0.500348 0.169620
H77   H     H_    0.402707 0.903846 0.542727 0.086435
H78   H     H_    0.360317 0.879364 0.443451 0.105864
C96   C     C_3   0.289410 0.903156 0.500000 -0.236187
H79   H     H_    0.299512 0.945045 0.555715 0.204352
H80   H     H_    0.255132 0.914615 0.455622 0.199782
C97   C     C_3   0.239636 0.816252 0.484830 -1.050773
H81   H     H_    0.228225 0.773196 0.429104 0.271071
H82   H     H_    0.180615 0.806307 0.484338 0.273729
H83   H     H_    0.271993 0.804260 0.529791 0.265904
C98   C     C_3   0.575650 0.574123 0.879515 -0.421308
C99   C     C_3   0.631376 0.604756 0.963026 -0.277219
C100  C     C_3   0.720196 0.644488 0.979522 -0.901609
H84   H     H_    0.733109 0.600190 0.945446 0.260727
H85   H     H_    0.735551 0.696471 0.966226 0.261001
H86   H     H_    0.758818 0.666896 0.040363 0.251223
H87   H     H_    0.621735 0.650525 0.999361 0.193931
H88   H     H_    0.618047 0.553623 0.977594 0.199731
H89   H     H_    0.591857 0.533941 0.844620 0.199733
H90   H     H_    0.588542 0.627074 0.867850 0.187299
O7    O     O_3   0.494277 0.676935 0.129611 -0.655313
C101  C     C_3   0.564914 0.687833 0.120377 0.206568
H91   H     H_    0.556493 0.694100 0.067643 0.137278
H92   H     H_    0.577493 0.636371 0.114303 0.055675
C102  C     C_3   0.637999 0.765894 0.186415 -0.289011
H93   H     H_    0.626897 0.817514 0.189997 0.211654
H94   H     H_    0.646918 0.761867 0.240185 0.193561
C103  C     C_3   0.714817 0.781631 0.176697 -1.022558
H95   H     H_    0.727590 0.731106 0.173794 0.271400
H96   H     H_    0.766733 0.838278 0.225675 0.274637
H97   H     H_    0.708334 0.788274 0.124286 0.270800
O8    O     O_3   0.373920 0.605377 0.990228 -0.637571
C104  C     C_3   0.325625 0.636612 0.011304 0.272377
H98   H     H_    0.355539 0.701908 0.026288 0.133807
H99   H     H_    0.320796 0.632818 0.062481 0.083625
C105  C     C_3   0.241458 0.594644 0.944935 -0.361238
H100  H     H_    0.247628 0.600428 0.895022 0.220031
H101  H     H_    0.210000 0.529362 0.929808 0.195487
C106  C     C_3   0.190371 0.631609 0.964674 -1.000682
H102  H     H_    0.182406 0.625303 0.013766 0.266894
H103  H     H_    0.129888 0.599890 0.915635 0.273807
H104  H     H_    0.219696 0.696597 0.978472 0.267286
C107  C     C_3   0.654922 0.354540 0.405388 -0.495345
C108  C     C_3   0.720227 0.344337 0.384719 -0.204442
C109  C     C_3   0.699371 0.255810 0.351381 -0.943891
H105  H     H_    0.692911 0.231543 0.392248 0.261667
H106  H     H_    0.642115 0.219171 0.298133 0.256547
H107  H     H_    0.748583 0.250581 0.338887 0.261000
H108  H     H_    0.725998 0.366387 0.342433 0.242566
H109  H     H_    0.779092 0.378649 0.436258 0.205887
H110  H     H_    0.655389 0.334021 0.449492 0.205583
H111  H     H_    0.596646 0.315692 0.354011 0.186097
O9    O     O_3   0.221726 0.111754 0.156923 -0.676732
C110  C     C_3   0.244242 0.103463 0.097257 0.174807
H112  H     H_    0.310893 0.141805 0.122758 0.114456
H113  H     H_    0.217371 0.123770 0.056845 0.081382
C111  C     C_3   0.222080 0.015475 0.053976 -0.263403
H114  H     H_    0.252256 0.996671 0.093637 0.208935
H115  H     H_    0.155678 0.976128 0.029088 0.190809
C112  C     C_3   0.248022 0.004043 0.990807 -1.027417
H116  H     H_    0.217106 0.020762 0.949506 0.267430
H117  H     H_    0.231447 0.939746 0.960809 0.273392
H118  H     H_    0.314502 0.041956 0.014492 0.268337
C113  C     C_3   0.883326 0.029644 0.029906 -0.386979
C114  C     C_3   0.899768 0.043182 0.111134 -0.270586
C115  C     C_3   0.824336 0.988602 0.113576 -0.920153
H119  H     H_    0.774547 0.001264 0.091392 0.267506
H120  H     H_    0.804506 0.924076 0.079389 0.263568
H121  H     H_    0.838001 0.000040 0.172893 0.252052
H122  H     H_    0.948602 0.029739 0.134454 0.218220
H123  H     H_    0.918997 0.106974 0.147329 0.204714
H124  H     H_    0.834410 0.043422 0.007695 0.187394
H125  H     H_    0.861633 0.964746 0.994821 0.201787
C116  C     C_3   0.630734 0.658202 0.372406 -0.423196
C117  C     C_3   0.681031 0.638800 0.333015 -0.260044
C118  C     C_3   0.760379 0.714186 0.360100 -0.923457
H126  H     H_    0.748665 0.761790 0.350681 0.264711
H127  H     H_    0.799003 0.737596 0.421125 0.257822
H128  H     H_    0.793391 0.698893 0.328147 0.254381
H129  H     H_    0.694949 0.593486 0.345626 0.198156
H130  H     H_    0.647098 0.612601 0.270778 0.200156
H131  H     H_    0.618536 0.706157 0.364823 0.176662
H132  H     H_    0.667988 0.681297 0.433535 0.195616

loop_
_geom_bond_atom_site_label_1
_geom_bond_atom_site_label_2
_geom_bond_distance
_ccdc_geom_bond_type
C80   C81   1.530083 S    
C26   H10   1.110703 S    
C31   C33   1.561141 S    
C55   H23   1.079316 S    
C99   H87   1.108719 S    
C50   H20   1.080242 S    
C95   C96   1.527455 S    
C16   C24   1.382418 A    
C106  H103  1.110363 S    
C19   N15   1.353953 A    
N10   N16   1.387449 A    
C2    C10   1.378312 A    
C65   C66   1.398924 A    
N9    N15   1.387437 A    
C15   C23   1.381948 A    
C88   H60   1.108130 S    
H17   C46   1.109905 S    
C103  H95   1.111065 S    
C39   C47   1.186825 T    
C115  H121  1.110489 S    
C58   C59   1.391136 A    
C101  H91   1.109878 S    
C78   H37   1.111640 S    
N1    Ni1   1.850378 S    
N14   Ni1   1.858461 S    
C97   H82   1.110459 S    
C13   N9    1.337925 A    
C86   H56   1.111301 S    
C69   H30   1.083017 S    
C70   C76   1.399210 A    
C30   C35   1.438771 S    
C32   C36   1.438336 S    
C53   C54   1.398845 A    
C17   N13   1.334858 A    
N12   N13   1.376252 A    
C107  C108  1.535612 S    
C51   H25   1.083176 S    
C114  H123  1.110648 S    
C104  C105  1.533188 S    
C24   C76   1.454297 S    
C13   C21   1.396041 A    
C111  H114  1.111746 S    
C43   C44   1.544263 S    
C14   C22   1.378866 A    
C41   C43   1.527109 S    
C4    C107  1.514893 S    
C18   C23   1.367179 A    
C70   O9    1.385512 S    
C55   C59   1.401587 A    
C110  H113  1.118042 S    
C117  C118  1.525168 S    
C81   C82   1.526615 S    
C112  H118  1.110953 S    
C80   H43   1.115452 S    
C61   H22   1.085754 S    
C100  H86   1.110566 S    
C107  H110  1.107873 S    
C109  H105  1.110950 S    
C113  H125  1.112034 S    
C29   C31   1.543599 S    
C118  H128  1.110367 S    
C64   C65   1.391755 A    
C98   H90   1.109702 S    
C17   C24   1.376746 A    
C27   C35   1.191051 T    
C72   C73   1.392727 A    
C58   H26   1.083250 S    
C65   H33   1.083009 S    
C87   C88   1.526633 S    
O5    C92   1.411051 S    
C8    H5    1.081752 S    
C118  H126  1.110608 S    
C91   H64   1.109861 S    
C112  H117  1.110380 S    
N12   Ni4   1.848327 S    
C56   C62   1.417224 A    
C106  H102  1.110905 S    
C23   C40   1.408430 S    
C90   C91   1.527267 S    
C6    H3    1.080257 S    
N13   Ni2   1.850376 S    
C10   C39   1.407577 S    
C83   H50   1.114502 S    
C60   O8    1.389069 S    
C21   C49   1.489082 S    
C38   H15   1.109959 S    
N8    Ni3   1.848329 S    
N2    N7    1.376411 A    
C9    C63   1.454115 S    
C110  C111  1.529065 S    
C87   H59   1.111592 S    
N7    Ni4   1.846508 S    
C40   C48   1.186096 T    
C1    C9    1.399818 A    
C84   H52   1.108835 S    
C13   C116  1.505208 S    
C57   C62   1.406851 A    
C112  H116  1.110994 S    
C108  H109  1.111405 S    
C4    C12   1.395417 A    
N11   Ni3   1.846505 S    
C6    C12   1.355631 A    
C53   O7    1.384931 S    
C43   H19   1.110917 S    
N5    Ni2   1.850125 S    
C29   O5    1.411337 S    
O8    C104  1.414133 S    
C44   C46   1.534725 S    
C104  H98   1.110925 S    
H12   C34   1.110409 S    
C17   O3    1.386883 S    
C16   H7    1.070030 S    
C81   H45   1.110561 S    
C73   C75   1.464029 S    
C118  H127  1.110092 S    
C56   C98   1.527682 S    
C90   H66   1.111353 S    
C97   H83   1.111601 S    
C117  H129  1.112362 S    
C98   C99   1.537341 S    
C94   H76   1.110991 S    
N10   Ni2   1.858105 S    
C8    C9    1.379543 A    
N4    Ni4   1.848130 S    
C88   H62   1.110698 S    
C83   C84   1.529125 S    
C43   C45   1.542001 S    
C5    H2    1.072826 S    
C82   H48   1.110774 S    
C99   C100  1.526248 S    
C52   C53   1.408851 A    
C66   C74   1.456607 S    
C49   C54   1.403776 A    
C41   C42   1.519857 S    
C4    N4    1.367186 A    
C115  H120  1.110969 S    
N15   Ni4   1.846007 S    
C5    C11   1.385322 A    
C110  H112  1.111280 S    
C45   H18   1.110184 S    
C79   H41   1.110856 S    
C105  C106  1.525669 S    
C84   H51   1.111757 S    
C107  H111  1.102808 S    
C109  H106  1.110527 S    
C94   H75   1.110302 S    
C116  H132  1.107591 S    
C93   C94   1.527395 S    
C90   H67   1.107937 S    
C71   C76   1.405461 A    
C85   H55   1.111119 S    
C64   H27   1.083675 S    
C42   C47   1.433299 S    
C72   H34   1.083362 S    
O4    C86   1.409723 S    
C54   H24   1.069364 S    
C42   C45   1.534937 S    
C102  H93   1.111596 S    
C88   H61   1.110541 S    
C37   C41   1.531513 S    
C101  H92   1.118596 S    
C15   N11   1.341304 A    
C31   H14   1.109896 S    
C117  H130  1.109151 S    
C91   H65   1.110468 S    
C57   C58   1.390308 A    
N1    N8    1.376250 A    
C98   H89   1.112291 S    
C100  H84   1.110803 S    
O9    C110  1.417259 S    
C55   C56   1.404902 A    
C41   O6    1.411891 S    
C49   C50   1.407432 A    
C95   H78   1.112685 S    
C20   N16   1.334987 A    
C83   H49   1.106300 S    
C67   C68   1.387674 A    
C78   C79   1.526464 S    
C5    N5    1.345238 A    
C63   C68   1.397541 A    
C91   H63   1.110896 S    
C77   H36   1.115622 S    
N9    Ni1   1.850125 S    
C7    N7    1.335364 A    
C87   H58   1.111964 S    
C102  H94   1.109917 S    
C33   C34   1.552029 S    
C7    C10   1.362547 A    
C59   C61   1.462683 S    
C6    N6    1.329235 A    
C20   H9    1.074896 S    
C97   H81   1.110951 S    
C108  H108  1.108939 S    
C106  H104  1.110880 S    
N3    N5    1.387437 A    
C19   O4    1.379904 S    
C113  H124  1.111491 S    
C92   H71   1.115219 S    
C2    N2    1.348086 A    
C50   C51   1.391275 A    
C103  H97   1.110979 S    
C19   C21   1.395579 A    
C26   C34   1.541810 S    
C74   C75   1.346636 D    
C37   C44   1.537911 S    
C101  C102  1.529682 S    
C3    N3    1.335403 A    
C81   H44   1.111906 S    
N16   Ni3   1.848128 S    
C2    C89   1.508689 S    
C93   H72   1.111282 S    
C78   H38   1.104455 S    
C113  C114  1.537375 S    
C25   C26   1.540362 S    
C14   H6    1.070124 S    
C99   H88   1.111818 S    
C30   C33   1.536315 S    
C8    N8    1.335731 A    
C105  H101  1.111401 S    
C18   H8    1.075037 S    
C89   H68   1.110371 S    
C71   H28   1.083823 S    
C85   H54   1.110300 S    
O6    C95   1.411670 S    
C1    O1    1.392447 S    
O1    C77   1.417099 S    
C103  H96   1.110355 S    
C37   H16   1.108829 S    
C38   C42   1.537407 S    
C74   H32   1.088727 S    
C115  H119  1.110912 S    
C79   H40   1.110398 S    
C25   C29   1.533725 S    
C95   H77   1.114080 S    
C84   C85   1.525677 S    
C102  C103  1.526515 S    
C69   C73   1.404337 A    
C86   C87   1.539745 S    
C60   C61   1.345312 D    
C96   C97   1.527063 S    
C11   C62   1.467549 S    
C109  H107  1.110143 S    
C52   C60   1.486227 S    
C94   H74   1.111078 S    
C116  H131  1.108486 S    
C111  C112  1.525947 S    
C82   H47   1.110261 S    
C80   H42   1.110585 S    
O7    C101  1.416365 S    
C114  H122  1.111213 S    
C104  H99   1.115473 S    
C89   C90   1.538604 S    
C71   C72   1.387527 A    
N3    Ni3   1.846009 S    
C18   N14   1.336768 A    
C68   H31   1.083451 S    
C92   C93   1.528064 S    
C20   C22   1.370231 A    
C51   C52   1.402294 A    
C3    H1    1.081136 S    
C3    C11   1.378837 A    
C25   C32   1.539370 S    
C96   H79   1.111913 S    
C77   C78   1.527509 S    
C33   H13   1.109939 S    
C1    N1    1.344040 A    
C14   N10   1.345648 A    
C108  C109  1.526933 S    
C16   N12   1.349538 A    
C77   H35   1.106703 S    
C66   C67   1.400030 A    
N11   N14   1.376411 A    
C15   O2    1.385112 S    
N4    N6    1.387453 A    
C29   C30   1.524785 S    
C85   H53   1.111294 S    
C44   C48   1.431218 S    
C38   C46   1.560727 S    
C79   H39   1.111405 S    
C75   C113  1.527235 S    
C31   C32   1.541041 S    
C105  H100  1.111654 S    
C37   C38   1.554475 S    
C67   H29   1.083882 S    
C26   C30   1.537701 S    
C28   C36   1.190144 T    
C86   H57   1.106619 S    
C45   C46   1.553536 S    
C111  H115  1.110956 S    
C57   H21   1.083185 S    
C63   C64   1.403409 A    
C114  C115  1.526181 S    
C100  H85   1.111048 S    
O2    C80   1.416119 S    
C22   C28   1.412107 S    
C12   C27   1.416284 S    
N6    Ni1   1.858103 S    
C93   H73   1.111645 S    
C92   H70   1.113070 S    
C82   H46   1.108457 S    
N2    Ni2   1.858463 S    
C96   H80   1.111959 S    
C116  C117  1.539142 S    
C69   C70   1.399990 A    
C7    H4    1.070242 S    
C32   C34   1.536215 S    
C89   H69   1.110158 S    
O3    C83   1.416790 S    
C25   H11   1.110348 S    
