data_mof_unit_56909.cif
_audit_creation_date              2012-12-10T17:33:13-0500
_audit_creation_method            fapswitch 2.2
_symmetry_space_group_name_H-M    P1
_symmetry_Int_Tables_number       1
_space_group_crystal_system       triclinic
_cell_length_a                    12.024891
_cell_length_b                    12.663424
_cell_length_c                    13.618513
_cell_angle_alpha                 91.085128
_cell_angle_beta                  79.398135
_cell_angle_gamma                 94.909486
_cell_volume                      2030.88668221

loop_
_atom_site_label
_atom_site_type_symbol
_atom_type_description
_atom_site_fract_x
_atom_site_fract_y
_atom_site_fract_z
_atom_type_partial_charge
C1    C     C_R   0.523112 0.700949 0.504273 0.882336
C2    C     C_R   0.152072 0.498496 0.438962 -0.042243
C3    C     C_R   0.967909 0.507124 0.548459 -0.096396
C4    C     C_R   0.032077 0.492184 0.452172 -0.098781
C5    C     C_R   0.480248 0.501943 0.686665 0.892431
C6    C     C_R   0.519674 0.497682 0.313230 0.915900
C7    C     C_1   0.534289 0.494812 0.208863 -0.209675
C8    C     C_1   0.466728 0.511505 0.790427 -0.234656
C9    C     C_2   0.547697 0.495114 0.016095 0.078789
C10   C     C_2   0.458131 0.529055 0.982123 0.087759
C11   C     C_1   0.458837 0.520608 0.878076 -0.029567
C12   C     C_R   0.476175 0.299270 0.502119 0.887151
C13   C     C_1   0.544030 0.493562 0.120622 -0.058669
C14   C     C_R   0.457139 0.188132 0.520266 -0.089311
C15   C     C_R   0.541486 0.813804 0.517347 -0.108213
C16   C     C_R   0.639024 0.974492 0.445006 0.089027
C17   C     C_R   0.416843 0.054541 0.650121 0.106275
C18   C     C_R   0.633320 0.865874 0.454284 -0.272889
C19   C     C_R   0.408342 0.156655 0.616880 -0.283663
C20   C     C_R   0.471135 0.870151 0.591991 0.027225
C21   C     C_R   0.517429 0.120516 0.453402 0.031593
C22   C     C_3   0.354463 0.567254 0.051475 -0.392854
C23   C     C_R   0.475993 0.982412 0.581020 0.061222
C24   C     C_3   0.274470 0.622673 0.996828 -0.370687
C25   C     C_3   0.175438 0.663179 0.070181 -0.845002
C26   C     C_3   0.650921 0.454408 0.949160 -0.392769
C27   C     C_3   0.629088 0.337062 0.922662 -0.336269
C28   C     C_3   0.731996 0.297182 0.853739 -0.890408
C29   C     C_3   0.544793 0.146142 0.341914 -0.447293
C30   C     C_3   0.437864 0.165479 0.300055 -0.336613
C31   C     C_3   0.466650 0.186198 0.187802 -0.909440
C32   C     C_3   0.392077 0.808318 0.676149 -0.404429
C33   C     C_3   0.266480 0.807874 0.667067 -0.317786
C34   C     C_R   0.543686 0.025891 0.491223 0.060672
C35   C     C_3   0.188707 0.765099 0.762094 -0.898367
C36   C     C_3   0.752374 0.034379 0.402578 -0.426414
C37   C     C_3   0.796646 0.101743 0.484580 -0.307728
C38   C     C_3   0.906777 0.167577 0.443078 -0.904924
C39   C     C_3   0.383490 0.038870 0.762526 -0.417224
C40   C     C_3   0.488840 0.032163 0.810345 -0.342838
C41   C     C_3   0.455857 0.010609 0.922238 -0.902439
C42   C     C_3   0.033537 0.362899 0.240308 -0.401050
C43   C     C_3   0.993160 0.487202 0.796929 -0.368079
C44   C     C_R   0.974895 0.470650 0.371706 0.464478
C45   C     C_R   0.024981 0.528297 0.629178 0.466600
C46   C     C_R   0.855371 0.465796 0.388994 -0.109885
C47   C     C_R   0.145119 0.534952 0.610837 -0.130596
C48   C     C_R   0.847762 0.500846 0.561350 -0.041090
H1    H     H_    0.370479 0.215500 0.668583 0.145425
H2    H     H_    0.322300 0.690889 0.953295 0.227040
H3    H     H_    0.239612 0.566182 0.944406 0.221714
H4    H     H_    0.306485 0.497989 0.093207 0.210201
H5    H     H_    0.383595 0.624331 0.106398 0.209756
H6    H     H_    0.751502 0.343087 0.783028 0.275692
H7    H     H_    0.807044 0.304761 0.891014 0.253885
H8    H     H_    0.714007 0.212349 0.835629 0.244381
H9    H     H_    0.610484 0.288928 0.992001 0.225087
H10   H     H_    0.554633 0.325554 0.884731 0.227056
H11   H     H_    0.675058 0.502647 0.879950 0.218371
H12   H     H_    0.698331 0.821632 0.410096 0.164416
H13   H     H_    0.724825 0.463941 0.988109 0.196713
H14   H     H_    0.529011 0.256374 0.171933 0.264283
H15   H     H_    0.388537 0.201965 0.159882 0.249961
H16   H     H_    0.502733 0.116240 0.147509 0.263263
H17   H     H_    0.375561 0.094898 0.314362 0.227303
H18   H     H_    0.397283 0.235045 0.336674 0.224517
H19   H     H_    0.607218 0.216682 0.328509 0.208876
H20   H     H_    0.581560 0.078371 0.298535 0.210820
H21   H     H_    0.214650 0.687984 0.783355 0.255752
H22   H     H_    0.192256 0.821409 0.825088 0.251375
H23   H     H_    0.202301 0.483849 0.366345 0.185654
H24   H     H_    0.099782 0.753984 0.749588 0.281208
H25   H     H_    0.244274 0.888680 0.652440 0.218179
H26   H     H_    0.250506 0.757201 0.602858 0.245752
H27   H     H_    0.412208 0.724745 0.677853 0.195466
H28   H     H_    0.408319 0.835905 0.749766 0.201753
H29   H     H_    0.973149 0.115547 0.408413 0.260479
H30   H     H_    0.891287 0.223685 0.386534 0.255657
H31   H     H_    0.937446 0.213917 0.504319 0.253593
H32   H     H_    0.732916 0.156828 0.518454 0.235951
H33   H     H_    0.811673 0.049038 0.544368 0.220884
H34   H     H_    0.797256 0.514625 0.634032 0.187831
H35   H     H_    0.816340 0.977717 0.373094 0.199131
H36   H     H_    0.747398 0.085408 0.338946 0.193324
H37   H     H_    0.533722 0.007302 0.954664 0.251791
H38   H     H_    0.406662 0.074910 0.960212 0.262422
H39   H     H_    0.404063 0.933552 0.935750 0.262051
H40   H     H_    0.541201 0.968927 0.774674 0.221395
H41   H     H_    0.542145 0.108605 0.798838 0.224738
H42   H     H_    0.339339 0.107413 0.798108 0.189664
H43   H     H_    0.318966 0.972346 0.782853 0.212375
H44   H     H_    0.946138 0.331214 0.233398 0.164506
H45   H     H_    0.190346 0.551096 0.671396 0.159289
H46   H     H_    0.070424 0.311217 0.289037 0.174927
H47   H     H_    0.086876 0.361382 0.164681 0.199673
H48   H     H_    0.071696 0.522905 0.820499 0.166914
H49   H     H_    0.002574 0.403424 0.772512 0.160204
H50   H     H_    0.924612 0.486108 0.863712 0.202788
H51   H     H_    0.812013 0.454044 0.326384 0.157796
H52   H     H_    0.124472 0.596143 0.112848 0.302301
H53   H     H_    0.207128 0.721106 0.123006 0.261169
H54   H     H_    0.119881 0.703066 0.028420 0.244751
N1    N     N_R   0.206090 0.519450 0.517820 -0.126993
N2    N     N_R   0.793910 0.480550 0.482180 -0.127496
O1    O     O_R   0.421240 0.658850 0.504760 -0.608102
O2    O     O_3   0.962472 0.549424 0.722818 -0.620040
O3    O     O_R   0.578760 0.341150 0.495240 -0.609556
O4    O     O_R   0.609960 0.646370 0.493320 -0.609194
O5    O     O_R   0.390040 0.353630 0.506680 -0.618821
O6    O     O_R   0.392060 0.507120 0.646890 -0.632240
O7    O     O_R   0.607940 0.492880 0.353110 -0.621778
O8    O     O_R   0.580780 0.494630 0.635450 -0.612059
O9    O     O_R   0.419220 0.505370 0.364550 -0.615908
O10   O     O_3   0.035509 0.468353 0.275053 -0.623631
Zn1   Zn    Zn3+2 0.373990 0.508340 0.507630 0.925841
Zn2   Zn    Zn3+2 0.626010 0.491660 0.492370 0.937271

loop_
_geom_bond_atom_site_label_1
_geom_bond_atom_site_label_2
_ccdc_geom_bond_type
C15   C18   A    
C46   H51   S    
C6    O7    A    
N1    Zn1   S    
C43   H50   S    
C32   H27   S    
C28   H8    S    
C10   C22   S    
C41   H38   S    
C26   C27   S    
C29   C30   S    
C14   C21   A    
C36   C37   S    
C26   H13   S    
C30   C31   S    
C25   H54   S    
C5    O6    A    
C36   H35   S    
C48   N2    A    
C3    C48   A    
C17   C39   S    
C9    C13   S    
C16   C34   A    
C29   H19   S    
C42   O10   S    
C35   H22   S    
O7    Zn2   S    
C1    C15   S    
C40   H41   S    
C9    C10   D    
C39   H42   S    
C24   H3    S    
C44   O10   S    
N2    Zn2   S    
C31   H14   S    
C37   H33   S    
C14   C19   A    
C39   H43   S    
C12   O5    A    
C28   H7    S    
C44   C46   A    
C9    C26   S    
C22   H5    S    
C45   C47   A    
C24   H2    S    
C15   C20   A    
C41   H39   S    
C37   H32   S    
C47   N1    A    
C42   H47   S    
C31   H15   S    
C24   C25   S    
C27   H9    S    
C39   C40   S    
C28   H6    S    
C17   C19   A    
C21   C34   A    
C4    C44   A    
C21   C29   S    
C3    C45   A    
C43   O2    S    
C2    C4    A    
C6    O9    A    
C37   C38   S    
C5    C8    S    
C29   H20   S    
C19   H1    S    
C25   H52   S    
C20   C23   A    
C23   C34   A    
C43   H48   S    
C47   H45   S    
C17   C23   A    
C30   H18   S    
C18   H12   S    
C40   C41   S    
C38   H29   S    
C12   C14   S    
C35   H24   S    
C22   C24   S    
C3    C4    A    
O8    Zn2   S    
C45   O2    S    
C22   H4    S    
C20   C32   S    
C33   H25   S    
C42   H46   S    
C31   H16   S    
O1    Zn1   S    
C43   H49   S    
C27   H10   S    
C32   H28   S    
C12   O3    A    
C6    C7    S    
C5    O8    A    
C41   H37   S    
C38   H30   S    
C32   C33   S    
O4    Zn2   S    
C16   C36   S    
C25   H53   S    
C46   N2    A    
C2    N1    A    
C36   H36   S    
C8    C11   T    
C33   C35   S    
C48   H34   S    
C42   H44   S    
O3    Zn2   S    
C30   H17   S    
C10   C11   S    
O5    Zn1   S    
C1    O4    A    
C33   H26   S    
C7    C13   T    
C35   H21   S    
C16   C18   A    
C38   H31   S    
C27   C28   S    
C26   H11   S    
O6    Zn1   S    
C40   H40   S    
C2    H23   S    
C1    O1    A    
O9    Zn1   S    
