data_mof_unit_33524.cif
_audit_creation_date              2012-12-11T15:20:04-0500
_audit_creation_method            fapswitch 2.2
_symmetry_space_group_name_H-M    P1
_symmetry_Int_Tables_number       1
_space_group_crystal_system       triclinic
_cell_length_a                    16.756194
_cell_length_b                    16.756341
_cell_length_c                    42.959254
_cell_angle_alpha                 89.999882
_cell_angle_beta                  90.001266
_cell_angle_gamma                 120.000171
_cell_volume                      10445.7874384

loop_
_atom_site_label
_atom_site_type_symbol
_atom_type_description
_atom_site_fract_x
_atom_site_fract_y
_atom_site_fract_z
_atom_type_partial_charge
C1    C     C_R   0.583595 0.426071 0.794564 0.590519
C2    C     C_R   0.842272 0.416197 0.705384 0.589708
C3    C     C_R   0.573928 0.157524 0.794565 0.590571
C4    C     C_R   0.583797 0.426076 0.705384 0.589626
C5    C     C_R   0.842476 0.416402 0.794565 0.590611
C6    C     C_R   0.573921 0.157723 0.705384 0.589721
C7    C     C_R   0.426074 0.583596 0.294564 0.590591
C8    C     C_R   0.416198 0.842273 0.205383 0.589668
C9    C     C_R   0.157524 0.573927 0.294564 0.590575
C10   C     C_R   0.426076 0.583801 0.205383 0.589684
C11   C     C_R   0.416405 0.842479 0.294564 0.590561
C12   C     C_R   0.157722 0.573922 0.205384 0.589701
C13   C     C_R   0.000252 0.449861 0.137351 0.441923
C14   C     C_R   0.456624 0.003570 0.362225 0.442676
C15   C     C_R   0.550143 0.550498 0.137331 0.441896
C16   C     C_R   0.996436 0.453070 0.362223 0.442679
C17   C     C_R   0.449526 0.999670 0.137336 0.441917
C18   C     C_R   0.546915 0.543303 0.362219 0.442694
C19   C     C_R   0.449857 0.000214 0.637358 0.441938
C20   C     C_R   0.003597 0.456681 0.862221 0.442696
C21   C     C_R   0.550444 0.550163 0.637346 0.441935
C22   C     C_R   0.453065 0.996408 0.862219 0.442672
C23   C     C_R   0.999704 0.449576 0.637344 0.441944
C24   C     C_R   0.543344 0.546956 0.862210 0.442705
C25   C     C_R   0.035861 0.470813 0.167624 0.386080
C26   C     C_R   0.439745 0.966766 0.332069 0.387013
C27   C     C_R   0.529204 0.565135 0.167607 0.386054
C28   C     C_R   0.033238 0.472990 0.332068 0.387031
C29   C     C_R   0.434871 0.964078 0.167610 0.386067
C30   C     C_R   0.526998 0.560203 0.332065 0.387021
C31   C     C_R   0.470812 0.035838 0.667629 0.386068
C32   C     C_R   0.966792 0.439800 0.832065 0.387021
C33   C     C_R   0.565122 0.529222 0.667617 0.386053
C34   C     C_R   0.472980 0.033228 0.832066 0.387010
C35   C     C_R   0.964107 0.434922 0.667618 0.386087
C36   C     C_R   0.560265 0.527036 0.832061 0.387013
C37   C     C_R   0.147609 0.626809 0.151060 -0.099066
C38   C     C_R   0.477685 0.850816 0.348988 -0.099810
C39   C     C_R   0.373151 0.520741 0.151066 -0.099079
C40   C     C_R   0.149202 0.626879 0.348986 -0.099816
C41   C     C_R   0.479286 0.852436 0.151068 -0.099085
C42   C     C_R   0.373141 0.522359 0.348990 -0.099813
C43   C     C_R   0.626789 0.147615 0.651058 -0.099032
C44   C     C_R   0.850743 0.477590 0.848995 -0.099808
C45   C     C_R   0.520625 0.373145 0.651076 -0.099073
C46   C     C_R   0.626884 0.149157 0.848982 -0.099755
C47   C     C_R   0.852379 0.479208 0.651061 -0.099091
C48   C     C_R   0.522196 0.373104 0.848975 -0.099807
C49   C     C_R   0.113260 0.603723 0.120678 0.367297
C50   C     C_R   0.488790 0.884841 0.379387 0.367459
C51   C     C_R   0.396224 0.509507 0.120679 0.367302
C52   C     C_R   0.115167 0.603968 0.379385 0.367487
C53   C     C_R   0.490545 0.886766 0.120684 0.367289
C54   C     C_R   0.396057 0.511236 0.379388 0.367472
C55   C     C_R   0.603697 0.113260 0.620676 0.367285
C56   C     C_R   0.884773 0.488696 0.879394 0.367437
C57   C     C_R   0.509371 0.396226 0.620691 0.367267
C58   C     C_R   0.603985 0.115098 0.879379 0.367506
C59   C     C_R   0.886709 0.490458 0.620678 0.367246
C60   C     C_R   0.511068 0.396025 0.879372 0.367456
C61   C     C_R   0.040486 0.515530 0.113573 0.176944
C62   C     C_R   0.478485 0.960976 0.386287 0.174628
C63   C     C_R   0.484438 0.525006 0.113561 0.176921
C64   C     C_R   0.039029 0.517531 0.386283 0.174665
C65   C     C_R   0.475038 0.959476 0.113566 0.176920
C66   C     C_R   0.482476 0.521480 0.386284 0.174611
C67   C     C_R   0.515513 0.040459 0.613576 0.176902
C68   C     C_R   0.960960 0.478471 0.886287 0.174595
C69   C     C_R   0.524903 0.484454 0.613575 0.176902
C70   C     C_R   0.517539 0.038973 0.886278 0.174674
C71   C     C_R   0.959469 0.475022 0.613569 0.176898
C72   C     C_R   0.521418 0.482486 0.886271 0.174606
C73   C     C_R   0.889532 0.448836 0.825104 -0.094964
C74   C     C_R   0.558658 0.110583 0.674832 -0.094586
C75   C     C_R   0.551125 0.440701 0.825096 -0.095031
C76   C     C_R   0.889398 0.448071 0.674829 -0.094611
C77   C     C_R   0.559302 0.110441 0.825099 -0.094980
C78   C     C_R   0.551894 0.441337 0.674834 -0.094651
C79   C     C_R   0.448851 0.889551 0.325102 -0.094986
C80   C     C_R   0.110586 0.558666 0.174831 -0.094604
C81   C     C_R   0.440697 0.551152 0.325102 -0.094977
C82   C     C_R   0.448078 0.889408 0.174829 -0.094629
C83   C     C_R   0.110458 0.559307 0.325101 -0.094988
C84   C     C_R   0.441329 0.551928 0.174828 -0.094618
C85   C     C_R   0.991669 0.556145 0.033188 0.040364
C86   C     C_R   0.561460 0.998270 0.467351 0.041141
C87   C     C_R   0.443772 0.435588 0.033173 0.040359
C88   C     C_R   0.001677 0.563179 0.467344 0.041139
C89   C     C_R   0.564460 0.008247 0.033180 0.040349
C90   C     C_R   0.436783 0.438495 0.467346 0.041143
C91   C     C_R   0.556167 0.991689 0.533190 0.040364
C92   C     C_R   0.998219 0.561434 0.967350 0.041151
C93   C     C_R   0.435510 0.443810 0.533184 0.040349
C94   C     C_R   0.563182 0.001646 0.967342 0.041130
C95   C     C_R   0.008230 0.564442 0.533182 0.040360
C96   C     C_R   0.438451 0.436846 0.967335 0.041129
C97   C     C_R   0.985787 0.549203 0.065972 0.504157
C98   C     C_R   0.564436 0.006765 0.434655 0.503605
C99   C     C_R   0.450744 0.436645 0.065956 0.504165
C100  C     C_R   0.993210 0.557674 0.434647 0.503599
C101  C     C_R   0.563403 0.014160 0.065963 0.504174
C102  C     C_R   0.442286 0.435523 0.434649 0.503641
C103  C     C_R   0.549225 0.985796 0.565974 0.504190
C104  C     C_R   0.006707 0.564416 0.934655 0.503629
C105  C     C_R   0.436550 0.450777 0.565967 0.504186
C106  C     C_R   0.557662 0.993148 0.934646 0.503591
C107  C     C_R   0.014133 0.563389 0.565965 0.504183
C108  C     C_R   0.435468 0.442349 0.934639 0.503628
C109  C     C_R   0.024307 0.429693 0.065673 0.478340
C110  C     C_R   0.413643 0.988570 0.433568 0.479520
C111  C     C_R   0.570227 0.594690 0.065653 0.478316
C112  C     C_R   0.011458 0.425105 0.433564 0.479563
C113  C     C_R   0.405357 0.975595 0.065659 0.478316
C114  C     C_R   0.574937 0.586281 0.433562 0.479498
C115  C     C_R   0.429631 0.024198 0.565677 0.478279
C116  C     C_R   0.988631 0.413673 0.933564 0.479497
C117  C     C_R   0.594587 0.570277 0.565671 0.478288
C118  C     C_R   0.425127 0.011447 0.933558 0.479531
C119  C     C_R   0.975647 0.405368 0.565666 0.478296
C120  C     C_R   0.586258 0.574951 0.933549 0.479500
C121  C     C_R   0.017349 0.423694 0.032629 0.032136
C122  C     C_R   0.414681 0.998217 0.466560 0.031928
C123  C     C_R   0.576195 0.593734 0.032608 0.032123
C124  C     C_R   0.001729 0.416451 0.466553 0.031948
C125  C     C_R   0.406322 0.982550 0.032615 0.032128
C126  C     C_R   0.583538 0.585249 0.466555 0.031933
C127  C     C_R   0.423674 0.017302 0.532632 0.032128
C128  C     C_R   0.998236 0.414692 0.966558 0.031927
C129  C     C_R   0.593641 0.576255 0.532626 0.032117
C130  C     C_R   0.416480 0.001744 0.966548 0.031951
C131  C     C_R   0.982555 0.406315 0.532621 0.032132
C132  C     C_R   0.585207 0.583594 0.966539 0.031927
C133  C     C_R   0.002087 0.488866 0.016439 -0.057896
C134  C     C_R   0.488862 0.000594 0.483449 -0.058503
C135  C     C_R   0.511030 0.513290 0.016421 -0.057905
C136  C     C_R   0.999336 0.488247 0.483440 -0.058505
C137  C     C_R   0.486761 0.997815 0.016429 -0.057911
C138  C     C_R   0.511722 0.511083 0.483443 -0.058499
C139  C     C_R   0.488873 0.002086 0.516441 -0.057890
C140  C     C_R   0.000582 0.488854 0.983447 -0.058505
C141  C     C_R   0.513210 0.511079 0.516435 -0.057908
C142  C     C_R   0.488261 0.999329 0.983437 -0.058513
C143  C     C_R   0.997815 0.486748 0.516432 -0.057898
C144  C     C_R   0.511038 0.511789 0.983430 -0.058517
C145  C     C_R   0.989160 0.628954 0.016922 0.013374
C146  C     C_R   0.627624 0.985713 0.484074 0.016920
C147  C     C_R   0.370959 0.360263 0.016909 0.013374
C148  C     C_R   0.014219 0.641891 0.484068 0.016920
C149  C     C_R   0.639779 0.010747 0.016916 0.013352
C150  C     C_R   0.358064 0.372337 0.484071 0.016910
C151  C     C_R   0.628992 0.989213 0.516922 0.013367
C152  C     C_R   0.985634 0.627576 0.984075 0.016919
C153  C     C_R   0.360208 0.370980 0.516919 0.013393
C154  C     C_R   0.641902 0.014207 0.984067 0.016919
C155  C     C_R   0.010715 0.639750 0.516916 0.013382
C156  C     C_R   0.372308 0.358123 0.984061 0.016930
C157  C     C_R   0.027459 0.356792 0.015217 0.015179
C158  C     C_R   0.343905 0.003624 0.483255 0.014526
C159  C     C_R   0.643058 0.670761 0.015193 0.015202
C160  C     C_R   0.996247 0.340230 0.483246 0.014511
C161  C     C_R   0.329314 0.972439 0.015199 0.015194
C162  C     C_R   0.659726 0.656021 0.483250 0.014543
C163  C     C_R   0.356788 0.027439 0.515220 0.015207
C164  C     C_R   0.003624 0.343906 0.983254 0.014565
C165  C     C_R   0.670664 0.643136 0.515214 0.015197
C166  C     C_R   0.340285 0.996320 0.983240 0.014533
C167  C     C_R   0.972388 0.329286 0.515207 0.015222
C168  C     C_R   0.655960 0.659810 0.983231 0.014522
Cr1   Cr    Cr6+3 0.530290 0.262330 0.750000 1.111622
Cr2   Cr    Cr6+3 0.732040 0.469710 0.750000 1.111836
Cr3   Cr    Cr6+3 0.737670 0.267960 0.750000 1.111753
Cr4   Cr    Cr6+3 0.262330 0.530290 0.250000 1.111738
Cr5   Cr    Cr6+3 0.469710 0.732040 0.250000 1.111713
Cr6   Cr    Cr6+3 0.267960 0.737670 0.250000 1.111783
N1    N     N_R   0.011436 0.493882 0.081492 -0.333549
N2    N     N_R   0.487284 0.990995 0.418361 -0.334893
N3    N     N_R   0.506063 0.517620 0.081475 -0.333569
N4    N     N_R   0.009012 0.496310 0.418356 -0.334900
N5    N     N_R   0.482426 0.988495 0.081481 -0.333577
N6    N     N_R   0.503693 0.512662 0.418356 -0.334891
N7    N     N_R   0.493863 0.011390 0.581496 -0.333543
N8    N     N_R   0.990995 0.487287 0.918359 -0.334887
N9    N     N_R   0.517518 0.506096 0.581490 -0.333587
N10   N     N_R   0.496312 0.008963 0.918351 -0.334901
N11   N     N_R   0.988507 0.482424 0.581486 -0.333555
N12   N     N_R   0.512621 0.503720 0.918343 -0.334929
O1    O     O_R   0.509640 0.171340 0.784000 -0.450041
O2    O     O_R   0.661700 0.490360 0.716000 -0.447639
O3    O     O_R   0.828660 0.338300 0.784000 -0.450095
O4    O     O_R   0.509640 0.171340 0.716000 -0.447778
O5    O     O_R   0.661700 0.490360 0.784000 -0.449962
O6    O     O_R   0.828660 0.338300 0.716000 -0.447703
O7    O     O_R   0.171340 0.509640 0.284000 -0.450027
O8    O     O_R   0.490360 0.661700 0.216000 -0.447698
O9    O     O_R   0.338300 0.828660 0.284000 -0.450037
O10   O     O_R   0.171340 0.509640 0.216000 -0.447746
O11   O     O_R   0.490360 0.661700 0.284000 -0.450068
O12   O     O_R   0.338300 0.828660 0.216000 -0.447660
O13   O     O_R   0.539230 0.345420 0.781810 -0.503474
O14   O     O_R   0.806190 0.460770 0.718190 -0.503743
O15   O     O_R   0.654580 0.193810 0.781810 -0.503415
O16   O     O_R   0.539230 0.345420 0.718190 -0.503825
O17   O     O_R   0.806190 0.460770 0.781810 -0.503366
O18   O     O_R   0.654580 0.193810 0.718190 -0.503717
O19   O     O_R   0.345420 0.539230 0.281810 -0.503385
O20   O     O_R   0.460770 0.806190 0.218190 -0.503780
O21   O     O_R   0.193810 0.654580 0.281810 -0.503404
O22   O     O_R   0.345420 0.539230 0.218190 -0.503772
O23   O     O_R   0.460770 0.806190 0.281810 -0.503411
O24   O     O_R   0.193810 0.654580 0.218190 -0.503731
O25   O     O_3   0.666667 0.333333 0.750000 -0.308555
O26   O     O_3   0.333333 0.666667 0.250000 -0.308565
O27   O     O_2   0.958192 0.592419 0.081045 -0.454703
O28   O     O_2   0.635291 0.027523 0.420385 -0.455182
O29   O     O_2   0.407559 0.365830 0.081028 -0.454703
O30   O     O_2   0.972451 0.607768 0.420374 -0.455151
O31   O     O_2   0.634220 0.041795 0.081036 -0.454676
O32   O     O_2   0.392154 0.364683 0.420377 -0.455182
O33   O     O_2   0.592475 0.958240 0.581047 -0.454723
O34   O     O_2   0.027407 0.635257 0.920385 -0.455206
O35   O     O_2   0.365726 0.407587 0.581035 -0.454617
O36   O     O_2   0.607733 0.972352 0.920377 -0.455127
O37   O     O_2   0.041728 0.634201 0.581038 -0.454695
O38   O     O_2   0.364609 0.392247 0.920371 -0.455063
O39   O     O_2   0.041209 0.377883 0.080551 -0.465316
O40   O     O_2   0.347817 0.978068 0.418241 -0.462978
O41   O     O_2   0.622048 0.663402 0.080529 -0.465226
O42   O     O_2   0.022063 0.369840 0.418241 -0.463089
O43   O     O_2   0.336636 0.958678 0.080533 -0.465251
O44   O     O_2   0.630294 0.652082 0.418235 -0.462978
O45   O     O_2   0.377739 0.040979 0.580557 -0.465251
O46   O     O_2   0.978231 0.347892 0.918235 -0.462925
O47   O     O_2   0.663292 0.622102 0.580550 -0.465212
O48   O     O_2   0.369869 0.022057 0.918233 -0.463100
O49   O     O_2   0.958813 0.336676 0.580543 -0.465227
O50   O     O_2   0.652093 0.630255 0.918223 -0.462974
C169  C     C_3   0.980601 0.253136 0.967868 -0.335838
H1    H     H_    0.036978 0.263045 0.951915 0.193764
H2    H     H_    0.968110 0.198247 0.984838 0.098754
H3    H     H_    0.914433 0.224863 0.955080 0.181926
C170  C     C_3   0.303705 0.069768 0.529657 -0.335871
H4    H     H_    0.351136 0.132295 0.543138 0.194844
H5    H     H_    0.273977 0.095585 0.511981 0.101315
H6    H     H_    0.247451 0.018792 0.544736 0.184895
C171  C     C_3   0.746689 0.727633 0.967838 -0.335804
H7    H     H_    0.775079 0.689803 0.955077 0.181901
H8    H     H_    0.736668 0.773976 0.951859 0.193837
H9    H     H_    0.801550 0.770165 0.984799 0.098767
C172  C     C_3   0.929970 0.233862 0.529637 -0.335881
H10   H     H_    0.980901 0.228517 0.544721 0.184891
H11   H     H_    0.867450 0.218816 0.543113 0.194872
H12   H     H_    0.904117 0.178327 0.511958 0.101325
C173  C     C_3   0.272511 0.019301 0.967850 -0.335796
H13   H     H_    0.310387 0.085534 0.955098 0.181937
H14   H     H_    0.226151 0.962972 0.951862 0.193840
H15   H     H_    0.229995 0.031644 0.984812 0.098757
C174  C     C_3   0.766075 0.696230 0.529652 -0.335858
H16   H     H_    0.781198 0.648791 0.543115 0.194854
H17   H     H_    0.821622 0.726019 0.511979 0.101290
H18   H     H_    0.771326 0.752442 0.544748 0.184936
C175  C     C_3   0.253164 0.980687 0.467864 -0.335818
H19   H     H_    0.263151 0.037057 0.451893 0.193803
H20   H     H_    0.224813 0.914485 0.455093 0.181930
H21   H     H_    0.198296 0.968311 0.484826 0.098757
C176  C     C_3   0.069747 0.303670 0.029654 -0.335853
H22   H     H_    0.132360 0.351114 0.043096 0.194821
H23   H     H_    0.018801 0.247524 0.044773 0.184991
H24   H     H_    0.095410 0.273782 0.011984 0.101285
C177  C     C_3   0.727518 0.746768 0.467861 -0.335828
H25   H     H_    0.689659 0.775098 0.455083 0.181915
H26   H     H_    0.769979 0.801645 0.484826 0.098761
H27   H     H_    0.773928 0.736801 0.451898 0.193792
C178  C     C_3   0.233893 0.930108 0.029628 -0.335854
H28   H     H_    0.228641 0.981053 0.044733 0.184939
H29   H     H_    0.178356 0.904375 0.011951 0.101314
H30   H     H_    0.218756 0.867526 0.043083 0.194858
C179  C     C_3   0.019115 0.272380 0.467853 -0.335792
H31   H     H_    0.085372 0.310194 0.455111 0.181906
H32   H     H_    0.031350 0.229777 0.484810 0.098770
H33   H     H_    0.962775 0.226097 0.451854 0.193865
C180  C     C_3   0.696107 0.766183 0.029624 -0.335872
H34   H     H_    0.648646 0.781274 0.043089 0.194900
H35   H     H_    0.752342 0.771482 0.044719 0.184913
H36   H     H_    0.725856 0.821719 0.011947 0.101300
C181  C     C_3   0.770070 0.491639 0.843104 -0.284114
H37   H     H_    0.790763 0.549866 0.826708 0.192386
H38   H     H_    0.712698 0.427551 0.833432 0.096339
H39   H     H_    0.743977 0.508298 0.864433 0.208809
C182  C     C_3   0.722002 0.227502 0.656953 -0.283698
H40   H     H_    0.758566 0.206704 0.673733 0.194771
H41   H     H_    0.765214 0.252232 0.635683 0.210110
H42   H     H_    0.716020 0.285915 0.666106 0.094700
C183  C     C_3   0.507988 0.278322 0.843078 -0.283960
H43   H     H_    0.449862 0.240928 0.826634 0.192387
H44   H     H_    0.572094 0.284938 0.833464 0.096473
H45   H     H_    0.491075 0.235479 0.864394 0.208898
C184  C     C_3   0.772529 0.494589 0.656964 -0.283623
H46   H     H_    0.793355 0.551927 0.673756 0.194819
H47   H     H_    0.747839 0.513144 0.635700 0.210145
H48   H     H_    0.714076 0.430197 0.666102 0.094691
C185  C     C_3   0.721620 0.229797 0.843088 -0.284075
H49   H     H_    0.759112 0.209094 0.826677 0.192369
H50   H     H_    0.714914 0.287190 0.833432 0.096438
H51   H     H_    0.764401 0.255856 0.864413 0.208795
C186  C     C_3   0.505110 0.277869 0.656985 -0.283543
H52   H     H_    0.447840 0.241464 0.673809 0.194757
H53   H     H_    0.486380 0.234562 0.635733 0.210186
H54   H     H_    0.569503 0.283730 0.666089 0.094864
C187  C     C_3   0.491812 0.770195 0.343091 -0.284062
H55   H     H_    0.550018 0.790921 0.326684 0.192362
H56   H     H_    0.508536 0.744140 0.364416 0.208813
H57   H     H_    0.427730 0.712792 0.333431 0.096433
C188  C     C_3   0.227484 0.722028 0.156958 -0.283658
H58   H     H_    0.206680 0.758574 0.173743 0.194809
H59   H     H_    0.285914 0.716060 0.166105 0.094677
H60   H     H_    0.252198 0.765251 0.135691 0.210137
C189  C     C_3   0.278411 0.508285 0.343097 -0.284073
H61   H     H_    0.240890 0.450060 0.326699 0.192381
H62   H     H_    0.235654 0.491619 0.364425 0.208835
H63   H     H_    0.285119 0.572368 0.333426 0.096370
C190  C     C_3   0.494721 0.772624 0.156977 -0.283571
H64   H     H_    0.552038 0.793470 0.173780 0.194823
H65   H     H_    0.430328 0.714147 0.166103 0.094742
H66   H     H_    0.513331 0.747966 0.135718 0.210162
C191  C     C_3   0.229841 0.721617 0.343091 -0.284059
H67   H     H_    0.209129 0.759114 0.326685 0.192392
H68   H     H_    0.255910 0.764390 0.364417 0.208811
H69   H     H_    0.287235 0.714925 0.333429 0.096388
C192  C     C_3   0.277905 0.505303 0.156976 -0.283590
H70   H     H_    0.241431 0.447973 0.173774 0.194788
H71   H     H_    0.283827 0.569689 0.166111 0.094779
H72   H     H_    0.234636 0.486713 0.135717 0.210161
C193  C     C_3   0.956629 0.688986 0.967294 -0.331902
H73   H     H_    0.908385 0.651102 0.947973 0.219186
H74   H     H_    0.916759 0.709679 0.982564 0.098804
H75   H     H_    0.018153 0.751673 0.958296 0.173181
C194  C     C_3   0.713194 0.000044 0.534189 -0.331844
H76   H     H_    0.735076 0.054088 0.552370 0.205157
H77   H     H_    0.697853 0.933401 0.544770 0.190187
H78   H     H_    0.774481 0.024543 0.519015 0.094276
C195  C     C_3   0.310878 0.267715 0.967279 -0.331882
H79   H     H_    0.348721 0.257369 0.947942 0.219281
H80   H     H_    0.290241 0.207152 0.982542 0.098762
H81   H     H_    0.248161 0.266536 0.958303 0.173133
C196  C     C_3   0.999882 0.713112 0.534185 -0.331839
H82   H     H_    0.945860 0.680950 0.552373 0.205195
H83   H     H_    0.066533 0.764430 0.544759 0.190155
H84   H     H_    0.975348 0.749877 0.519013 0.094289
C197  C     C_3   0.732292 0.043138 0.967281 -0.331910
H85   H     H_    0.742644 0.091319 0.947940 0.219235
H86   H     H_    0.792871 0.083060 0.982538 0.098749
H87   H     H_    0.733433 0.981578 0.958309 0.173097
C198  C     C_3   0.286871 0.286769 0.534189 -0.331821
H88   H     H_    0.319054 0.264947 0.552382 0.205265
H89   H     H_    0.235520 0.302063 0.544756 0.190153
H90   H     H_    0.250146 0.225464 0.519017 0.094295
C199  C     C_3   0.689063 0.956755 0.467289 -0.331905
H91   H     H_    0.651207 0.908541 0.447958 0.219213
H92   H     H_    0.751753 0.018302 0.458303 0.173133
H93   H     H_    0.709747 0.916865 0.482551 0.098777
C200  C     C_3   0.000004 0.713159 0.034188 -0.331825
H94   H     H_    0.054037 0.735029 0.052373 0.205194
H95   H     H_    0.024531 0.774449 0.019012 0.094311
H96   H     H_    0.933360 0.697833 0.044764 0.190179
C201  C     C_3   0.267663 0.310879 0.467289 -0.331889
H97   H     H_    0.257264 0.348747 0.447972 0.219170
H98   H     H_    0.266561 0.248228 0.458284 0.173221
H99   H     H_    0.207086 0.290123 0.482557 0.098777
C202  C     C_3   0.713182 0.999990 0.034191 -0.331856
H100  H     H_    0.681050 0.945980 0.052383 0.205224
H101  H     H_    0.749986 0.975487 0.019026 0.094268
H102  H     H_    0.764465 0.066664 0.044760 0.190164
C203  C     C_3   0.043164 0.732287 0.467285 -0.331903
H103  H     H_    0.091396 0.742665 0.447958 0.219192
H104  H     H_    0.981612 0.733412 0.458294 0.173175
H105  H     H_    0.083031 0.792860 0.482550 0.098761
C204  C     C_3   0.286787 0.286872 0.034181 -0.331831
H106  H     H_    0.264910 0.319008 0.052372 0.205213
H107  H     H_    0.225483 0.250082 0.019011 0.094307
H108  H     H_    0.302162 0.235579 0.044750 0.190156
F1    F     F_    0.841371 0.506128 0.902939 -0.613272
F2    F     F_    0.666015 0.153273 0.597279 -0.612420
F3    F     F_    0.493511 0.335141 0.902912 -0.613312
F4    F     F_    0.846705 0.512797 0.597286 -0.612421
F5    F     F_    0.664872 0.158430 0.902918 -0.613329
F6    F     F_    0.486947 0.333853 0.597306 -0.612491
F7    F     F_    0.506291 0.841475 0.402928 -0.613290
F8    F     F_    0.153258 0.666055 0.097284 -0.612385
F9    F     F_    0.335207 0.493769 0.402931 -0.613201
F10   F     F_    0.512956 0.846803 0.097299 -0.612414
F11   F     F_    0.158525 0.664839 0.402925 -0.613249
F12   F     F_    0.333856 0.487127 0.097293 -0.612389
F13   F     F_    0.998225 0.404626 0.189897 -0.502281
F14   F     F_    0.413873 0.006262 0.309612 -0.501815
F15   F     F_    0.595425 0.593746 0.189870 -0.502290
F16   F     F_    0.993738 0.407620 0.309612 -0.501810
F17   F     F_    0.406246 0.001673 0.189872 -0.502290
F18   F     F_    0.592350 0.586035 0.309605 -0.501814
F19   F     F_    0.404638 0.998193 0.689905 -0.502277
F20   F     F_    0.006332 0.414000 0.809602 -0.501805
F21   F     F_    0.593788 0.595450 0.689879 -0.502289
F22   F     F_    0.407597 0.993754 0.809612 -0.501815
F23   F     F_    0.001742 0.406359 0.689888 -0.502269
F24   F     F_    0.586207 0.592423 0.809607 -0.501816
F25   F     F_    0.927838 0.365024 0.131048 -0.496000
F26   F     F_    0.449946 0.079601 0.368088 -0.492833
F27   F     F_    0.635001 0.562994 0.131016 -0.495995
F28   F     F_    0.920408 0.370359 0.368090 -0.492894
F29   F     F_    0.437026 0.072031 0.131022 -0.496002
F30   F     F_    0.629600 0.549919 0.368078 -0.492802
F31   F     F_    0.365033 0.927770 0.631061 -0.495921
F32   F     F_    0.079676 0.450081 0.868079 -0.492783
F33   F     F_    0.562952 0.635029 0.631037 -0.495956
F34   F     F_    0.370344 0.920393 0.868084 -0.492879
F35   F     F_    0.072110 0.437142 0.631038 -0.495947
F36   F     F_    0.550048 0.629680 0.868070 -0.492813

loop_
_geom_bond_atom_site_label_1
_geom_bond_atom_site_label_2
_ccdc_geom_bond_type
C132  C144  A    
C199  H91   S    
C112  O42   D    
C192  H71   S    
C61   N1    S    
C45   C186  S    
C29   F17   S    
C194  H76   S    
C93   C141  A    
C16   F28   S    
C193  H73   S    
C180  H36   S    
C45   C57   A    
C108  N12   Am   
C11   O9    A    
C47   C76   A    
C112  C124  A    
C108  O38   D    
C9    O7    A    
C33   C78   A    
C193  H75   S    
C21   C33   A    
C60   C72   A    
Cr1   O25   S    
C178  H30   S    
C156  C195  S    
C204  H108  S    
C86   C134  A    
C60   F3    S    
C53   F10   S    
C26   F14   S    
C45   C78   A    
C87   C99   A    
C202  H102  S    
C187  H56   S    
C96   C108  A    
C171  H7    S    
C28   C83   A    
C31   F19   S    
C12   O10   A    
C40   C83   A    
C166  C173  S    
C198  H89   S    
C120  C132  A    
C39   C192  S    
C200  H96   S    
Cr6   O12   S    
Cr1   O1    S    
C9    O21   A    
C203  H105  S    
C58   C70   A    
C185  H49   S    
C7    O11   A    
C189  H63   S    
C4    C78   S    
C96   C144  A    
C162  C165  A    
C15   C27   A    
C28   F16   S    
C68   N8    S    
C154  C197  S    
C88   C148  A    
C14   C26   A    
C196  H84   S    
C11   C79   S    
C9    C83   S    
C119  O49   D    
C113  N5    Am   
C172  H11   S    
C114  N6    Am   
C177  H26   S    
Cr4   O10   S    
Cr5   O26   S    
C3    C77   S    
C194  H78   S    
C131  C143  A    
C112  N4    Am   
C185  H51   S    
C100  O30   D    
C89   C101  A    
C103  N7    Am   
C20   C68   A    
C91   C103  A    
C138  C141  A    
C3    O1    A    
C46   C77   A    
C109  N1    Am   
C110  N2    Am   
C150  C201  S    
C4    O2    A    
C93   C153  A    
C5    O3    A    
C29   C82   A    
C181  H38   S    
C201  H97   S    
C109  C121  A    
C96   C156  A    
C123  C159  A    
C41   C82   A    
C124  C160  A    
C165  C174  S    
Cr3   O6    S    
C49   F8    S    
C85   C97   A    
C92   C104  A    
C47   C59   A    
C103  O33   D    
C190  H64   S    
C171  H9    S    
C21   C69   A    
C164  C169  S    
C111  N3    Am   
C147  C204  S    
C22   F34   S    
C170  H5    S    
C59   F4    S    
C54   F9    S    
C42   C54   A    
C39   C51   A    
C137  C142  A    
C197  H85   S    
C97   N1    Am   
C179  H31   S    
C102  N6    Am   
C8    O12   A    
C90   C150  A    
C100  N4    Am   
C14   F26   S    
C35   F23   S    
C56   F1    S    
C44   C181  S    
C42   C189  S    
C172  H10   S    
C24   C36   A    
C33   F21   S    
Cr4   O19   S    
C85   C145  A    
C39   C84   A    
C155  C196  S    
C136  C143  A    
C173  H13   S    
C114  C126  A    
C118  N10   Am   
C188  H59   S    
C14   C62   A    
C152  C193  S    
C128  C164  A    
C170  H4    S    
Cr3   O18   S    
C191  H68   S    
C10   O22   A    
C122  C134  A    
Cr1   O16   S    
C186  H53   S    
C116  N8    Am   
C119  C131  A    
C24   F36   S    
Cr5   O20   S    
C148  C155  A    
C67   N7    S    
C30   F18   S    
C117  C129  A    
C186  H54   S    
C168  C171  S    
C131  C167  A    
C169  H1    S    
C46   C58   A    
C184  H47   S    
C191  H67   S    
C42   C81   A    
C71   N11   S    
C90   C138  A    
C193  H74   S    
C195  H80   S    
C22   C34   A    
C37   C80   A    
C35   C76   A    
Cr5   O11   S    
C94   C142  A    
C110  O40   D    
C201  H99   S    
C134  C139  A    
C52   F11   S    
C31   C74   A    
C56   C68   A    
Cr2   O5    S    
C123  C135  A    
C183  H43   S    
C36   C75   A    
C19   F31   S    
C117  O47   D    
C190  H66   S    
C17   F29   S    
C182  H40   S    
C176  H23   S    
C157  C164  A    
C41   C53   A    
C158  C163  A    
C69   N9    S    
C70   N10   S    
C148  C203  S    
C7    C81   S    
C197  H87   S    
Cr5   O8    S    
C24   C72   A    
C64   N4    S    
C20   C32   A    
C43   C55   A    
C172  H12   S    
C36   F24   S    
Cr5   O23   S    
C5    O17   A    
C175  H21   S    
C113  O43   D    
C54   C66   A    
C18   C66   A    
C170  H6    S    
C169  H2    S    
C128  C140  A    
C46   C185  S    
C105  O35   D    
C43   C182  S    
C153  C198  S    
C178  H29   S    
C163  C170  S    
C5    C73   S    
C130  C142  A    
C204  H107  S    
C145  C152  A    
C40   C191  S    
C102  O32   D    
C146  C151  A    
C179  H33   S    
Cr2   O2    S    
C41   C190  S    
C22   C70   A    
C202  H101  S    
C104  N8    Am   
C162  C177  S    
C95   C143  A    
C25   C80   A    
C17   C29   A    
C7    O19   A    
C19   C31   A    
C198  H88   S    
C200  H95   S    
C87   C147  A    
C8    C82   S    
C183  H45   S    
C10   O8    A    
C34   C77   A    
C195  H81   S    
C129  C141  A    
C38   C79   A    
C182  H42   S    
C192  H70   S    
C189  H62   S    
C20   F32   S    
C21   F33   S    
C94   C106  A    
C150  C153  A    
C19   C67   A    
C196  H83   S    
Cr1   O13   S    
C89   C149  A    
C13   F25   S    
Cr6   O9    S    
C199  H92   S    
C97   O27   D    
C177  H25   S    
C34   F22   S    
Cr4   O7    S    
C1    O13   A    
C86   C146  A    
C194  H77   S    
C6    C74   S    
C185  H50   S    
C49   C61   A    
C50   F7    S    
C124  C136  A    
C111  C123  A    
C87   C135  A    
C51   C63   A    
C88   C136  A    
C52   C64   A    
C65   N5    S    
C125  C137  A    
C195  H79   S    
C66   N6    S    
C23   F35   S    
C149  C154  A    
C119  N11   Am   
C6    O18   A    
C181  H37   S    
C118  C130  A    
C23   C71   A    
C173  H15   S    
C37   C49   A    
C44   C56   A    
C4    O16   A    
C62   N2    S    
C15   F27   S    
C105  N9    Am   
C8    O20   A    
C147  C156  A    
C106  N10   Am   
Cr2   O17   S    
C88   C100  A    
C95   C107  A    
C91   C139  A    
C1    O5    A    
C89   C137  A    
C171  H8    S    
C57   C69   A    
Cr6   O21   S    
C3    O15   A    
C2    O14   A    
C180  H35   S    
C58   F5    S    
C92   C140  A    
C51   F12   S    
C198  H90   S    
C2    C76   S    
C27   C84   A    
C127  C163  A    
C17   C65   A    
C125  C161  A    
C160  C179  S    
C167  C172  S    
C99   N3    Am   
C157  C176  S    
C26   C79   A    
C18   F30   S    
C129  C165  A    
C174  H18   S    
C30   C81   A    
C12   O24   A    
C110  C122  A    
C188  H58   S    
C175  H19   S    
C159  C180  S    
C44   C73   A    
C86   C98   A    
C133  C140  A    
C186  H52   S    
C177  H27   S    
C151  C194  S    
C27   F15   S    
C48   C183  S    
C85   C133  A    
C16   C28   A    
C25   F13   S    
C184  H46   S    
C55   F2    S    
Cr2   O14   S    
C115  C127  A    
C187  H55   S    
Cr6   O26   S    
C47   C184  S    
C174  H16   S    
C181  H39   S    
C201  H98   S    
C113  C125  A    
C98   N2    Am   
C159  C168  A    
Cr3   O3    S    
C2    O6    A    
C160  C167  A    
C130  C166  A    
C104  O34   D    
C93   C105  A    
C90   C102  A    
Cr2   O25   S    
C190  H65   S    
C92   C152  A    
C18   C30   A    
C176  H22   S    
C115  O45   D    
C161  C166  A    
C43   C74   A    
C197  H86   S    
C121  C157  A    
C48   C75   A    
C13   C25   A    
C38   C187  S    
C127  C139  A    
Cr1   O4    S    
C115  N7    Am   
C48   C60   A    
C107  O37   D    
C122  C158  A    
C32   F20   S    
C1    C75   S    
Cr4   O22   S    
C32   C73   A    
C175  H20   S    
C109  O39   D    
C98   O28   D    
C188  H60   S    
C184  H48   S    
C180  H34   S    
C40   C52   A    
C149  C202  S    
C37   C188  S    
C174  H17   S    
Cr3   O15   S    
C191  H69   S    
C101  N5    Am   
Cr3   O25   S    
C118  O48   D    
C173  H14   S    
C94   C154  A    
C158  C175  S    
C72   N12   S    
C6    O4    A    
C178  H28   S    
C204  H106  S    
C161  C178  S    
C135  C144  A    
C179  H32   S    
C50   C62   A    
C192  H72   S    
C169  H3    S    
C53   C65   A    
C202  H100  S    
C187  H57   S    
C126  C138  A    
Cr6   O24   S    
C132  C168  A    
Cr4   O26   S    
C146  C199  S    
C120  N12   Am   
C114  O44   D    
C55   C67   A    
C117  N9    Am   
C38   C50   A    
C145  C200  S    
C199  H93   S    
C200  H94   S    
C107  N11   Am   
C23   C35   A    
C63   N3    S    
C111  O41   D    
C183  H44   S    
C203  H103  S    
C11   O23   A    
C91   C151  A    
C106  O36   D    
C99   O29   D    
C12   C80   S    
C10   C84   S    
C182  H41   S    
C203  H104  S    
C95   C155  A    
C189  H61   S    
C176  H24   S    
C120  O50   D    
C101  O31   D    
C57   F6    S    
C13   C61   A    
C116  C128  A    
C15   C63   A    
C16   C64   A    
C121  C133  A    
C196  H82   S    
C126  C162  A    
C116  O46   D    
C59   C71   A    
