data_mof_unit_67705.cif
_audit_creation_date              2013-03-05T16:49:09-0500
_audit_creation_method            fapswitch 2.2
_symmetry_space_group_name_H-M    P1
_symmetry_Int_Tables_number       1
_space_group_crystal_system       triclinic
_cell_length_a                    11.092275
_cell_length_b                    10.790951
_cell_length_c                    9.653579
_cell_angle_alpha                 90.522937
_cell_angle_beta                  91.385054
_cell_angle_gamma                 90.408636
_cell_volume                      1155.07972432

loop_
_atom_site_label
_atom_site_type_symbol
_atom_site_description
_atom_site_fract_x
_atom_site_fract_y
_atom_site_fract_z
_atom_type_partial_charge
O1    O     O_R   0.500060 0.316850 0.620870 -0.524142
O2    O     O_R   0.499940 0.683150 0.379130 -0.521061
O3    O     O_R   0.500000 0.316860 0.379090 -0.540192
O4    O     O_R   0.500000 0.683140 0.620910 -0.563364
C1    C     C_R   0.498939 0.260396 0.498901 0.942678
C2    C     C_R   0.499298 0.739591 0.500493 0.925155
O5    O     O_R   0.319670 0.500010 0.620890 -0.524221
O6    O     O_R   0.680330 0.499990 0.379110 -0.533324
O7    O     O_R   0.319620 0.500010 0.379110 -0.580721
O8    O     O_R   0.680380 0.499990 0.620890 -0.567673
C3    C     C_R   0.263068 0.497017 0.498332 0.874277
C4    C     C_R   0.737233 0.504810 0.502416 0.864075
Cu1   Cu    Cu3+1 0.500030 0.499990 0.643150 1.121338
Cu2   Cu    Cu3+1 0.499970 0.500010 0.356850 1.123290
C5    C     C_R   0.105616 0.344102 0.057194 -0.239371
C6    C     C_R   0.859037 0.769849 0.896584 -0.185085
H1    H     H_    0.096008 0.395020 0.962060 0.268995
H2    H     H_    0.848862 0.754336 0.006298 0.256452
C7    C     C_R   0.101532 0.409576 0.182027 0.305551
C8    C     C_R   0.878968 0.669096 0.807435 0.301235
C9    C     C_R   0.106588 0.344294 0.307006 -0.068899
C10   C     C_R   0.889015 0.691412 0.664003 -0.062699
C11   C     C_R   0.127720 0.216532 0.306249 -0.192508
C12   C     C_R   0.886461 0.813814 0.616082 -0.191990
C13   C     C_R   0.134100 0.150314 0.180776 0.326417
C14   C     C_R   0.875543 0.915279 0.707217 0.246681
C15   C     C_R   0.118899 0.214582 0.053646 0.287323
C16   C     C_R   0.856252 0.891596 0.848976 0.308673
C17   C     C_R   0.931594 0.402340 0.443947 0.346603
C18   C     C_R   0.070348 0.597996 0.563191 0.351508
C19   C     C_R   0.872225 0.501529 0.508461 -0.126486
C20   C     C_R   0.128674 0.499838 0.496474 -0.150707
C21   C     C_R   0.942897 0.596888 0.573646 -0.035034
C22   C     C_R   0.058663 0.406327 0.429539 -0.035610
C23   C     C_3   0.596222 0.044736 0.568144 -0.292083
C24   C     C_3   0.398549 0.954986 0.427500 -0.267201
C25   C     C_3   0.596013 0.959103 0.438566 0.243000
C26   C     C_3   0.398756 0.041065 0.556341 0.237920
H3    H     H_    0.673388 0.082299 0.629258 0.263266
H4    H     H_    0.318471 0.918810 0.369561 0.279128
C27   C     C_3   0.498100 0.876289 0.500343 -0.259724
C28   C     C_3   0.497005 0.123620 0.495910 -0.256574
C29   C     C_3   0.495632 0.962666 0.627772 0.268999
C30   C     C_3   0.498527 0.037694 0.367980 0.286336
C31   C     C_3   0.509453 0.609663 0.049416 0.307390
C32   C     C_3   0.489659 0.391000 0.950214 0.318864
C33   C     C_3   0.412287 0.562326 0.948993 0.324491
C34   C     C_3   0.587446 0.437275 0.049798 0.320114
N1    N     N_3   0.500090 0.499970 0.858290 -0.297311
N2    N     N_3   0.499910 0.500030 0.141710 -0.287743
C35   C     C_3   0.599490 0.547815 0.951456 -0.218937
C36   C     C_3   0.400616 0.452145 0.048287 -0.217517
H5    H     H_    0.676940 0.595672 0.907884 0.200746
H6    H     H_    0.323581 0.404338 0.093137 0.184033
N3    N     N_R   0.110664 0.152291 0.920975 0.215768
O9    O     O_R   0.100200 0.032585 0.910523 -0.205636
O10   O     O_R   0.099932 0.217240 0.808624 -0.212297
N4    N     N_R   0.838090 0.988834 0.947934 0.199544
O11   O     O_R   0.746381 0.061587 0.932019 -0.167697
O12   O     O_R   0.891972 0.984444 0.068842 -0.210405
N5    N     N_R   0.309921 0.628572 0.891318 0.196331
O13   O     O_R   0.305051 0.748249 0.903745 -0.157633
O14   O     O_R   0.212870 0.566728 0.856177 -0.320961
N6    N     N_R   0.682679 0.356411 0.099558 0.193129
O15   O     O_R   0.658298 0.280160 0.197771 -0.220680
O16   O     O_R   0.767426 0.326401 0.015245 -0.188034
N7    N     N_R   0.521948 0.735324 0.102874 0.199374
O17   O     O_R   0.624408 0.793185 0.093509 -0.255314
O18   O     O_R   0.428412 0.794223 0.146999 -0.232529
N8    N     N_R   0.475371 0.265962 0.896098 0.196350
O19   O     O_R   0.369810 0.213199 0.893942 -0.255016
O20   O     O_R   0.568090 0.205533 0.852897 -0.239077
N9    N     N_R   0.090070 0.542380 0.181193 0.174167
O21   O     O_R   0.998851 0.596345 0.237978 -0.297870
O22   O     O_R   0.178585 0.610614 0.139246 -0.257053
N10   N     N_R   0.895285 0.547762 0.867195 0.137162
O23   O     O_R   0.906632 0.448199 0.791998 -0.290962
O24   O     O_R   0.889810 0.535047 0.000392 -0.309084
H7    H     H_    0.129382 0.166861 0.402840 0.253936
H8    H     H_    0.908986 0.830316 0.509394 0.265968
N11   N     N_R   0.150088 0.018519 0.185760 0.162601
O25   O     O_R   0.235297 0.966442 0.116247 -0.181576
O26   O     O_R   0.093704 0.953564 0.277241 -0.242406
N12   N     N_R   0.900383 0.038283 0.656808 0.167098
O27   O     O_R   0.876443 0.136946 0.728985 -0.224290
O28   O     O_R   0.954917 0.052311 0.540149 -0.242859
N13   N     N_R   0.862285 0.296104 0.396097 0.170380
O29   O     O_R   0.881246 0.243793 0.276931 -0.233883
O30   O     O_R   0.779733 0.249648 0.473999 -0.321844
N14   N     N_R   0.139908 0.706579 0.603247 0.148459
O31   O     O_R   0.214003 0.754732 0.516117 -0.350755
O32   O     O_R   0.122692 0.764289 0.719742 -0.228800
N15   N     N_R   0.704695 0.917212 0.371443 0.166667
O33   O     O_R   0.781064 0.998069 0.326032 -0.157961
O34   O     O_R   0.725992 0.799694 0.355746 -0.351317
N16   N     N_R   0.288661 0.085684 0.617023 0.189752
O35   O     O_R   0.206093 0.006782 0.651754 -0.168761
O36   O     O_R   0.264459 0.203299 0.615640 -0.345646
N17   N     N_R   0.496421 0.922748 0.771157 0.207672
O37   O     O_R   0.417653 0.965430 0.856420 -0.126406
O38   O     O_R   0.583752 0.854010 0.817630 -0.349884
N18   N     N_R   0.495357 0.078762 0.224840 0.221941
O39   O     O_R   0.409669 0.151250 0.181633 -0.341459
O40   O     O_R   0.574498 0.039614 0.138119 -0.122564

loop_
_geom_bond_atom_site_label_1
_geom_bond_atom_site_label_2
_geom_bond_distance
_ccdc_geom_bond_type
C6    C16   1.396087 A    
C18   C20   1.404571 A    
C1    C28   1.475952 S    
N15   O33   1.298255 A    
N9    O22   1.297878 A    
N9    O21   1.301066 A    
C18   N14   1.442977 S    
N11   O25   1.300308 A    
C33   N1    1.485874 S    
C5    C7    1.393204 A    
C32   N1    1.485145 S    
O1    C1    1.320503 A    
N10   O24   1.297205 A    
C23   C25   1.548335 S    
C29   N17   1.453248 S    
C26   C28   1.532308 S    
C15   N3    1.441608 S    
C34   N6    1.450632 S    
C31   C35   1.542977 S    
N4    O12   1.299806 A    
C32   C36   1.533081 S    
C8    N10   1.446367 S    
O4    Cu1   1.989940 S    
N5    O14   1.298965 A    
C23   C28   1.552140 S    
N18   O39   1.298700 A    
C5    C15   1.406626 A    
C12   H8    1.081681 S    
C34   C35   1.538339 S    
N1    C35   1.492178 S    
C2    C27   1.475270 S    
N16   O36   1.299248 A    
C31   N7    1.450983 S    
N2    C36   1.492913 S    
C19   C21   1.422038 A    
N8    O19   1.297973 A    
C23   C29   1.544943 S    
C6    C8    1.402545 A    
C34   N2    1.492885 S    
N15   O34   1.299773 A    
Cu1   Cu2   2.763806 S    
C13   N11   1.435561 S    
C27   C29   1.537490 S    
C24   C27   1.556202 S    
O2    C2    1.315689 A    
C28   C30   1.538030 S    
N11   O26   1.301582 A    
C36   H6    1.095181 S    
O5    C3    1.325936 A    
C31   C33   1.514921 S    
C32   C34   1.511013 S    
C32   N8    1.448675 S    
N7    O17   1.298287 A    
C7    N9    1.439696 S    
N12   O27   1.299589 A    
O4    C2    1.317193 A    
C30   N18   1.454675 S    
C9    C22   1.466596 S    
N4    O11   1.296454 A    
C17   C22   1.420065 A    
N7    O18   1.299114 A    
C20   C22   1.411197 A    
C23   H3    1.100591 S    
O7    Cu2   2.017159 S    
N14   O32   1.299330 A    
N17   O37   1.298685 A    
C24   H4    1.105102 S    
O6    C4    1.334204 A    
N16   O35   1.298107 A    
N3    O9    1.298908 A    
C25   N15   1.455238 S    
N10   O23   1.299701 A    
N18   O40   1.297805 A    
O7    C3    1.324555 A    
O3    Cu2   1.989940 S    
O8    C4    1.320580 A    
Cu1   N1    2.076857 S    
N17   O38   1.298131 A    
C8    C10   1.414488 A    
C3    C20   1.490946 S    
N3    O10   1.300215 A    
C4    C19   1.497779 S    
C10   C12   1.403742 A    
C24   C30   1.543566 S    
O1    Cu1   1.985974 S    
C5    H1    1.077964 S    
C10   C21   1.475167 S    
O6    Cu2   2.006941 S    
C18   C21   1.419718 A    
C7    C9    1.402794 A    
C12   C14   1.406040 A    
O3    C1    1.312454 A    
O8    Cu1   2.017159 S    
C33   N5    1.448647 S    
C33   C36   1.540712 S    
C16   N4    1.431168 S    
C13   C15   1.422238 A    
C14   C16   1.415481 A    
N6    O15   1.293268 A    
C25   C30   1.529988 S    
C9    C11   1.400082 A    
C26   C29   1.527647 S    
C17   C19   1.408857 A    
C14   N12   1.444856 S    
N14   O31   1.299335 A    
Cu2   N2    2.076856 S    
C31   N2    1.492189 S    
C24   C26   1.545480 S    
C11   C13   1.404217 A    
C25   C27   1.536558 S    
N5    O13   1.297530 A    
O2    Cu2   1.985974 S    
C17   N13   1.441952 S    
C35   H5    1.093971 S    
O5    Cu1   2.006941 S    
N13   O29   1.299154 A    
C6    H2    1.082244 S    
C26   N16   1.450574 S    
N13   O30   1.299593 A    
N12   O28   1.300710 A    
N8    O20   1.297007 A    
C11   H7    1.079597 S    
N6    O16   1.299049 A    
