data_mof_unit_54208.cif
_audit_creation_date              2012-12-11T15:08:43-0500
_audit_creation_method            fapswitch 2.2
_symmetry_space_group_name_H-M    P1
_symmetry_Int_Tables_number       1
_space_group_crystal_system       triclinic
_cell_length_a                    19.517656
_cell_length_b                    11.362593
_cell_length_c                    18.674175
_cell_angle_alpha                 90.014399
_cell_angle_beta                  91.406938
_cell_angle_gamma                 90.062281
_cell_volume                      4140.14271504

loop_
_atom_site_label
_atom_site_type_symbol
_atom_type_description
_atom_site_fract_x
_atom_site_fract_y
_atom_site_fract_z
_atom_type_partial_charge
C1    C     C_R   0.272899 0.043123 0.854024 0.552534
C2    C     C_3   0.691226 0.517051 0.956241 0.027584
C3    C     C_R   0.227504 0.545373 0.353546 0.533818
C4    C     C_R   0.445562 0.819760 0.637810 0.554294
C5    C     C_R   0.554430 0.819814 0.362195 0.554392
C6    C     C_R   0.945562 0.319760 0.637810 0.554292
C7    C     C_R   0.054430 0.319814 0.362195 0.554394
C8    C     C_R   0.258852 0.636012 0.645621 0.520742
C9    C     C_R   0.741132 0.635986 0.354381 0.521875
C10   C     C_R   0.758853 0.136013 0.645621 0.520741
C11   C     C_R   0.241132 0.135986 0.354381 0.521875
C12   C     C_3   0.482177 0.921817 0.035167 -0.106876
C13   C     C_3   0.809091 0.016548 0.043111 0.029980
C14   C     C_3   0.520521 0.916553 0.963305 -0.104992
C15   C     C_3   0.982177 0.421817 0.035167 -0.106876
C16   C     C_3   0.020521 0.416553 0.963305 -0.104992
C17   C     C_3   0.431224 0.826807 0.007588 -0.154849
C18   C     C_3   0.567233 0.817318 0.993294 -0.156888
C19   C     C_3   0.931224 0.326807 0.007588 -0.154849
C20   C     C_3   0.067233 0.317318 0.993293 -0.156888
C21   C     C_3   0.469514 0.822756 0.936660 0.054045
C22   C     C_3   0.529007 0.823918 0.064058 0.052620
C23   C     C_3   0.969514 0.322756 0.936660 0.054045
C24   C     C_3   0.191226 0.017051 0.956241 0.027584
C25   C     C_3   0.029007 0.323918 0.064058 0.052620
C26   C     C_3   0.590363 0.916270 0.694318 -0.274721
C27   C     C_3   0.409676 0.916318 0.305774 -0.276265
C28   C     C_3   0.090361 0.416268 0.694318 -0.274719
C29   C     C_3   0.909675 0.416319 0.305775 -0.276267
C30   C     C_3   0.069975 0.738913 0.567070 -0.345216
C31   C     C_3   0.930183 0.738861 0.432914 -0.345599
C32   C     C_3   0.569975 0.238913 0.567070 -0.345217
C33   C     C_3   0.430183 0.238861 0.432914 -0.345599
C34   C     C_3   0.414884 0.442817 0.102059 -0.330803
C35   C     C_3   0.322159 0.550717 0.964455 -0.191602
C36   C     C_3   0.581029 0.448203 0.902709 -0.311220
C37   C     C_3   0.914884 0.942817 0.102059 -0.330803
C38   C     C_3   0.081029 0.948203 0.902709 -0.311220
C39   C     C_3   0.677099 0.552472 0.034571 -0.210585
C40   C     C_3   0.822159 0.050717 0.964455 -0.191602
C41   C     C_3   0.177099 0.052472 0.034571 -0.210585
C42   C     C_3   0.179127 0.525182 0.024139 -0.239145
C43   C     C_3   0.820497 0.525668 0.975367 -0.243901
C44   C     C_3   0.679127 0.025182 0.024139 -0.239145
C45   C     C_R   0.726867 0.042315 0.145626 0.530054
C46   C     C_3   0.320497 0.025668 0.975367 -0.243901
C47   C     C_3   0.244521 0.704405 0.056115 -0.261907
C48   C     C_3   0.756377 0.705370 0.943929 -0.261550
C49   C     C_3   0.744521 0.204405 0.056115 -0.261907
C50   C     C_3   0.256377 0.205370 0.943929 -0.261550
C51   C     C_3   0.241166 0.572708 0.069988 0.064247
C52   C     C_3   0.758891 0.573629 0.929677 0.074959
C53   C     C_3   0.741166 0.072708 0.069988 0.064247
C54   C     C_3   0.258891 0.073629 0.929677 0.074959
C55   C     C_3   0.256269 0.606849 0.931658 0.034006
C56   C     C_R   0.772899 0.543123 0.854024 0.552535
C57   C     C_3   0.743384 0.607294 0.068026 0.036513
C58   C     C_3   0.756268 0.106849 0.931658 0.034006
C59   C     C_3   0.243384 0.107295 0.068026 0.036512
C60   C     C_3   0.195181 0.524000 0.943549 -0.272528
C61   C     C_3   0.804027 0.523500 0.055958 -0.272513
C62   C     C_3   0.695181 0.024000 0.943549 -0.272529
C63   C     C_3   0.304028 0.023500 0.055958 -0.272513
C64   C     C_3   0.242310 0.721338 0.974087 -0.228377
C65   C     C_3   0.758256 0.721799 0.026021 -0.232294
C66   C     C_3   0.742310 0.221338 0.974087 -0.228377
C67   C     C_R   0.226867 0.542315 0.145626 0.530054
C68   C     C_3   0.258256 0.221799 0.026021 -0.232294
C69   C     C_3   0.508147 0.697677 0.461098 -0.233509
C70   C     C_3   0.491706 0.697673 0.538845 -0.233307
C71   C     C_3   0.008148 0.197677 0.461098 -0.233509
C72   C     C_3   0.991706 0.197673 0.538845 -0.233307
C73   C     C_R   0.442939 0.817272 0.862002 0.538038
C74   C     C_R   0.556543 0.817526 0.138043 0.538906
C75   C     C_R   0.942939 0.317272 0.862002 0.538038
C76   C     C_R   0.056543 0.317526 0.138043 0.538906
C77   C     C_3   0.573414 0.885542 0.492363 -0.267222
C78   C     C_3   0.515529 0.724978 0.966332 -0.127057
C79   C     C_3   0.426662 0.885702 0.507700 -0.266778
C80   C     C_3   0.073414 0.385542 0.492362 -0.267222
C81   C     C_3   0.926662 0.385702 0.507700 -0.266778
C82   C     C_3   0.458777 0.897422 0.432976 0.034816
C83   C     C_3   0.541293 0.897357 0.567077 0.034213
C84   C     C_3   0.958777 0.397422 0.432976 0.034815
C85   C     C_3   0.041293 0.397357 0.567077 0.034213
C86   C     C_3   0.524870 0.824918 0.435149 0.048372
C87   C     C_3   0.475106 0.824902 0.564857 0.048306
C88   C     C_3   0.024870 0.324918 0.435149 0.048371
C89   C     C_3   0.478648 0.730674 0.037076 -0.120920
C90   C     C_3   0.975106 0.324902 0.564857 0.048306
C91   C     C_3   0.180028 0.655928 0.456113 -0.173817
C92   C     C_3   0.820024 0.655971 0.543887 -0.173870
C93   C     C_3   0.680028 0.155928 0.456113 -0.173817
C94   C     C_3   0.320024 0.155971 0.543887 -0.173870
C95   C     C_3   0.185099 0.671185 0.535945 0.034635
C96   C     C_3   0.814965 0.671225 0.464051 0.034721
C97   C     C_3   0.685099 0.171185 0.535945 0.034635
C98   C     C_3   0.314965 0.171225 0.464051 0.034721
C99   C     C_3   0.242453 0.457772 0.472329 -0.222975
C100  C     C_3   0.015530 0.224978 0.966332 -0.127057
C101  C     C_3   0.757379 0.457786 0.527614 -0.223169
C102  C     C_3   0.742453 0.957772 0.472329 -0.222975
C103  C     C_3   0.257379 0.957785 0.527614 -0.223170
C104  C     C_3   0.305193 0.642356 0.447988 -0.289604
C105  C     C_3   0.694839 0.642332 0.552046 -0.289261
C106  C     C_3   0.805193 0.142356 0.447988 -0.289605
C107  C     C_3   0.194839 0.142332 0.552046 -0.289261
C108  C     C_3   0.238912 0.575501 0.430081 0.049639
C109  C     C_3   0.761062 0.575513 0.569915 0.049445
C110  C     C_3   0.738912 0.075501 0.430081 0.049639
C111  C     C_3   0.978648 0.230674 0.037076 -0.120920
C112  C     C_3   0.261062 0.075513 0.569915 0.049445
C113  C     C_3   0.248124 0.602931 0.569168 0.059602
C114  C     C_3   0.751846 0.602940 0.430829 0.059788
C115  C     C_3   0.748124 0.102931 0.569168 0.059602
C116  C     C_3   0.251846 0.102940 0.430829 0.059789
C117  C     C_3   0.237293 0.473349 0.554182 -0.278550
C118  C     C_3   0.762567 0.473371 0.445769 -0.278401
C119  C     C_3   0.737293 0.973349 0.554182 -0.278551
C120  C     C_3   0.262567 0.973371 0.445769 -0.278400
C121  C     C_R   0.262369 0.640499 0.854502 0.530304
C122  C     C_3   0.309091 0.516548 0.043111 0.029980
C123  C     C_R   0.737510 0.640648 0.145346 0.534563
C124  C     C_R   0.762369 0.140499 0.854502 0.530304
C125  C     C_R   0.237510 0.140648 0.145346 0.534563
C126  C     C_3   0.314936 0.637366 0.530458 -0.241775
C127  C     C_3   0.685070 0.637334 0.469570 -0.242136
C128  C     C_3   0.814936 0.137366 0.530458 -0.241775
C129  C     C_3   0.185070 0.137334 0.469570 -0.242136
C130  C     C_R   0.272489 0.045392 0.646447 0.534851
C131  C     C_R   0.727504 0.045373 0.353546 0.533818
C132  C     C_R   0.772489 0.545392 0.646447 0.534851
Cr1   Cr    Cr6+3 0.229620 0.836040 0.749110 0.985306
Cr2   Cr    Cr6+3 0.613980 0.676590 0.250790 0.975659
Cr3   Cr    Cr6+3 0.886020 0.176590 0.749210 0.976016
Cr4   Cr    Cr6+3 0.113980 0.176590 0.250790 0.975659
Cr5   Cr    Cr6+3 0.770380 0.836040 0.250890 0.969500
Cr6   Cr    Cr6+3 0.729620 0.336040 0.749110 0.985306
Cr7   Cr    Cr6+3 0.270380 0.336040 0.250890 0.969500
Cr8   Cr    Cr6+3 0.387630 0.990680 0.750730 0.971205
Cr9   Cr    Cr6+3 0.612370 0.990680 0.249270 0.971848
Cr10  Cr    Cr6+3 0.887630 0.490680 0.750730 0.971204
Cr11  Cr    Cr6+3 0.112370 0.490680 0.249270 0.971848
Cr12  Cr    Cr6+3 0.386020 0.676590 0.749210 0.976017
H1    H     H_    0.377617 0.814618 0.021512 0.100846
H2    H     H_    0.709634 0.742881 0.918660 0.102729
H3    H     H_    0.223045 0.920829 0.416564 0.099307
H4    H     H_    0.300060 0.423725 0.043286 0.148269
H5    H     H_    0.700599 0.424239 0.957026 0.148747
H6    H     H_    0.800060 0.923725 0.043286 0.148270
H7    H     H_    0.200599 0.924239 0.957026 0.148747
H8    H     H_    0.365397 0.614020 0.961605 0.155682
H9    H     H_    0.634217 0.616066 0.036756 0.145398
H10   H     H_    0.865397 0.114020 0.961605 0.155682
H11   H     H_    0.134217 0.116066 0.036756 0.145397
H12   H     H_    0.336633 0.471175 0.933527 0.096415
H13   H     H_    0.792004 0.240353 0.081066 0.109679
H14   H     H_    0.661741 0.473391 0.065482 0.101109
H15   H     H_    0.836633 0.971174 0.933527 0.096415
H16   H     H_    0.161741 0.973392 0.065482 0.101109
H17   H     H_    0.663934 0.939605 0.044350 0.102539
H18   H     H_    0.334805 0.940638 0.953953 0.099837
H19   H     H_    0.163934 0.439605 0.044351 0.102538
H20   H     H_    0.834805 0.440638 0.953953 0.099837
H21   H     H_    0.708020 0.934549 0.925494 0.106547
H22   H     H_    0.290169 0.934052 0.073347 0.105392
H23   H     H_    0.208020 0.434549 0.925494 0.106547
H24   H     H_    0.209634 0.242882 0.918660 0.102729
H25   H     H_    0.790169 0.434052 0.073347 0.105392
H26   H     H_    0.602524 0.772422 0.627055 0.254119
H27   H     H_    0.566228 0.858080 0.734307 0.195633
H28   H     H_    0.563292 0.001959 0.693683 0.157650
H29   H     H_    0.644428 0.931432 0.711762 0.125106
H30   H     H_    0.397481 0.772431 0.372946 0.253130
H31   H     H_    0.433765 0.858154 0.265769 0.194242
H32   H     H_    0.436815 0.002047 0.306436 0.158088
H33   H     H_    0.355623 0.931396 0.288327 0.124509
H34   H     H_    0.102524 0.272422 0.627054 0.254119
H35   H     H_    0.279215 0.787987 0.958432 0.097799
H36   H     H_    0.144427 0.431423 0.711766 0.125106
H37   H     H_    0.066222 0.358078 0.734305 0.195640
H38   H     H_    0.063294 0.501960 0.693683 0.157648
H39   H     H_    0.897481 0.272431 0.372946 0.253130
H40   H     H_    0.933761 0.358155 0.265769 0.194237
H41   H     H_    0.936816 0.502046 0.306436 0.158090
H42   H     H_    0.855622 0.431402 0.288330 0.124510
H43   H     H_    0.122414 0.601996 0.616193 0.284543
H44   H     H_    0.019409 0.704812 0.583471 0.133144
H45   H     H_    0.064369 0.777265 0.512578 0.133445
H46   H     H_    0.721692 0.788925 0.041706 0.099901
H47   H     H_    0.086629 0.808997 0.605210 0.158029
H48   H     H_    0.877529 0.601977 0.383771 0.284575
H49   H     H_    0.913620 0.808937 0.394791 0.157066
H50   H     H_    0.980696 0.704735 0.416493 0.132958
H51   H     H_    0.935856 0.777233 0.487411 0.133722
H52   H     H_    0.622414 0.101997 0.616193 0.284543
H53   H     H_    0.519410 0.204814 0.583471 0.133144
H54   H     H_    0.564369 0.277264 0.512577 0.133446
H55   H     H_    0.586630 0.308998 0.605208 0.158029
H56   H     H_    0.377529 0.101978 0.383771 0.284575
H57   H     H_    0.779215 0.287987 0.958432 0.097799
H58   H     H_    0.480695 0.204737 0.416488 0.132958
H59   H     H_    0.435859 0.277226 0.487413 0.133723
H60   H     H_    0.413618 0.308941 0.394796 0.157065
H61   H     H_    0.361386 0.593216 0.133542 0.264593
H62   H     H_    0.460774 0.473117 0.133206 0.142460
H63   H     H_    0.431861 0.405957 0.050312 0.130404
H64   H     H_    0.389168 0.373089 0.133261 0.176054
H65   H     H_    0.620746 0.623455 0.894960 0.252769
H66   H     H_    0.541779 0.473002 0.861398 0.148007
H67   H     H_    0.556173 0.438126 0.955247 0.119603
H68   H     H_    0.221693 0.288925 0.041706 0.099901
H69   H     H_    0.603607 0.362776 0.886738 0.164070
H70   H     H_    0.861386 0.093216 0.133542 0.264593
H71   H     H_    0.960773 0.973117 0.133206 0.142460
H72   H     H_    0.931861 0.905957 0.050312 0.130404
H73   H     H_    0.889168 0.873089 0.133261 0.176054
H74   H     H_    0.120746 0.123455 0.894960 0.252769
H75   H     H_    0.041780 0.973002 0.861397 0.148007
H76   H     H_    0.056173 0.938126 0.955247 0.119603
H77   H     H_    0.103607 0.862776 0.886738 0.164070
H78   H     H_    0.189105 0.747577 0.959058 0.131403
H79   H     H_    0.811595 0.747171 0.041456 0.133287
H80   H     H_    0.689105 0.247577 0.959058 0.131403
H81   H     H_    0.621217 0.802989 0.981390 0.089983
H82   H     H_    0.311595 0.247171 0.041456 0.133287
H83   H     H_    0.633347 0.081932 0.031876 0.141392
H84   H     H_    0.366609 0.081984 0.968080 0.141633
H85   H     H_    0.133347 0.581932 0.031876 0.141392
H86   H     H_    0.866609 0.581984 0.968080 0.141633
H87   H     H_    0.149356 0.553308 0.911908 0.126518
H88   H     H_    0.850075 0.551124 0.087963 0.128338
H89   H     H_    0.649357 0.053308 0.911908 0.126518
H90   H     H_    0.350075 0.051124 0.087963 0.128339
H91   H     H_    0.550216 0.636526 0.452745 0.116693
H92   H     H_    0.877617 0.314618 0.021512 0.100846
H93   H     H_    0.449648 0.636413 0.547218 0.116707
H94   H     H_    0.050216 0.136526 0.452745 0.116692
H95   H     H_    0.949648 0.136413 0.547218 0.116707
H96   H     H_    0.464804 0.657942 0.430399 0.133107
H97   H     H_    0.535041 0.658018 0.569513 0.133625
H98   H     H_    0.964804 0.157942 0.430399 0.133107
H99   H     H_    0.035041 0.158018 0.569513 0.133625
H100  H     H_    0.618978 0.835650 0.501954 0.123280
H101  H     H_    0.380904 0.836149 0.498140 0.123379
H102  H     H_    0.118978 0.335650 0.501954 0.123279
H103  H     H_    0.121218 0.302989 0.981391 0.089983
H104  H     H_    0.880904 0.336149 0.498140 0.123379
H105  H     H_    0.469256 0.004047 0.063866 0.109519
H106  H     H_    0.536468 0.994644 0.932272 0.109926
H107  H     H_    0.969256 0.504047 0.063867 0.109519
H108  H     H_    0.036468 0.494644 0.932272 0.109926
H109  H     H_    0.472817 0.990993 0.424892 0.168368
H110  H     H_    0.527370 0.990922 0.575171 0.168467
H111  H     H_    0.972817 0.490993 0.424892 0.168366
H112  H     H_    0.027370 0.490922 0.575171 0.168468
H113  H     H_    0.412537 0.972245 0.527051 0.126618
H114  H     H_    0.200640 0.751315 0.080157 0.120836
H115  H     H_    0.587827 0.971987 0.473064 0.126912
H116  H     H_    0.912537 0.472245 0.527051 0.126618
H117  H     H_    0.087827 0.471987 0.473064 0.126912
H118  H     H_    0.128185 0.626316 0.439985 0.164840
H119  H     H_    0.871820 0.626308 0.559983 0.164927
H120  H     H_    0.628185 0.126316 0.439985 0.164840
H121  H     H_    0.371820 0.126307 0.559983 0.164926
H122  H     H_    0.183108 0.742915 0.429617 0.080713
H123  H     H_    0.817055 0.742974 0.570414 0.080897
H124  H     H_    0.683108 0.242915 0.429617 0.080713
H125  H     H_    0.800840 0.751468 0.920373 0.121241
H126  H     H_    0.317055 0.242974 0.570414 0.080897
H127  H     H_    0.196155 0.761365 0.546286 0.155814
H128  H     H_    0.804061 0.761437 0.453745 0.155890
H129  H     H_    0.696155 0.261365 0.546285 0.155814
H130  H     H_    0.304060 0.261437 0.453745 0.155889
H131  H     H_    0.707337 0.891562 0.449808 0.102908
H132  H     H_    0.292428 0.891556 0.550093 0.102467
H133  H     H_    0.207337 0.391562 0.449808 0.102907
H134  H     H_    0.792428 0.391556 0.550093 0.102467
H135  H     H_    0.687565 0.945147 0.573072 0.176561
H136  H     H_    0.700640 0.251315 0.080157 0.120836
H137  H     H_    0.312281 0.945167 0.426882 0.176441
H138  H     H_    0.187565 0.445147 0.573072 0.176561
H139  H     H_    0.812281 0.445167 0.426882 0.176440
H140  H     H_    0.349405 0.600465 0.421661 0.107366
H141  H     H_    0.650582 0.600418 0.578367 0.108340
H142  H     H_    0.849405 0.100464 0.421661 0.107366
H143  H     H_    0.150582 0.100418 0.578367 0.108340
H144  H     H_    0.300835 0.734489 0.429434 0.117833
H145  H     H_    0.699278 0.734469 0.570638 0.117935
H146  H     H_    0.800835 0.234489 0.429434 0.117833
H147  H     H_    0.300840 0.251468 0.920373 0.121241
H148  H     H_    0.199278 0.234469 0.570638 0.117935
H149  H     H_    0.520792 0.639204 0.940463 0.144190
H150  H     H_    0.467407 0.651659 0.067781 0.177532
H151  H     H_    0.020792 0.139204 0.940463 0.144190
H152  H     H_    0.967407 0.151659 0.067781 0.177532
H153  H     H_    0.335075 0.717086 0.554904 0.105909
H154  H     H_    0.665028 0.717037 0.445149 0.106077
H155  H     H_    0.835075 0.217086 0.554904 0.105909
H156  H     H_    0.165028 0.217037 0.445149 0.106077
H157  H     H_    0.352832 0.567140 0.542697 0.128727
H158  H     H_    0.292004 0.740353 0.081066 0.109679
H159  H     H_    0.647052 0.567149 0.457309 0.128519
H160  H     H_    0.852832 0.067140 0.542697 0.128726
H161  H     H_    0.147051 0.067149 0.457309 0.128519
H162  H     H_    0.295413 0.429599 0.463952 0.122756
H163  H     H_    0.704364 0.429611 0.535960 0.122574
H164  H     H_    0.795413 0.929599 0.463952 0.122756
H165  H     H_    0.204364 0.929611 0.535960 0.122574
H166  H     H_    0.276758 0.420798 0.583356 0.099539
H167  H     H_    0.723045 0.420829 0.416564 0.099307
H168  H     H_    0.776758 0.920798 0.583356 0.099539
N1    N     N_2   0.589087 0.859496 0.624682 -0.550183
N2    N     N_2   0.633696 0.538046 0.907206 -0.514354
N3    N     N_2   0.868579 0.040748 0.089302 -0.541342
N4    N     N_2   0.133696 0.038046 0.907206 -0.514354
N5    N     N_2   0.410898 0.859557 0.375395 -0.550279
N6    N     N_2   0.089087 0.359496 0.624682 -0.550185
N7    N     N_2   0.910898 0.359557 0.375395 -0.550278
N8    N     N_2   0.119548 0.644048 0.567782 -0.537584
N9    N     N_2   0.880473 0.644021 0.432198 -0.537326
N10   N     N_2   0.619548 0.144049 0.567782 -0.537584
N11   N     N_2   0.380473 0.144021 0.432198 -0.537325
N12   N     N_2   0.368579 0.540748 0.089302 -0.541342
O1    O     O_R   0.214130 0.708570 0.829890 -0.536053
O2    O     O_R   0.542830 0.717300 0.331620 -0.525065
O3    O     O_R   0.957170 0.217300 0.668380 -0.523591
O4    O     O_R   0.042830 0.217300 0.331620 -0.525064
O5    O     O_R   0.320870 0.624890 0.673130 -0.519677
O6    O     O_R   0.679130 0.624890 0.326870 -0.519571
O7    O     O_R   0.820870 0.124890 0.673130 -0.519676
O8    O     O_R   0.179130 0.124890 0.326870 -0.519571
O9    O     O_3   0.334430 0.834430 0.749680 -0.295033
O10   O     O_3   0.665570 0.834430 0.250320 -0.290513
O11   O     O_3   0.834430 0.334430 0.749680 -0.295032
O12   O     O_R   0.785870 0.708570 0.170110 -0.540132
O13   O     O_3   0.165570 0.334430 0.250320 -0.290514
O14   O     O_R   0.236050 0.959150 0.825270 -0.481395
O15   O     O_R   0.763950 0.959150 0.174730 -0.506860
O16   O     O_R   0.736050 0.459150 0.825270 -0.481395
O17   O     O_R   0.263950 0.459150 0.174730 -0.506860
O18   O     O_R   0.332100 0.076650 0.832310 -0.539627
O19   O     O_R   0.667900 0.076650 0.167690 -0.532602
O20   O     O_R   0.832100 0.576650 0.832310 -0.539627
O21   O     O_R   0.167900 0.576650 0.167690 -0.532602
O22   O     O_R   0.446500 0.918620 0.826240 -0.512993
O23   O     O_R   0.714130 0.208570 0.829890 -0.536053
O24   O     O_R   0.553500 0.918620 0.173760 -0.512293
O25   O     O_R   0.946500 0.418620 0.826240 -0.512994
O26   O     O_R   0.053500 0.418620 0.173760 -0.512292
O27   O     O_R   0.457310 0.715830 0.831280 -0.531472
O28   O     O_R   0.542690 0.715830 0.168720 -0.534126
O29   O     O_R   0.957310 0.215830 0.831280 -0.531473
O30   O     O_R   0.042690 0.215830 0.168720 -0.534126
O31   O     O_R   0.321000 0.623520 0.824130 -0.520499
O32   O     O_R   0.679000 0.623520 0.175870 -0.517957
O33   O     O_R   0.821000 0.123520 0.824130 -0.520499
O34   O     O_R   0.285870 0.208570 0.170110 -0.540131
O35   O     O_R   0.179000 0.123520 0.175870 -0.517958
O36   O     O_R   0.213990 0.710040 0.667000 -0.532506
O37   O     O_R   0.786010 0.710040 0.333000 -0.532275
O38   O     O_R   0.713990 0.210040 0.667000 -0.532506
O39   O     O_R   0.286010 0.210040 0.333000 -0.532275
O40   O     O_R   0.235920 0.960520 0.674260 -0.509076
O41   O     O_R   0.764080 0.960520 0.325740 -0.510737
O42   O     O_R   0.735920 0.460520 0.674260 -0.509075
O43   O     O_R   0.264080 0.460520 0.325740 -0.510737
O44   O     O_R   0.331960 0.078120 0.669410 -0.544191
O45   O     O_R   0.446360 0.919990 0.675230 -0.516338
O46   O     O_R   0.668040 0.078120 0.330590 -0.543566
O47   O     O_R   0.831960 0.578120 0.669410 -0.544190
O48   O     O_R   0.168040 0.578120 0.330590 -0.543566
O49   O     O_R   0.553640 0.919990 0.324770 -0.516100
O50   O     O_R   0.946360 0.419990 0.675230 -0.516339
O51   O     O_R   0.053640 0.419990 0.324770 -0.516099
O52   O     O_R   0.457170 0.717300 0.668380 -0.523589

loop_
_geom_bond_atom_site_label_1
_geom_bond_atom_site_label_2
_ccdc_geom_bond_type
Cr12  O31   S    
C77   H100  S    
C107  C112  S    
C83   C87   S    
C124  O33   A    
C121  O31   A    
Cr8   O18   S    
C107  C129  S    
C130  O44   A    
C79   C87   S    
C16   H108  S    
C124  O23   A    
C4    C87   S    
Cr1   O14   S    
C37   N3    S    
C38   N4    S    
C9    C114  S    
C14   C21   S    
C130  O40   A    
C103  H132  S    
C119  H135  S    
C68   H82   S    
C92   C109  S    
C24   C54   S    
C29   H42   S    
C30   H45   S    
C123  O32   A    
C66   H57   S    
C129  H161  S    
C44   C53   S    
C63   H22   S    
C81   H116  S    
C2    N2    S    
C13   N3    S    
C70   H93   S    
C122  H4    S    
C48   C65   S    
C97   C115  S    
C132  O47   A    
C93   C110  S    
C104  C108  S    
C26   H28   S    
C118  H167  S    
C24   C41   S    
C72   H99   S    
C96   C114  S    
C35   H8    S    
C100  H151  S    
Cr8   O22   S    
C8    O5    A    
C123  O12   A    
C78   C89   S    
C40   C58   S    
C101  H134  S    
C17   C89   S    
C84   N7    S    
C23   C75   S    
C47   C64   S    
C49   H136  S    
C33   H59   S    
C17   C21   S    
C12   H105  S    
C103  C112  S    
H39   N7    S    
C19   C23   S    
C29   N7    S    
C32   H53   S    
C24   H7    S    
C30   N8    S    
C57   C123  S    
C7    C88   S    
C16   C20   S    
C109  C132  S    
C110  C131  S    
C28   H36   S    
C2    C52   S    
C81   C90   S    
C120  H137  S    
C131  O41   A    
C36   N2    S    
C119  H168  S    
C61   H25   S    
C44   H17   S    
Cr4   O13   S    
C67   O21   A    
C43   C61   S    
C27   N5    S    
C35   C122  S    
C84   C88   S    
C27   H32   S    
C85   C90   S    
C57   C61   S    
C19   C111  S    
C34   H63   S    
C59   C63   S    
C25   C76   S    
Cr8   O9    S    
Cr9   O19   S    
C80   C88   S    
C103  H165  S    
C127  H154  S    
C31   H51   S    
C126  H157  S    
Cr5   O15   S    
C49   C53   S    
C22   C89   S    
C56   O16   A    
C69   C70   S    
C44   H83   S    
C105  H145  S    
Cr6   O38   S    
C71   C88   S    
C42   H85   S    
Cr8   O44   S    
C100  C111  S    
Cr3   O11   S    
Cr9   O10   S    
Cr3   O29   S    
C50   H147  S    
C102  C119  S    
C131  O46   A    
C55   C121  S    
C60   H87   S    
C40   H15   S    
C24   N4    S    
C19   H92   S    
C43   H86   S    
Cr10  O20   S    
C93   H124  S    
C99   C108  S    
Cr7   O17   S    
C101  C118  S    
C38   H77   S    
C32   H55   S    
C11   O39   A    
C59   C68   S    
C89   H150  S    
C15   C25   S    
C47   H114  S    
C21   C73   S    
C92   C96   S    
C61   H88   S    
C33   N11   S    
C32   N10   S    
C117  H138  S    
C28   H38   S    
C98   H130  S    
C82   H109  S    
C37   H72   S    
C43   H20   S    
Cr11  O26   S    
C23   C100  S    
C45   C53   S    
C49   H13   S    
C70   C87   S    
Cr12  O52   S    
Cr2   O10   S    
C60   H23   S    
C49   C66   S    
C105  C127  S    
C83   H110  S    
Cr5   O37   S    
C79   H113  S    
C71   H94   S    
Cr4   O8    S    
C31   H49   S    
C64   H35   S    
Cr4   O30   S    
C78   H149  S    
Cr1   O1    S    
C113  C126  S    
C6    C90   S    
C77   C83   S    
C105  H141  S    
C115  C128  S    
C116  C120  S    
C73   O22   A    
C21   C78   S    
C107  H143  S    
C18   H81   S    
C99   C117  S    
C41   H16   S    
C72   C90   S    
Cr10  O25   S    
Cr9   O46   S    
C48   C52   S    
C72   H95   S    
C64   H78   S    
C51   C67   S    
C104  H144  S    
C113  C117  S    
C45   O19   A    
H61   N12   S    
C98   N11   S    
C16   C23   S    
C115  C119  S    
C11   O8    A    
C39   H14   S    
C50   H24   S    
C80   H102  S    
C22   C74   S    
H30   N5    S    
Cr7   O43   S    
C68   H68   S    
C93   C97   S    
H65   N2    S    
C107  H148  S    
C125  O34   A    
C94   H121  S    
C105  C109  S    
C83   N1    S    
C76   O26   A    
C18   C22   S    
C38   H75   S    
C71   H98   S    
Cr2   O32   S    
C97   N10   S    
C48   H125  S    
C79   C82   S    
C101  H163  S    
C3    C108  S    
C59   C125  S    
C102  H164  S    
C46   C63   S    
C69   H91   S    
C118  H139  S    
Cr10  O11   S    
C63   H90   S    
C99   H133  S    
C94   C112  S    
C29   H41   S    
Cr9   O24   S    
C67   O17   A    
C25   C111  S    
C91   C95   S    
C77   H115  S    
C34   N12   S    
C132  O42   A    
C112  C130  S    
C1    O14   A    
C76   O30   A    
C5    O49   A    
C41   H11   S    
C58   C62   S    
Cr9   O49   S    
Cr6   O11   S    
C29   H40   S    
C103  C120  S    
C37   H73   S    
C126  H153  S    
C15   C19   S    
C8    O36   A    
C50   C54   S    
C39   H9    S    
C79   H101  S    
Cr11  O51   S    
C13   H6    S    
Cr6   O42   S    
Cr7   O34   S    
C106  H146  S    
C70   H97   S    
C20   C25   S    
C94   C98   S    
C101  C109  S    
C94   H126  S    
C106  C128  S    
C33   H58   S    
C75   O25   A    
Cr3   O33   S    
C13   C40   S    
C32   H54   S    
C20   H103  S    
Cr1   O40   S    
C12   C17   S    
C102  H131  S    
C93   H120  S    
C62   H89   S    
C55   C60   S    
Cr7   O13   S    
C81   H104  S    
C95   N8    S    
C13   C53   S    
C26   N1    S    
Cr10  O47   S    
Cr12  O9    S    
C27   H31   S    
C4    O52   A    
C47   C51   S    
C34   H64   S    
C82   C86   S    
C6    O50   A    
C30   H44   S    
C17   H1    S    
C80   C85   S    
C20   C100  S    
C46   C54   S    
C84   H111  S    
Cr1   O36   S    
C11   C116  S    
C8    C113  S    
H26   N1    S    
C26   H27   S    
Cr2   O6    S    
C3    O48   A    
Cr5   O41   S    
C102  C110  S    
C47   H158  S    
Cr11  O21   S    
C9    O37   A    
C65   H79   S    
C128  H155  S    
C74   O24   A    
C85   H112  S    
C106  H142  S    
C91   C108  S    
C27   H33   S    
C57   C65   S    
C95   H127  S    
C14   H106  S    
C33   H60   S    
C26   H29   S    
H70   N3    S    
C104  H140  S    
C114  C127  S    
C121  O1    A    
C45   O15   A    
Cr7   O39   S    
C6    O3    A    
C43   C52   S    
C69   H96   S    
C92   H119  S    
C10   O38   A    
C36   H67   S    
C7    O51   A    
C4    O45   A    
C71   C72   S    
C65   H46   S    
C120  H3    S    
Cr8   O45   S    
Cr2   O2    S    
C51   C122  S    
C46   H84   S    
H52   N10   S    
C50   C68   S    
C37   H71   S    
C122  N12   S    
C5    O2    A    
C12   C22   S    
C10   O7    A    
C14   C18   S    
H48   N9    S    
H56   N11   S    
C34   H62   S    
Cr6   O16   S    
Cr5   O10   S    
C127  H159  S    
Cr4   O35   S    
C128  H160  S    
C9    O6    A    
C73   O27   A    
C15   C16   S    
C39   C57   S    
C99   H162  S    
C1    O18   A    
C31   N9    S    
Cr11  O48   S    
C85   N6    S    
C92   H123  S    
C2    C39   S    
C58   C66   S    
C116  C129  S    
C48   H2    S    
C91   H122  S    
C18   C78   S    
C42   C51   S    
C2    H5    S    
Cr11  O13   S    
C40   H10   S    
H43   N8    S    
H74   N4    S    
C82   N5    S    
Cr3   O3    S    
C35   C55   S    
C38   H76   S    
C35   H12   S    
C41   C59   S    
C66   H80   S    
C42   C60   S    
C42   H19   S    
C44   C62   S    
Cr10  O50   S    
C28   N6    S    
C28   H37   S    
C36   H69   S    
C98   C116  S    
C55   C64   S    
C30   H47   S    
C114  C118  S    
C91   H118  S    
C1    C54   S    
C5    C86   S    
C12   C14   S    
C77   C86   S    
C56   O20   A    
Cr12  O5    S    
C75   O29   A    
C81   C84   S    
C106  C110  S    
C117  H166  S    
Cr3   O7    S    
C111  H152  S    
C80   H117  S    
C3    O43   A    
Cr5   O12   S    
C31   H50   S    
C96   H128  S    
C129  H156  S    
C58   C124  S    
C15   H107  S    
C95   C113  S    
C96   N9    S    
Cr6   O23   S    
Cr2   O28   S    
H34   N6    S    
Cr4   O4    S    
C10   C115  S    
Cr1   O9    S    
C74   O28   A    
C62   H21   S    
C104  C126  S    
C46   H18   S    
C7    O4    A    
Cr12  O27   S    
C97   H129  S    
C69   C86   S    
C52   C56   S    
C36   H66   S    
C125  O35   A    
