data_mof_unit_58405.cif
_audit_creation_date              2013-03-05T16:19:33-0500
_audit_creation_method            fapswitch 2.2
_symmetry_space_group_name_H-M    P1
_symmetry_Int_Tables_number       1
_space_group_crystal_system       triclinic
_cell_length_a                    8.237335
_cell_length_b                    19.188997
_cell_length_c                    26.869247
_cell_angle_alpha                 100.262528
_cell_angle_beta                  92.585054
_cell_angle_gamma                 87.378934
_cell_volume                      4171.84972084

loop_
_atom_site_label
_atom_site_type_symbol
_atom_site_description
_atom_site_fract_x
_atom_site_fract_y
_atom_site_fract_z
_atom_type_partial_charge
P1    P     P_3+3 0.926760 0.336170 0.451740 0.470448
O1    O     O_2   0.103290 0.325410 0.465600 -0.393646
O2    O     O_3   0.857760 0.414170 0.470020 -0.354327
O3    O     O_3   0.374170 0.371120 0.556000 -0.356505
O4    O     O_2   0.298316 0.243367 0.515381 -0.413743
O5    O     O_3   0.904910 0.326885 0.385275 -0.576991
O6    O     O_3   0.342077 0.261543 0.613800 -0.505409
H1    H     H_    0.453039 0.342098 0.663424 0.102592
C1    C     C_3   0.416731 0.251914 0.699167 -0.893087
H2    H     H_    0.303495 0.277415 0.716035 0.283013
H3    H     H_    0.401749 0.193921 0.688090 0.236267
P2    P     P_3+3 0.399470 0.558680 0.614150 0.493307
P3    P     P_3+3 0.960812 0.412585 0.647923 0.474266
O7    O     O_2   0.227790 0.537410 0.620340 -0.341537
O8    O     O_3   0.969630 0.407570 0.582610 -0.381451
O9    O     O_2   0.070458 0.472351 0.674606 -0.349992
O10   O     O_3   0.390084 0.651170 0.631627 -0.531914
O11   O     O_3   0.051124 0.333925 0.662295 -0.501366
C2    C     C_3   0.969194 0.277178 0.632605 0.549464
H4    H     H_    0.012826 0.267690 0.593311 0.128611
H5    H     H_    0.835839 0.287582 0.631351 -0.032321
C3    C     C_3   0.999648 0.210102 0.655022 -0.993576
H6    H     H_    0.128340 0.191393 0.651469 0.285508
H7    H     H_    0.968715 0.220307 0.695547 0.264080
C4    C     C_3   0.839560 0.622390 0.632941 0.257153
H8    H     H_    0.715540 0.609275 0.617856 0.058338
H9    H     H_    0.923471 0.575825 0.621913 0.135059
C5    C     C_3   0.836436 0.639840 0.690671 -0.103786
H10   H     H_    0.757563 0.687998 0.702399 0.144435
H11   H     H_    0.783510 0.595312 0.704872 0.089310
Ba1   Ba    Ba6+2 0.160260 0.465850 0.521400 1.574491
C6    C     C_3   0.044219 0.296884 0.359801 0.678476
H12   H     H_    0.153793 0.321845 0.378568 0.080936
C7    C     C_3   0.061950 0.216875 0.358706 -1.029454
H13   H     H_    0.113399 0.206650 0.395531 0.228440
H14   H     H_    0.147365 0.192047 0.329250 0.246302
H15   H     H_    0.942633 0.191742 0.350756 0.253133
C8    C     C_3   0.335069 0.681353 0.589906 0.481164
H16   H     H_    0.210641 0.664567 0.578588 0.078016
H17   H     H_    0.415676 0.665648 0.557496 0.124165
C9    C     C_3   0.333580 0.761666 0.604585 -0.972886
H18   H     H_    0.246673 0.779722 0.635080 0.290666
H19   H     H_    0.296305 0.786372 0.571323 0.209814
H20   H     H_    0.457178 0.779072 0.618058 0.262219
P4    P     P_3+3 0.883550 0.663840 0.548300 0.475279
O12   O     O_2   0.707020 0.674640 0.534420 -0.375822
O13   O     O_3   0.952550 0.585840 0.530020 -0.398071
O14   O     O_3   0.436140 0.628890 0.444040 -0.372763
O15   O     O_3   0.889581 0.681536 0.614570 -0.543018
P5    P     P_3+3 0.834378 0.574359 0.351050 0.478820
O16   O     O_3   0.350480 0.462320 0.439870 -0.392407
O17   O     O_3   0.840680 0.592440 0.417430 -0.388293
O18   O     O_2   0.655196 0.561287 0.333283 -0.400668
O19   O     O_3   0.875087 0.652089 0.328882 -0.530829
Ba2   Ba    Ba6+2 0.649930 0.534160 0.478640 1.561945
P6    P     P_3+3 0.412064 0.281694 0.557812 0.439475
C10   C     C_3   0.456406 0.283302 0.653228 0.440124
H21   H     H_    0.580647 0.263399 0.642844 0.011642
H22   H     H_    0.518063 0.259998 0.727842 0.262662
O20   O     O_3   0.459840 0.537690 0.560170 -0.421629
C11   C     C_3   0.489260 0.317944 0.400906 0.445347
H23   H     H_    0.596661 0.346968 0.418246 0.123643
H24   H     H_    0.396899 0.319771 0.430003 0.106631
C12   C     C_3   0.542079 0.241683 0.382415 -1.072256
H25   H     H_    0.646105 0.238919 0.357209 0.284647
H26   H     H_    0.578787 0.216239 0.415226 0.238487
H27   H     H_    0.439510 0.213183 0.360966 0.271112
P7    P     P_3+3 0.403060 0.437510 0.376747 0.447705
O21   O     O_2   0.582520 0.462630 0.379680 -0.337844
O22   O     O_3   0.422943 0.345825 0.359411 -0.574329
H28   H     H_    0.922847 0.167453 0.634341 0.220834
C13   C     C_3   0.841536 0.710493 0.366945 0.467170
H29   H     H_    0.719088 0.708371 0.381756 0.178179
H30   H     H_    0.932719 0.711466 0.398368 0.054558
C14   C     C_3   0.849986 0.778551 0.345791 -0.973388
H31   H     H_    0.757966 0.779036 0.314330 0.277257
H32   H     H_    0.824926 0.824870 0.376038 0.230187
H33   H     H_    0.972997 0.782794 0.331543 0.257900
P8    P     P_3+3 0.392908 0.717043 0.438432 0.414083
C15   C     C_3   0.334795 0.679666 0.343394 0.380455
H34   H     H_    0.202776 0.692113 0.348305 0.071048
O23   O     O_2   0.524269 0.759477 0.472297 -0.415198
O24   O     O_3   0.427478 0.728424 0.376824 -0.529871
H35   H     H_    0.363991 0.624616 0.349338 0.124919
H36   H     H_    0.309706 0.643042 0.262734 0.248726
C16   C     C_3   0.375084 0.684018 0.289445 -0.873861
H37   H     H_    0.507837 0.674611 0.284307 0.271747
H38   H     H_    0.337949 0.737153 0.280955 0.251263
C17   C     C_R   0.956226 0.800258 0.529215 -0.311017
H39   H     H_    0.890354 0.821289 0.562831 0.146317
C18   C     C_R   0.989249 0.726554 0.518391 0.326933
C19   C     C_R   0.114754 0.811816 0.458083 -0.323589
H40   H     H_    0.154268 0.839365 0.429298 0.161748
C20   C     C_R   0.188341 0.745036 0.460734 0.226265
C21   C     C_R   0.700154 0.191754 0.546577 -0.358523
H41   H     H_    0.666826 0.167858 0.577888 0.138629
C22   C     C_R   0.624412 0.257337 0.541688 0.206585
C23   C     C_R   0.855515 0.198793 0.474241 -0.324456
H42   H     H_    0.917824 0.175011 0.440808 0.135628
C24   C     C_R   0.820574 0.273071 0.482383 0.297798
C25   C     C_R   0.005542 0.844763 0.495945 0.104723
C26   C     C_R   0.111821 0.700006 0.486010 -0.460692
H43   H     H_    0.154328 0.645265 0.482922 0.158717
C27   C     C_R   0.806932 0.156222 0.509170 0.157777
C28   C     C_R   0.698048 0.300605 0.514348 -0.413599
H44   H     H_    0.652045 0.354497 0.515137 0.151063
C29   C     C_R   0.227732 0.953428 0.482561 -0.244937
C30   C     C_R   0.326195 0.990690 0.457775 -0.120291
C31   C     C_R   0.282022 0.059862 0.453021 0.241430
C32   C     C_R   0.137748 0.090063 0.475114 -0.273339
C33   C     C_R   0.017657 0.047828 0.490353 0.069483
C34   C     C_R   0.064519 0.974819 0.491213 0.096438
C35   C     C_R   0.858762 0.076194 0.505942 -0.060942
C36   C     C_R   0.750720 0.026461 0.520345 0.080133
C37   C     C_R   0.796880 0.952393 0.517528 0.071069
C38   C     C_R   0.954139 0.924787 0.501896 -0.061149
C39   C     C_R   0.591256 0.047424 0.536380 -0.179183
C40   C     C_R   0.500846 0.005358 0.560851 -0.103367
C41   C     C_R   0.543842 0.934392 0.556875 -0.118726
C42   C     C_R   0.679478 0.907455 0.530141 -0.160069
H45   H     H_    0.282968 0.906933 0.494425 0.163198
H46   H     H_    0.444032 0.967190 0.447006 0.155040
H47   H     H_    0.126097 0.146367 0.480823 0.176493
H48   H     H_    0.527247 0.094082 0.527903 0.161098
H49   H     H_    0.385175 0.025245 0.576365 0.136993
H50   H     H_    0.463099 0.899044 0.569902 0.132263
H51   H     H_    0.687412 0.851235 0.519333 0.181135
C43   C     C_R   0.266512 0.431308 0.170676 0.521980
O25   O     O_2   0.298749 0.379574 0.190608 -0.587789
N1    N     N_R   0.189577 0.490725 0.197833 -0.166277
C44   C     C_R   0.147609 0.548599 0.174975 0.509005
C45   C     C_2   0.006926 0.501281 0.268597 -0.182068
C46   C     C_3   0.976465 0.500408 0.324070 0.222452
C47   C     C_1   0.270189 0.480703 0.334726 0.224622
C48   C     C_2   0.299527 0.483191 0.287236 -0.231320
C49   C     C_2   0.160032 0.492855 0.251036 0.139816
C50   C     C_R   0.270235 0.489091 0.096804 -0.065914
C51   C     C_R   0.307112 0.429635 0.119999 -0.057670
C52   C     C_R   0.385879 0.369945 0.092352 -0.088477
C53   C     C_R   0.189642 0.548942 0.124548 -0.053153
C54   C     C_2   0.133790 0.506919 0.355461 -0.430274
H52   H     H_    0.423343 0.478178 0.274475 0.168052
H53   H     H_    0.417991 0.323812 0.109364 0.167563
C55   C     C_2   0.648191 0.472808 0.637478 -0.457509
C56   C     C_R   0.424672 0.424976 0.966087 0.043135
C57   C     C_R   0.336612 0.550839 0.973783 0.040378
C58   C     C_R   0.403536 0.487702 0.944846 0.087096
C59   C     C_R   0.480404 0.362205 0.934602 -0.205884
C60   C     C_R   0.520877 0.361823 0.884939 -0.084821
C61   C     C_R   0.508411 0.423996 0.864321 -0.042252
C62   C     C_R   0.449761 0.487132 0.894089 -0.072409
C63   C     C_R   0.437109 0.549511 0.873079 -0.071554
C64   C     C_R   0.486766 0.548164 0.823047 0.566122
N2    N     N_R   0.543264 0.485467 0.793921 -0.163366
C65   C     C_R   0.551735 0.423644 0.814156 0.526235
C66   C     C_2   0.727596 0.448081 0.724210 -0.139526
C67   C     C_3   0.746211 0.426124 0.667933 0.093433
C68   C     C_1   0.520155 0.510315 0.656929 0.256708
C69   C     C_2   0.478234 0.514214 0.704638 -0.176756
C70   C     C_2   0.589309 0.483285 0.741693 0.094716
O26   O     O_2   0.595768 0.367709 0.788225 -0.631386
C71   C     C_R   0.388365 0.426627 0.017660 0.043455
C72   C     C_R   0.314083 0.488630 0.045842 0.084022
C73   C     C_R   0.283623 0.550159 0.023650 0.042658
C74   C     C_R   0.425612 0.368346 0.042421 -0.204272
H54   H     H_    0.813175 0.425974 0.749693 0.170593
H55   H     H_    0.562923 0.312081 0.862648 0.165729
H56   H     H_    0.490610 0.311603 0.946746 0.128397
H57   H     H_    0.489813 0.320910 0.024693 0.128079
O27   O     O_2   0.075552 0.600161 0.198711 -0.582247
C75   C     C_R   0.153678 0.608039 0.101438 -0.084587
H58   H     H_    0.903681 0.505720 0.242616 0.152462
H59   H     H_    0.090139 0.654575 0.121546 0.167523
C76   C     C_R   0.326568 0.612735 0.951727 -0.204040
C77   C     C_R   0.376314 0.612026 0.902677 -0.054534
O28   O     O_2   0.481224 0.602970 0.805716 -0.561609
C78   C     C_R   0.199992 0.608861 0.052285 -0.201550
H60   H     H_    0.284095 0.663421 0.971874 0.129892
H61   H     H_    0.366338 0.661093 0.887903 0.175086
H62   H     H_    0.361258 0.537989 0.716715 0.217008
H63   H     H_    0.165254 0.656139 0.037409 0.129448
H64   H     H_    0.134229 0.533485 0.394734 0.168000
H65   H     H_    0.666794 0.464219 0.597090 0.176037
N3    N     N_R   0.000009 0.651439 0.713037 0.286856
O29   O     O_R   0.061051 0.611517 0.744119 -0.357663
O30   O     O_R   0.080034 0.705308 0.705524 -0.331095
N4    N     N_2   0.035538 0.310823 0.308243 -0.112343
H66   H     H_    0.086708 0.357407 0.304294 0.146151
C79   C     C_3   0.882429 0.299096 0.279874 -0.783360
H67   H     H_    0.898937 0.304151 0.239905 0.237772
H68   H     H_    0.788431 0.339281 0.295866 0.259303
H69   H     H_    0.840426 0.245082 0.280363 0.246099
N5    N     N_2   0.388506 0.101255 0.430686 -0.108656
H70   H     H_    0.339247 0.149234 0.424288 0.189232
C80   C     C_3   0.488433 0.063726 0.390464 -0.935741
H71   H     H_    0.546851 0.101146 0.370729 0.262985
H72   H     H_    0.413085 0.028576 0.362042 0.260680
H73   H     H_    0.588397 0.032579 0.406339 0.254964

loop_
_geom_bond_atom_site_label_1
_geom_bond_atom_site_label_2
_geom_bond_distance
_ccdc_geom_bond_type
C11   O22   1.399498 S    
O14   Ba2   2.726099 S    
O5    C6    1.409533 S    
C44   O27   1.222138 D    
C15   H34   1.111324 S    
C11   C12   1.509894 S    
C7    H15   1.109927 S    
C29   C34   1.404913 A    
P1    O1    1.498974 D    
O4    P6    1.544854 D    
C29   C30   1.372604 A    
C72   C73   1.422242 A    
C60   H55   1.083760 S    
O7    Ba1   2.810350 S    
C15   H35   1.110252 S    
C43   O25   1.222822 D    
C36   C37   1.444013 A    
C42   H51   1.065863 S    
C48   C49   1.498261 S    
H36   C16   1.107323 S    
C65   O26   1.220557 D    
C4    C5    1.528606 S    
C75   H59   1.083569 S    
C64   O28   1.221941 D    
C24   C28   1.379560 A    
P5    O19   1.752790 S    
P3    O11   1.749258 S    
O6    P6    1.746651 S    
O14   P8    1.744072 S    
C5    H10   1.111395 S    
C2    H5    1.107550 S    
C39   H48   1.072444 S    
C33   C34   1.439973 A    
C54   H64   1.086976 S    
P1    O2    1.577962 S    
C15   O24   1.403254 S    
C8    H16   1.101782 S    
C7    H13   1.104926 S    
C16   H38   1.110529 S    
C56   C71   1.425331 A    
C37   C38   1.429026 A    
P1    Ba1   3.442171 S    
N3    O29   1.300765 A    
C52   C74   1.389962 A    
O11   C2    1.409529 S    
C9    H18   1.110399 S    
C11   H24   1.110298 S    
C69   H62   1.084964 S    
C43   C51   1.411219 A    
C76   C77   1.395285 A    
C15   C16   1.519017 S    
C44   C53   1.414749 A    
C32   C33   1.425196 A    
C63   C77   1.401200 A    
C52   H53   1.083688 S    
C48   H52   1.085297 S    
C2    H4    1.112093 S    
C45   C46   1.525732 S    
N5    C80   1.453579 S    
O12   Ba2   2.889096 S    
P5    O17   1.754155 S    
C62   C63   1.409388 A    
C31   N5    1.428794 S    
C40   H49   1.083108 S    
C66   H54   1.085508 S    
C17   C18   1.408642 A    
C1    H2    1.110087 S    
C76   H60   1.076941 S    
C7    H14   1.110702 S    
C11   H23   1.106967 S    
N5    H70   1.028481 S    
O17   Ba2   2.733805 S    
O16   P7    1.746586 S    
C80   H73   1.109653 S    
C22   C28   1.378588 A    
C55   H65   1.085010 S    
C64   N2    1.386595 Am   
C8    H17   1.109223 S    
Ba1   O13   2.787105 S    
Ba2   O20   2.739018 S    
C40   C41   1.377949 A    
O6    C10   1.404272 S    
C9    H19   1.109343 S    
C35   C36   1.446708 A    
C79   H67   1.110286 S    
O2    Ba2   2.787677 S    
P6    C22   1.840449 S    
C13   C14   1.519794 S    
P1    C24   1.850981 S    
P3    C67   1.864247 S    
C56   C58   1.421782 A    
P4    O13   1.577960 S    
C74   H57   1.076711 S    
C50   C53   1.409000 A    
P5    O18   1.548221 D    
P1    O5    1.764668 S    
O3    Ba1   2.726692 S    
C12   H27   1.109551 S    
C66   C70   1.356242 D    
C2    C3    1.521664 S    
C59   C60   1.388607 A    
C8    C9    1.520831 S    
C13   H30   1.102652 S    
C30   H46   1.080774 S    
C50   C72   1.430218 A    
C16   H37   1.110916 S    
P7    O21   1.570021 D    
C77   H61   1.083521 S    
O16   Ba2   2.938966 S    
C4    H8    1.105027 S    
P4    O12   1.499201 D    
C57   C73   1.430198 A    
C27   C35   1.563305 S    
O1    Ba1   2.888451 S    
C1    H22   1.107107 S    
C6    C7    1.530720 S    
Ba1   O20   2.939872 S    
P2    O10   1.752176 S    
C79   H69   1.110056 S    
C58   C62   1.430466 A    
C14   H31   1.110672 S    
N2    C70   1.463065 S    
C32   H47   1.064344 S    
C71   C74   1.415210 A    
C1    H3    1.110597 S    
C69   C70   1.503122 S    
P4    O15   1.751156 S    
C45   C49   1.359133 D    
C19   C20   1.404342 A    
C33   C35   1.444957 A    
O2    Ba1   2.919974 S    
C14   H32   1.110896 S    
P4    Ba2   3.442732 S    
N2    C65   1.388045 Am   
Ba2   O21   2.810442 S    
C19   C25   1.430140 A    
P8    C20   1.838681 S    
P2    O7    1.514055 D    
C23   H42   1.073655 S    
C53   C75   1.401038 A    
C23   C24   1.421020 A    
C61   C65   1.408612 A    
P3    O8    1.744978 S    
P2    Ba1   3.400399 S    
C68   C69   1.331000 D    
C59   H56   1.076727 S    
C9    H20   1.110834 S    
C3    H7    1.110596 S    
C4    H9    1.109777 S    
C29   H45   1.075078 S    
C18   C26   1.382096 A    
C55   C68   1.322781 D    
C3    H28   1.110129 S    
C34   C38   1.425619 A    
C56   C59   1.413754 A    
C21   C27   1.424584 A    
O13   Ba2   2.920814 S    
C57   C58   1.420627 A    
C28   H44   1.081912 S    
C66   C67   1.508493 S    
C6    N4    1.455023 S    
C17   C25   1.424776 A    
C3    H6    1.106289 S    
N1    C49   1.453982 S    
Ba1   O16   2.739665 S    
C13   H29   1.105949 S    
P5    C46   1.862035 S    
C43   N1    1.383189 Am   
P8    O23   1.545852 D    
C41   C42   1.385200 A    
C21   C22   1.403556 A    
O8    Ba1   2.733192 S    
C47   C48   1.318883 D    
C71   C72   1.420417 A    
C50   C51   1.409580 A    
C46   C54   1.511670 S    
Ba1   Ba2   4.554798 S    
C6    H12   1.100371 S    
P7    C47   1.816238 S    
N1    C44   1.385209 Am   
C5    N3    1.460454 S    
N4    H66   1.029696 S    
C60   C61   1.399995 A    
C12   H25   1.109581 S    
C47   C54   1.315599 D    
P8    O24   1.745274 S    
C10   H21   1.105953 S    
C78   H63   1.076967 S    
C57   C76   1.416388 A    
C5    H11   1.109512 S    
C19   H40   1.080610 S    
N3    O30   1.300958 A    
C1    C10   1.520677 S    
O10   C8    1.399636 S    
C55   C67   1.503169 S    
C26   H43   1.082047 S    
P4    C18   1.831847 S    
C14   H33   1.110673 S    
C4    O15   1.400813 S    
N4    C79   1.449285 S    
C36   C39   1.419101 A    
C51   C52   1.398956 A    
C80   H71   1.103918 S    
P2    O20   1.533551 S    
C41   H50   1.082500 S    
C30   C31   1.386581 A    
O19   C13   1.402547 S    
C63   C64   1.418237 A    
C20   C26   1.379395 A    
P7    O22   1.740008 S    
C37   C42   1.415510 A    
P3    O9    1.545446 D    
C31   C32   1.406658 A    
C21   H41   1.078528 S    
C25   C38   1.556293 S    
C61   C62   1.406046 A    
C75   C78   1.394071 A    
C45   H58   1.085769 S    
P2    C68   1.833969 S    
C17   H39   1.080456 S    
C39   C40   1.388088 A    
C23   C27   1.430130 A    
H1    C10   1.111952 S    
O3    P6    1.738920 S    
C73   C78   1.415435 A    
C12   H26   1.105842 S    
C79   H68   1.111804 S    
C80   H72   1.111468 S    
