data_mof_unit_45874.cif
_audit_creation_date              2013-03-05T15:42:33-0500
_audit_creation_method            fapswitch 2.2
_symmetry_space_group_name_H-M    P1
_symmetry_Int_Tables_number       1
_space_group_crystal_system       triclinic
_cell_length_a                    10.860985
_cell_length_b                    10.948364
_cell_length_c                    9.69229
_cell_angle_alpha                 89.962978
_cell_angle_beta                  87.929569
_cell_angle_gamma                 90.200471
_cell_volume                      1151.7505848

loop_
_atom_site_label
_atom_site_type_symbol
_atom_site_description
_atom_site_fract_x
_atom_site_fract_y
_atom_site_fract_z
_atom_type_partial_charge
O1    O     O_R   0.500020 0.321960 0.617040 -0.555417
O2    O     O_R   0.499980 0.321920 0.382900 -0.598997
C1    C     C_R   0.503716 0.266100 0.498872 0.782999
O3    O     O_R   0.319670 0.500020 0.617100 -0.577222
O4    O     O_R   0.319630 0.499980 0.382950 -0.520135
C2    C     C_R   0.261534 0.505680 0.503750 0.831723
Cu1   Cu    Cu3+1 0.500020 0.500020 0.638630 1.029092
Cu2   Cu    Cu3+1 0.499980 0.499980 0.361370 1.086983
O5    O     O_R   0.500020 0.678080 0.617100 -0.588010
O6    O     O_R   0.499980 0.678040 0.382960 -0.522222
O7    O     O_R   0.680370 0.500020 0.617050 -0.595677
O8    O     O_R   0.680330 0.499980 0.382900 -0.545969
C3    C     C_R   0.494761 0.734510 0.500406 0.887735
C4    C     C_R   0.737171 0.492053 0.498107 0.869599
C5    C     C_R   0.102088 0.439555 0.760489 -0.098721
H1    H     H_    0.185426 0.482494 0.791962 0.239898
C6    C     C_R   0.034828 0.374367 0.863747 -0.090822
C7    C     C_R   0.918224 0.327259 0.833495 0.374688
C8    C     C_R   0.868010 0.356331 0.707205 -0.176160
H2    H     H_    0.777539 0.320947 0.687295 0.226569
C9    C     C_R   0.931189 0.431621 0.609044 0.010690
C10   C     C_R   0.055872 0.459881 0.627131 -0.006611
C11   C     C_R   0.125753 0.513818 0.513950 -0.201814
C12   C     C_R   0.062900 0.567431 0.403727 0.387506
H3    H     H_    0.888085 0.594567 0.314226 0.192801
C13   C     C_R   0.936871 0.549895 0.395562 -0.236498
C14   C     C_R   0.870933 0.483540 0.496357 -0.097192
C15   C     C_2   0.448179 0.939516 0.402138 0.090548
C16   C     C_2   0.474009 0.865150 0.507638 -0.207223
H4    H     H_    0.472310 0.903350 0.611449 0.163950
C17   C     C_2   0.426092 0.067736 0.437351 -0.276326
C18   C     C_2   0.518543 0.135622 0.489424 0.213510
C19   C     C_2   0.475567 0.404488 0.927197 0.097546
N1    N     N_2   0.498640 0.498660 0.846910 -0.292034
H5    H     H_    0.545553 0.570014 0.890327 0.208665
C20   C     C_2   0.505385 0.402699 0.076912 -0.020298
N2    N     N_2   0.498610 0.498630 0.153040 -0.258057
H6    H     H_    0.520103 0.315021 0.125565 0.173886
H7    H     H_    0.472487 0.578548 0.106478 0.243640
S1    S     S_3+6 0.132794 0.678024 0.291480 0.044298
O9    O     O_2   0.218986 0.755982 0.371481 -0.282905
O10   O     O_2   0.204515 0.616831 0.175746 -0.265072
O11   O     O_3   0.025529 0.768968 0.224330 -0.461836
H8    H     H_    0.999626 0.726701 0.139746 0.357112
S2    S     S_3+6 0.673635 0.083840 0.500135 0.027886
O12   O     O_2   0.693616 0.039766 0.644411 -0.241819
O13   O     O_2   0.702900 0.982446 0.399811 -0.243957
O14   O     O_3   0.770254 0.200507 0.463377 -0.559185
H9    H     H_    0.853872 0.166435 0.473229 0.392176
C21   C     C_2   0.415469 0.291806 0.879087 0.538281
H10   H     H_    0.441780 0.204167 0.921135 0.055355
O15   O     O_2   0.330136 0.295506 0.800975 -0.535540
C22   C     C_2   0.086792 0.358308 0.002707 0.473857
H11   H     H_    0.036702 0.309369 0.084005 0.150845
O16   O     O_2   0.187311 0.400409 0.029220 -0.534120
S3    S     S_3+6 0.828547 0.239858 0.954584 -0.003693
O17   O     O_2   0.797482 0.317561 0.078790 -0.327291
O18   O     O_2   0.711214 0.196364 0.892968 -0.282963
O19   O     O_3   0.910447 0.118193 0.003564 -0.495537
H12   H     H_    0.860816 0.080896 0.080418 0.410753
C23   C     C_2   0.448526 0.905853 0.253682 0.553751
H13   H     H_    0.379216 0.943936 0.188418 0.100136
O20   O     O_2   0.531287 0.845013 0.200416 -0.508659
C24   C     C_2   0.300131 0.118041 0.418303 0.387127
H14   H     H_    0.277866 0.211565 0.446176 0.070106
O21   O     O_2   0.218708 0.054125 0.372661 -0.465728

loop_
_geom_bond_atom_site_label_1
_geom_bond_atom_site_label_2
_geom_bond_distance
_ccdc_geom_bond_type
C5    H1    1.072600 S    
O4    Cu2   1.962387 S    
C21   O15   1.218486 D    
O11   H8    0.990767 S    
C5    C6    1.409689 A    
C16   H4    1.089440 S    
C4    C14   1.455588 S    
C18   S2    1.785726 S    
C1    C18   1.440735 S    
C22   O16   1.219550 D    
C8    H2    1.078879 S    
S3    O19   1.681930 S    
C7    S3    1.775143 S    
C11   C12   1.416522 A    
C15   C23   1.485442 S    
S1    O10   1.501794 D    
C6    C7    1.406514 A    
C9    C14   1.413409 A    
C5    C10   1.421075 A    
O19   H12   0.990571 S    
N2    H7    1.029665 S    
O1    Cu1   1.960799 S    
C22   H11   1.081839 S    
C24   H14   1.085028 S    
Cu1   O7    1.962385 S    
C12   C13   1.386640 A    
C13   C14   1.392812 A    
O4    C2    1.311431 A    
Cu2   O8    1.977345 S    
C20   N2    1.284744 D    
C23   O20   1.220362 D    
O3    Cu1   1.977345 S    
C12   S1    1.777098 S    
C2    C11   1.477458 S    
C9    C10   1.405189 A    
C15   C16   1.344784 D    
C8    C9    1.415398 A    
O8    C4    1.298289 A    
C19   N1    1.309361 D    
O2    C1    1.281076 A    
S1    O11   1.683528 S    
C23   H13   1.084847 S    
Cu1   N1    2.018269 S    
O3    C2    1.288336 A    
Cu2   N2    2.019851 S    
C20   H6    1.084120 S    
C6    C22   1.489544 S    
Cu1   Cu2   2.687300 S    
C19   C20   1.498283 S    
C7    C8    1.394974 A    
S3    O17   1.503586 D    
Cu2   O6    1.960798 S    
N1    H5    1.029614 S    
S2    O13   1.503461 D    
S2    O14   1.680076 S    
C3    C16   1.450073 S    
O7    C4    1.290864 A    
Cu1   O5    1.960468 S    
O5    C3    1.291584 A    
C10   C11   1.436668 A    
O14   H9    0.990783 S    
S1    O9    1.501264 D    
C19   C21   1.477348 S    
C21   H10   1.085454 S    
H3    C13   1.083009 S    
S2    O12   1.502381 D    
C17   C24   1.494119 S    
C15   C17   1.463467 S    
O2    Cu2   1.960469 S    
C17   C18   1.359133 D    
S3    O18   1.502833 D    
O1    C1    1.298131 A    
O6    C3    1.295271 A    
C24   O21   1.221373 D    
