data_mof_unit_43547.cif
_audit_creation_date              2012-12-10T17:51:31-0500
_audit_creation_method            fapswitch 2.2
_symmetry_space_group_name_H-M    P1
_symmetry_Int_Tables_number       1
_space_group_crystal_system       triclinic
_cell_length_a                    9.898149
_cell_length_b                    10.695061
_cell_length_c                    16.613826
_cell_angle_alpha                 91.74109
_cell_angle_beta                  85.296545
_cell_angle_gamma                 89.422168
_cell_volume                      1751.88975103

loop_
_atom_site_label
_atom_site_type_symbol
_atom_type_description
_atom_site_fract_x
_atom_site_fract_y
_atom_site_fract_z
_atom_type_partial_charge
C1    C     C_R   0.498817 0.740938 0.496718 0.874969
C2    C     C_R   0.528372 0.553834 0.265455 -0.102204
C3    C     C_R   0.241424 0.896532 0.495970 -0.173809
C4    C     C_R   0.481272 0.502601 0.653675 0.845456
C5    C     C_R   0.122869 0.957436 0.527647 -0.079031
C6    C     C_R   0.130389 0.069302 0.571681 -0.114200
C7    C     C_R   0.254957 0.126945 0.576082 -0.157051
C8    C     C_R   0.374839 0.068572 0.540374 0.092364
C9    C     C_R   0.370255 0.944898 0.511010 0.096593
C10   C     C_R   0.494600 0.876211 0.499524 -0.131993
C11   C     C_R   0.618296 0.935756 0.507495 -0.271389
C12   C     C_R   0.343711 0.550947 0.782804 -0.212041
C13   C     C_R   0.622164 0.062347 0.524289 -0.019203
C14   C     C_R   0.499327 0.130929 0.531852 -0.208228
C15   C     C_R   0.843725 0.662600 0.607398 -0.171693
C16   C     C_R   0.499332 0.262425 0.512514 0.914747
C17   C     C_R   0.906015 0.740497 0.661376 -0.212462
C18   C     C_R   0.045726 0.739095 0.661993 -0.198124
C19   C     C_R   0.123995 0.660654 0.608098 -0.176529
C20   C     C_R   0.064314 0.579472 0.553165 0.148627
C21   C     C_R   0.919657 0.579883 0.552983 0.169143
C22   C     C_R   0.936232 0.423196 0.449582 -0.095071
C23   C     C_R   0.437297 0.689893 0.168741 0.414648
C24   C     C_R   0.079434 0.423285 0.449563 -0.100976
C25   C     C_R   0.518518 0.507253 0.346985 0.898838
C26   C     C_R   0.470230 0.524377 0.740980 -0.033007
C27   C     C_R   0.588436 0.531530 0.781774 -0.190185
C28   C     C_R   0.580965 0.568658 0.862567 -0.154382
C29   C     C_R   0.455011 0.599949 0.903675 0.174126
C30   C     C_R   0.336310 0.588074 0.863971 -0.150687
C31   C     C_2   0.754973 0.119299 0.536545 0.923185
C32   C     C_R   0.426480 0.635379 0.243659 -0.244933
C33   C     C_R   0.645288 0.532481 0.213438 -0.177076
C34   C     C_R   0.655429 0.584925 0.137624 -0.203929
C35   C     C_R   0.549534 0.659797 0.113968 0.092234
C36   C     C_2   0.443791 0.631246 0.990173 -0.170306
C37   C     C_2   0.546032 0.680887 0.027935 -0.159145
Cl1   Cl    Cl    0.308488 0.794399 0.145202 -0.622572
H1    H     H_    0.687180 0.510253 0.751089 0.169358
H2    H     H_    0.845351 0.802839 0.702673 0.161586
H3    H     H_    0.339324 0.658710 0.285421 0.187459
H4    H     H_    0.094115 0.800644 0.703552 0.162217
H5    H     H_    0.230724 0.667636 0.610560 0.210249
H6    H     H_    0.139668 0.360542 0.408428 0.168664
H7    H     H_    0.726776 0.473174 0.230686 0.163138
H8    H     H_    0.638247 0.710605 0.994382 0.145360
H9    H     H_    0.238149 0.608613 0.895657 0.142105
H10   H     H_    0.251003 0.545863 0.752572 0.160955
H11   H     H_    0.353699 0.599160 0.025097 0.182579
H12   H     H_    0.742134 0.561121 0.095636 0.154497
H13   H     H_    0.673740 0.570109 0.892724 0.128200
H14   H     H_    0.857493 0.245759 0.599994 0.326747
H15   H     H_    0.713218 0.883422 0.502516 0.189615
H16   H     H_    0.228904 0.813714 0.458814 0.178777
H17   H     H_    0.025463 0.915964 0.519464 0.179687
H18   H     H_    0.039706 0.113305 0.600371 0.155218
H19   H     H_    0.257549 0.216042 0.608644 0.155728
H20   H     H_    0.888682 0.360396 0.408480 0.169143
H21   H     H_    0.736252 0.670375 0.610279 0.204597
N1    N     N_R   0.857140 0.501200 0.500750 -0.124583
N2    N     N_R   0.142740 0.501280 0.500770 -0.130943
O1    O     O_R   0.385310 0.683220 0.500000 -0.655191
O2    O     O_R   0.766372 0.203239 0.601850 -0.796656
O3    O     O_R   0.614640 0.683250 0.500010 -0.636378
O4    O     O_R   0.371780 0.500010 0.615800 -0.648880
O5    O     O_R   0.601110 0.500030 0.615800 -0.622179
O6    O     O_R   0.385360 0.316750 0.499990 -0.615030
O7    O     O_R   0.614690 0.316780 0.500000 -0.585819
O8    O     O_R   0.398890 0.499970 0.384200 -0.612854
O9    O     O_R   0.628220 0.499990 0.384200 -0.608435
O10   O     O_2   0.852987 0.095068 0.488824 -0.664393
Zn1   Zn    Zn3+2 0.346870 0.499980 0.499990 0.928474
Zn2   Zn    Zn3+2 0.653130 0.500020 0.500010 0.962282

loop_
_geom_bond_atom_site_label_1
_geom_bond_atom_site_label_2
_ccdc_geom_bond_type
C22   H20   S    
O8    Zn1   S    
C4    C26   S    
O3    Zn2   S    
C6    C7    A    
C3    C9    A    
O4    Zn1   S    
C33   H7    S    
C9    C10   A    
N1    Zn2   S    
C19   C20   A    
C11   H15   S    
C12   H10   S    
C23   C32   A    
O9    Zn2   S    
C31   O10   D    
C33   C34   A    
O7    Zn2   S    
O1    Zn1   S    
C7    C8    A    
C16   O6    A    
C13   C14   A    
C1    O1    A    
C4    O5    A    
C11   C13   A    
C29   C36   S    
C28   C29   A    
C26   C27   A    
C24   N2    A    
C27   H1    S    
C3    H16   S    
C34   C35   A    
C16   O7    A    
C5    C6    A    
C2    C33   A    
C36   C37   D    
C35   C37   S    
C19   H5    S    
C17   C18   A    
C2    C25   S    
C23   C35   A    
C18   H4    S    
C22   N1    A    
C4    O4    A    
C24   H6    S    
C28   H13   S    
C14   C16   S    
C34   H12   S    
C25   O8    A    
C7    H19   S    
C1    C10   S    
C32   H3    S    
C29   C30   A    
C20   N2    A    
C23   Cl1   S    
C1    O3    A    
C31   O2    S    
C30   H9    S    
C15   C21   A    
C20   C21   A    
N2    Zn1   S    
C21   N1    A    
C2    C32   A    
O6    Zn1   S    
C10   C11   A    
C22   C24   A    
C12   C26   A    
C27   C28   A    
C15   C17   A    
C13   C31   S    
H14   O2    S    
C18   C19   A    
C8    C14   A    
C25   O9    A    
C12   C30   A    
C37   H8    S    
O5    Zn2   S    
C15   H21   S    
C5    H17   S    
C36   H11   S    
C6    H18   S    
C8    C9    A    
C3    C5    A    
C17   H2    S    
