data_mof_unit_48914.cif
_audit_creation_date              2012-12-11T15:17:31-0500
_audit_creation_method            fapswitch 2.2
_symmetry_space_group_name_H-M    P1
_symmetry_Int_Tables_number       1
_space_group_crystal_system       triclinic
_cell_length_a                    15.755814
_cell_length_b                    15.755819
_cell_length_c                    34.581027
_cell_angle_alpha                 90.0
_cell_angle_beta                  89.999689
_cell_angle_gamma                 120.000407
_cell_volume                      7434.44522141

loop_
_atom_site_label
_atom_site_type_symbol
_atom_type_description
_atom_site_fract_x
_atom_site_fract_y
_atom_site_fract_z
_atom_type_partial_charge
C1    C     C_R   0.578422 0.441402 0.554898 0.555361
C2    C     C_R   0.490830 0.972320 0.213689 0.382735
C3    C     C_3   0.248188 0.909789 0.171342 -0.014611
C4    C     C_3   0.661639 0.751798 0.171334 -0.014627
C5    C     C_3   0.090172 0.338376 0.171339 -0.014612
C6    C     C_R   0.481501 0.509172 0.213689 0.382705
C7    C     C_R   0.027661 0.518494 0.213688 0.382708
C8    C     C_R   0.009384 0.434994 0.852606 0.426532
C9    C     C_R   0.565006 0.574392 0.852605 0.426539
C10   C     C_R   0.425635 0.990642 0.852609 0.426522
C11   C     C_R   0.429765 0.994584 0.355697 0.424691
C12   C     C_R   0.564820 0.570242 0.355699 0.424693
C13   C     C_R   0.005419 0.435181 0.355698 0.424694
C14   C     C_R   0.038783 0.446705 0.891215 0.389682
C15   C     C_R   0.558596 0.137019 0.554898 0.555366
C16   C     C_R   0.553295 0.592081 0.891214 0.389688
C17   C     C_R   0.407939 0.961233 0.891217 0.389686
C18   C     C_R   0.443849 0.030904 0.393347 0.385988
C19   C     C_R   0.587054 0.556155 0.393349 0.385990
C20   C     C_R   0.969100 0.412948 0.393348 0.385989
C21   C     C_R   0.083815 0.618067 0.888270 0.320746
C22   C     C_R   0.381936 0.465744 0.888271 0.320749
C23   C     C_R   0.534252 0.916180 0.888269 0.320743
C24   C     C_R   0.615327 0.076452 0.389827 0.321689
C25   C     C_R   0.461126 0.384676 0.389827 0.321687
C26   C     C_R   0.862981 0.421578 0.554898 0.555364
C27   C     C_R   0.923547 0.538873 0.389827 0.321687
C28   C     C_R   0.054694 0.606198 0.849714 -0.129466
C29   C     C_R   0.393804 0.448490 0.849715 -0.129462
C30   C     C_R   0.551511 0.945309 0.849714 -0.129450
C31   C     C_R   0.601115 0.040532 0.352216 -0.127028
C32   C     C_R   0.439420 0.398891 0.352216 -0.127028
C33   C     C_R   0.959466 0.560579 0.352215 -0.127030
C34   C     C_R   0.022069 0.516206 0.830874 -0.087882
C35   C     C_R   0.483795 0.505860 0.830874 -0.087883
C36   C     C_R   0.494159 0.977954 0.830876 -0.087887
C37   C     C_R   0.441264 0.578695 0.055043 0.553911
C38   C     C_R   0.509798 0.003985 0.334036 -0.085103
C39   C     C_R   0.494192 0.490210 0.334037 -0.085102
C40   C     C_R   0.996013 0.505808 0.334036 -0.085102
C41   C     C_R   0.081253 0.539601 0.908812 -0.040748
C42   C     C_R   0.460400 0.541652 0.908812 -0.040748
C43   C     C_R   0.458353 0.918749 0.908813 -0.040747
C44   C     C_R   0.537891 0.076856 0.410033 -0.041057
C45   C     C_R   0.538965 0.462111 0.410034 -0.041056
C46   C     C_R   0.923146 0.461036 0.410034 -0.041056
C47   C     C_R   0.577796 0.442102 0.445546 0.603658
C48   C     C_R   0.137430 0.558736 0.055043 0.553909
C49   C     C_R   0.557898 0.135694 0.445546 0.603654
C50   C     C_R   0.864307 0.422205 0.445546 0.603652
C51   C     C_R   0.441979 0.577998 0.945390 0.606052
C52   C     C_R   0.136020 0.558021 0.945390 0.606047
C53   C     C_R   0.422002 0.863980 0.945390 0.606052
C54   C     C_R   0.919691 0.457062 0.590902 -0.084474
C55   C     C_R   0.542934 0.462625 0.590902 -0.084489
C56   C     C_R   0.537365 0.080313 0.590904 -0.084468
C57   C     C_R   0.452890 0.913305 0.092419 -0.071417
C58   C     C_R   0.460414 0.547107 0.092419 -0.071417
C59   C     C_R   0.421305 0.862568 0.055043 0.553911
C60   C     C_R   0.086689 0.539582 0.092418 -0.071418
C61   C     C_R   0.958052 0.403393 0.608549 -0.108324
C62   C     C_R   0.596591 0.554660 0.608548 -0.108259
C63   C     C_R   0.445348 0.042008 0.608560 -0.108345
C64   C     C_R   0.392680 0.941270 0.111818 -0.123770
C65   C     C_R   0.548597 0.607309 0.111814 -0.123766
C66   C     C_R   0.058712 0.451401 0.111814 -0.123763
C67   C     C_R   0.993333 0.424239 0.646441 0.224410
C68   C     C_R   0.575739 0.569094 0.646438 0.224425
C69   C     C_R   0.430920 0.006749 0.646455 0.224380
C70   C     C_R   0.999337 0.503839 0.710022 0.356094
C71   C     C_R   0.405415 0.963088 0.151416 0.218294
C72   C     C_R   0.557684 0.594574 0.151412 0.218300
C73   C     C_R   0.036888 0.442314 0.151412 0.218297
C74   C     C_R   0.986456 0.497339 0.667662 0.025163
C75   C     C_R   0.502650 0.489111 0.667661 0.025109
C76   C     C_R   0.510885 0.013579 0.667667 0.025180
C77   C     C_R   0.483517 0.962461 0.171251 0.056702
C78   C     C_R   0.478951 0.516482 0.171250 0.056697
C79   C     C_R   0.037522 0.521043 0.171249 0.056697
C80   C     C_R   0.957061 0.557310 0.648517 0.350394
C81   C     C_R   0.496153 0.495490 0.710022 0.356026
C82   C     C_R   0.442690 0.399740 0.648518 0.350408
C83   C     C_R   0.600229 0.042912 0.648515 0.350398
C84   C     C_R   0.549867 0.944326 0.150602 0.337744
C85   C     C_R   0.394457 0.450140 0.150603 0.337745
C86   C     C_R   0.055668 0.605534 0.150601 0.337740
C87   C     C_R   0.924397 0.537332 0.610406 -0.100050
C88   C     C_R   0.462671 0.387055 0.610408 -0.100049
C89   C     C_R   0.612913 0.075565 0.610403 -0.100051
C90   C     C_R   0.533985 0.919148 0.111613 -0.104381
C91   C     C_R   0.385158 0.466021 0.111614 -0.104380
C92   C     C_R   0.504518 0.000713 0.710026 0.356197
C93   C     C_R   0.080852 0.614835 0.111613 -0.104383
C94   C     C_R   0.009584 0.510525 0.788416 0.356976
C95   C     C_R   0.489474 0.499055 0.788416 0.356977
C96   C     C_R   0.500971 0.990450 0.788419 0.357002
C97   C     C_R   0.502013 0.986162 0.291930 0.364769
C98   C     C_R   0.484160 0.497998 0.291931 0.364761
C99   C     C_R   0.013831 0.515839 0.291930 0.364763
C100  C     C_3   0.128748 0.414538 0.659692 -0.061409
C101  C     C_3   0.585328 0.714137 0.659743 -0.061368
C102  C     C_3   0.285747 0.871412 0.659715 -0.061366
Cr1   Cr    Cr6+3 0.522350 0.263930 0.500020 1.146992
Cr2   Cr    Cr6+3 0.736070 0.258420 0.500020 1.147007
Cr3   Cr    Cr6+3 0.741580 0.477650 0.500020 1.147005
Cr4   Cr    Cr6+3 0.263930 0.522350 0.000020 1.142568
Cr5   Cr    Cr6+3 0.258420 0.736070 0.000020 1.142567
Cr6   Cr    Cr6+3 0.477650 0.741580 0.000020 1.142567
F1    F     F_    0.030369 0.367976 0.910677 -0.501584
F2    F     F_    0.625948 0.943484 0.168649 -0.621189
F3    F     F_    0.317528 0.374066 0.168652 -0.621199
F4    F     F_    0.056514 0.682459 0.168650 -0.621204
F5    F     F_    0.973291 0.345100 0.836269 -0.505898
F6    F     F_    0.654899 0.628196 0.836267 -0.505889
F7    F     F_    0.371834 0.026736 0.836273 -0.505902
F8    F     F_    0.338935 0.955884 0.339963 -0.516943
F9    F     F_    0.616946 0.661075 0.339968 -0.516946
F10   F     F_    0.044124 0.383055 0.339966 -0.516943
F11   F     F_    0.121343 0.708496 0.904287 -0.538888
F12   F     F_    0.632023 0.662400 0.910675 -0.501575
F13   F     F_    0.291508 0.412839 0.904289 -0.538881
F14   F     F_    0.587143 0.878638 0.904285 -0.538883
F15   F     F_    0.706825 0.117202 0.405104 -0.541705
F16   F     F_    0.410379 0.293177 0.405103 -0.541704
F17   F     F_    0.882795 0.589619 0.405103 -0.541707
F18   F     F_    0.337626 0.969649 0.910680 -0.501585
F19   F     F_    0.366197 0.025423 0.412660 -0.508453
F20   F     F_    0.659223 0.633806 0.412664 -0.508453
F21   F     F_    0.974585 0.340781 0.412663 -0.508456
F22   F     F_    0.951654 0.629974 0.667425 -0.569532
F23   F     F_    0.370036 0.321662 0.667427 -0.569498
F24   F     F_    0.678285 0.048278 0.667420 -0.569516
H1    H     H_    0.956794 0.342257 0.593670 0.182732
H2    H     H_    0.581994 0.898589 0.097109 0.165333
H3    H     H_    0.316584 0.418018 0.097113 0.165330
H4    H     H_    0.101419 0.683407 0.097111 0.165329
H5    H     H_    0.062772 0.669430 0.834121 0.222644
H6    H     H_    0.330573 0.393333 0.834122 0.222651
H7    H     H_    0.606664 0.937230 0.834121 0.222656
H8    H     H_    0.663442 0.046254 0.336669 0.219916
H9    H     H_    0.382817 0.336564 0.336668 0.219921
H10   H     H_    0.953741 0.617181 0.336667 0.219918
H11   H     H_    0.164603 0.486310 0.675014 0.103772
H12   H     H_    0.657719 0.614543 0.593667 0.182759
H13   H     H_    0.151128 0.424739 0.628726 0.115785
H14   H     H_    0.155433 0.368302 0.673161 0.208195
H15   H     H_    0.513608 0.678163 0.675106 0.103782
H16   H     H_    0.574997 0.726302 0.628789 0.115756
H17   H     H_    0.631558 0.787065 0.673208 0.208232
H18   H     H_    0.321632 0.835497 0.675016 0.103759
H19   H     H_    0.273505 0.849045 0.628748 0.115839
H20   H     H_    0.212856 0.844783 0.673204 0.208228
H21   H     H_    0.245343 0.840557 0.180473 0.161896
H22   H     H_    0.211780 0.899923 0.142868 0.137275
H23   H     H_    0.385482 0.043302 0.593687 0.182726
H24   H     H_    0.205646 0.925578 0.192835 0.208664
H25   H     H_    0.719980 0.794335 0.192824 0.208650
H26   H     H_    0.595262 0.754656 0.180469 0.161899
H27   H     H_    0.688176 0.788202 0.142859 0.137262
H28   H     H_    0.159398 0.404756 0.180480 0.161912
H29   H     H_    0.100059 0.311853 0.142864 0.137266
H30   H     H_    0.074366 0.280029 0.192827 0.208656
H31   H     H_    0.332478 0.941226 0.096711 0.163723
H32   H     H_    0.608758 0.667503 0.096705 0.163724
H33   H     H_    0.058751 0.391242 0.096706 0.163727
H34   H     H_    0.896194 0.580577 0.597184 0.180814
H35   H     H_    0.419435 0.315604 0.597187 0.180811
H36   H     H_    0.684349 0.103728 0.597174 0.180809
N1    N     N_R   0.984476 0.426214 0.769170 -0.085970
N2    N     N_R   0.408862 0.941254 0.235404 -0.181365
N3    N     N_R   0.532460 0.591132 0.235401 -0.181333
N4    N     N_R   0.058680 0.467551 0.235401 -0.181350
N5    N     N_R   0.024372 0.588265 0.729194 -0.127458
N6    N     N_R   0.411737 0.436080 0.729195 -0.127420
N7    N     N_R   0.563770 0.975479 0.729187 -0.127625
N8    N     N_R   0.578477 0.008717 0.231863 -0.106686
N9    N     N_R   0.430195 0.421538 0.231867 -0.106677
N10   N     N_R   0.991317 0.569787 0.231864 -0.106677
N11   N     N_R   0.029873 0.591641 0.767600 -0.203157
N12   N     N_R   0.573776 0.558279 0.769168 -0.085973
N13   N     N_R   0.408364 0.438206 0.767602 -0.203129
N14   N     N_R   0.561650 0.969971 0.767594 -0.203212
N15   N     N_R   0.583966 0.015891 0.270214 -0.202969
N16   N     N_R   0.431880 0.416052 0.270217 -0.202972
N17   N     N_R   0.984149 0.568104 0.270215 -0.202974
N18   N     N_R   0.441913 0.015764 0.769182 -0.085911
N19   N     N_R   0.414364 0.948502 0.273701 -0.095806
N20   N     N_R   0.534205 0.585634 0.273698 -0.095806
N21   N     N_R   0.051438 0.465806 0.273698 -0.095804
N22   N     N_R   0.978909 0.422797 0.730808 -0.127458
N23   N     N_R   0.577189 0.556127 0.730806 -0.127496
N24   N     N_R   0.444056 0.021337 0.730821 -0.127400
O1    O     O_R   0.498680 0.159540 0.541860 -0.507114
O2    O     O_R   0.358060 0.532760 0.040030 -0.511232
O3    O     O_R   0.174700 0.641940 0.040030 -0.511233
O4    O     O_R   0.467240 0.825300 0.040030 -0.511234
O5    O     O_R   0.498590 0.161190 0.456930 -0.418357
O6    O     O_R   0.838810 0.337400 0.456930 -0.418358
O7    O     O_R   0.662600 0.501410 0.456930 -0.418356
O8    O     O_R   0.161190 0.498590 0.956930 -0.417046
O9    O     O_R   0.337400 0.838810 0.956930 -0.417040
O10   O     O_R   0.501410 0.662600 0.956930 -0.417038
O11   O     O_R   0.532680 0.359580 0.461300 -0.445554
O12   O     O_R   0.840460 0.339140 0.541860 -0.507091
O13   O     O_R   0.640420 0.173100 0.461300 -0.445553
O14   O     O_R   0.826900 0.467320 0.461300 -0.445555
O15   O     O_R   0.359580 0.532680 0.961300 -0.443615
O16   O     O_R   0.173100 0.640420 0.961300 -0.443615
O17   O     O_R   0.467320 0.826900 0.961300 -0.443616
O18   O     O_3   0.666667 0.333333 0.499990 -0.311576
O19   O     O_3   0.333333 0.666667 0.999990 -0.314018
O20   O     O_3   0.025955 0.366442 0.663480 -0.504194
O21   O     O_3   0.633524 0.659522 0.663472 -0.504187
O22   O     O_3   0.340527 0.974200 0.663507 -0.504212
O23   O     O_R   0.660860 0.501320 0.541860 -0.507090
O24   O     O_3   0.345039 0.989822 0.170581 -0.530577
O25   O     O_3   0.644804 0.654941 0.170573 -0.530567
O26   O     O_3   0.010141 0.355196 0.170573 -0.530570
O27   O     O_R   0.159540 0.498680 0.041860 -0.512025
O28   O     O_R   0.339140 0.840460 0.041860 -0.512022
O29   O     O_R   0.501320 0.660860 0.041860 -0.512025
O30   O     O_R   0.532760 0.358060 0.540030 -0.508981
O31   O     O_R   0.641940 0.174700 0.540030 -0.508965
O32   O     O_R   0.825300 0.467240 0.540030 -0.508978

loop_
_geom_bond_atom_site_label_1
_geom_bond_atom_site_label_2
_ccdc_geom_bond_type
C44   C49   S    
N8    N15   A    
C11   C18   A    
Cr3   O23   S    
C22   C29   A    
C25   C45   A    
C14   F1    S    
C86   F4    S    
Cr2   O18   S    
C20   F21   S    
C93   H4    S    
C40   C99   S    
Cr5   O3    S    
Cr6   O17   S    
C50   O6    A    
C61   H1    S    
Cr3   O14   S    
C101  H16   S    
C49   O5    A    
C27   C33   A    
C68   C75   A    
C72   O25   S    
C37   O29   A    
C70   N22   A    
N3    N20   A    
C57   C64   A    
C9    F6    S    
Cr2   O12   S    
Cr4   O8    S    
C9    C16   A    
C42   C51   S    
Cr5   O9    S    
C80   C87   A    
C18   C44   A    
C59   O28   A    
C64   H31   S    
Cr1   O30   S    
C54   C87   A    
C90   H2    S    
C81   N6    A    
C51   O15   A    
C17   F18   S    
C6    C78   S    
C4    H27   S    
Cr5   O19   S    
N5    N11   A    
C10   C17   A    
C71   O24   S    
C55   C62   A    
C19   F20   S    
C3    H21   S    
C23   C43   A    
N6    N13   A    
C69   C76   A    
Cr1   O5    S    
C64   C71   A    
C55   C88   A    
C36   C96   S    
C81   N23   A    
C13   C40   A    
Cr6   O10   S    
C2    N8    A    
N10   N17   A    
C102  O22   S    
N9    N16   A    
C4    H26   S    
C63   C69   A    
C100  H14   S    
N2    N19   A    
C1    O23   A    
C98   N20   A    
C31   H8    S    
C48   C60   S    
C52   O8    A    
Cr6   O4    S    
C58   C91   A    
C41   C52   S    
C37   C58   S    
C66   H33   S    
C51   O10   A    
C48   O3    A    
C102  H19   S    
C60   C93   A    
C5    H28   S    
C25   C32   A    
Cr4   O27   S    
C5    O26   S    
C28   C34   A    
C74   C80   A    
C7    N4    A    
C15   O1    A    
C15   O31   A    
C47   O7    A    
C84   C90   A    
N1    N22   A    
C38   C97   S    
C26   C54   S    
C76   C83   A    
C15   C56   S    
C70   N5    A    
C43   C53   S    
C97   N15   A    
C23   F14   S    
C6    N3    A    
C45   C47   S    
C92   N7    A    
C85   C91   A    
C83   C89   A    
C33   C40   A    
C80   F22   S    
C57   C90   A    
C49   O13   A    
C9    C35   A    
C23   C30   A    
C13   F10   S    
Cr4   O2    S    
C62   H12   S    
Cr4   O15   S    
C99   N21   A    
C75   C81   S    
C39   C98   S    
C77   C84   A    
C3    O24   S    
C66   C73   A    
C100  O20   S    
C24   F15   S    
C84   F2    S    
Cr3   O18   S    
C12   F9    S    
C7    N10   A    
C1    O30   A    
C5    H29   S    
C11   C38   A    
C26   O12   A    
C30   C36   A    
C17   C43   A    
C89   H36   S    
C70   C74   S    
C29   H6    S    
C86   C93   A    
C96   N18   A    
C18   F19   S    
C61   C67   A    
C58   C65   A    
C4    H25   S    
C100  H13   S    
C88   H35   S    
Cr5   O16   S    
C56   C63   A    
C47   O11   A    
C67   O20   S    
C67   C74   A    
C8    C34   A    
Cr2   O13   S    
C68   O21   S    
C32   H9    S    
C52   O16   A    
C8    F5    S    
C102  H18   S    
N7    N14   A    
C21   C41   A    
C50   O14   A    
C78   C85   A    
C53   O17   A    
C56   C89   A    
C21   C28   A    
C76   C92   S    
C14   C41   A    
C6    N9    A    
C26   O32   A    
C24   C44   A    
C65   H32   S    
Cr3   O32   S    
C16   C42   A    
C71   C77   A    
Cr6   O19   S    
C27   C46   A    
C22   F13   S    
C7    C79   S    
C97   N19   A    
C29   C35   A    
C101  H15   S    
C8    C14   A    
C30   H7    S    
Cr2   O31   S    
C13   C20   A    
C2    N2    A    
Cr2   O6    S    
C95   N13   A    
C69   O22   S    
C34   C94   S    
C96   N14   A    
C85   F3    S    
C100  H11   S    
C73   C79   A    
C19   C45   A    
C75   C82   A    
C54   C61   A    
C35   C95   S    
C59   O4    A    
C65   C72   A    
N12   N23   A    
C46   C50   S    
C31   C38   A    
C62   C68   A    
N4    N21   A    
C5    H30   S    
C12   C39   A    
C16   F12   S    
C1    C55   S    
C24   C31   A    
C63   H23   S    
C83   F24   S    
C94   N1    A    
C2    C77   S    
C11   F8    S    
C37   O2    A    
C33   H10   S    
Cr6   O29   S    
C27   F17   S    
C22   C42   A    
C101  O21   S    
C82   C88   A    
Cr4   O19   S    
C12   C19   A    
C101  H17   S    
C3    H24   S    
C99   N17   A    
C73   O26   S    
C94   N11   A    
C3    H22   S    
N18   N24   A    
C25   F16   S    
Cr1   O11   S    
C57   C59   S    
C60   C66   A    
Cr5   O28   S    
C87   H34   S    
Cr1   O18   S    
C95   N12   A    
Cr3   O7    S    
C91   H3    S    
C21   F11   S    
C4    O25   S    
C28   H5    S    
C72   C78   A    
C32   C39   A    
C10   C36   A    
Cr1   O1    S    
C98   N16   A    
C82   F23   S    
C79   C86   A    
C20   C46   A    
C10   F7    S    
C92   N24   A    
C102  H20   S    
C48   O27   A    
C53   O9    A    
