data_mof_unit_53953.cif
_audit_creation_date              2012-12-10T17:40:57-0500
_audit_creation_method            fapswitch 2.2
_symmetry_space_group_name_H-M    P1
_symmetry_Int_Tables_number       1
_space_group_crystal_system       triclinic
_cell_length_a                    14.91833
_cell_length_b                    15.343313
_cell_length_c                    9.882028
_cell_angle_alpha                 90.209259
_cell_angle_beta                  89.694073
_cell_angle_gamma                 89.715667
_cell_volume                      2261.88727379

loop_
_atom_site_label
_atom_site_type_symbol
_atom_type_description
_atom_site_fract_x
_atom_site_fract_y
_atom_site_fract_z
_atom_type_partial_charge
C1    C     C_R   0.385313 0.875104 0.500880 0.883889
C2    C     C_R   0.384259 0.124317 0.501557 0.875321
C3    C     C_R   0.884836 0.375352 0.501135 0.858865
C4    C     C_R   0.881257 0.620828 0.500338 0.856496
C5    C     C_R   0.285919 0.222319 0.382769 -0.187900
C6    C     C_R   0.284048 0.779416 0.382281 -0.184409
C7    C     C_R   0.735965 0.674066 0.442149 -0.184901
C8    C     C_R   0.786486 0.276870 0.382442 -0.190650
C9    C     C_R   0.671946 0.738388 0.441217 -0.191238
C10   C     C_R   0.714899 0.221561 0.381463 -0.192441
C11   C     C_R   0.213447 0.276905 0.380538 -0.184120
C12   C     C_R   0.212443 0.724174 0.382532 -0.185700
C13   C     C_R   0.691043 0.819094 0.498463 -0.071929
C14   C     C_R   0.673884 0.198354 0.503346 -0.114989
C15   C     C_R   0.170427 0.299058 0.501586 -0.122961
C16   C     C_R   0.175087 0.697591 0.505313 -0.119557
C17   C     C_R   0.336012 0.998779 0.141434 -0.197201
C18   C     C_R   0.836041 0.499974 0.141502 -0.220505
C19   C     C_R   0.255343 0.997334 0.071585 -0.232692
C20   C     C_R   0.755349 0.499732 0.071706 -0.255465
C21   C     C_R   0.255387 0.997230 0.931545 0.680379
C22   C     C_R   0.755371 0.500167 0.931655 0.661950
C23   C     C_R   0.336159 0.998700 0.860714 -0.245244
C24   C     C_R   0.836152 0.500760 0.860762 -0.241678
C25   C     C_R   0.419209 0.999352 0.928180 0.068393
C26   C     C_R   0.919214 0.500459 0.928206 0.055370
C27   C     C_R   0.419211 0.999355 0.072917 0.219952
C28   C     C_R   0.919221 0.500232 0.072942 0.200783
C29   C     C_R   0.577247 0.000563 0.071305 -0.155911
C30   C     C_R   0.077265 0.499032 0.071274 -0.172711
C31   C     C_R   0.613872 0.125401 0.500619 0.857522
C32   C     C_R   0.620964 0.881408 0.499549 0.864888
C33   C     C_R   0.114448 0.625059 0.501017 0.872280
C34   C     C_R   0.112536 0.373775 0.500096 0.885545
C35   C     C_R   0.577511 0.000482 0.927558 0.167679
C36   C     C_R   0.077533 0.498784 0.927504 0.150489
C37   C     C_R   0.320776 0.211597 0.760217 -0.259092
C38   C     C_R   0.338480 0.777143 0.753749 -0.251700
C39   C     C_R   0.927294 0.791792 0.605179 -0.306563
C40   C     C_R   0.829412 0.283363 0.757645 -0.258684
C41   C     C_R   0.270579 0.223094 0.878540 0.649310
C42   C     C_R   0.295081 0.762443 0.876718 0.653678
C43   C     C_R   0.947207 0.874571 0.655264 0.708870
C44   C     C_R   0.782173 0.270696 0.878079 0.657685
C45   C     C_R   0.882157 0.939947 0.654113 -0.219428
C46   C     C_R   0.692074 0.248469 0.873899 -0.218285
C47   C     C_R   0.180352 0.245236 0.870409 -0.204494
C48   C     C_R   0.205178 0.739572 0.877818 -0.218643
C49   C     C_R   0.797147 0.922768 0.602735 -0.296220
C50   C     C_R   0.652205 0.230076 0.749883 -0.219322
C51   C     C_R   0.143199 0.264703 0.744980 -0.216703
C52   C     C_R   0.161670 0.722814 0.756068 -0.154346
C53   C     C_R   0.775634 0.838847 0.553186 0.099851
C54   C     C_R   0.702546 0.234360 0.627901 0.098192
C55   C     C_R   0.196377 0.261289 0.625719 0.103383
C56   C     C_R   0.207740 0.730128 0.630443 0.121559
C57   C     C_R   0.280602 0.221724 0.631154 0.038053
C58   C     C_R   0.291446 0.770403 0.629619 0.030697
C59   C     C_R   0.841148 0.772929 0.554375 0.020332
C60   C     C_R   0.786358 0.274345 0.630564 0.030605
C61   C     C_R   0.319885 0.194044 0.506591 -0.103116
C62   C     C_R   0.323336 0.803718 0.504586 -0.095941
C63   C     C_R   0.818849 0.690603 0.500491 -0.046873
C64   C     C_R   0.822219 0.304380 0.505621 -0.098871
H1    H     H_    0.315770 0.203031 0.286968 0.224504
H2    H     H_    0.308465 0.803036 0.285728 0.216502
H3    H     H_    0.720500 0.610725 0.399371 0.142008
H4    H     H_    0.813967 0.297724 0.286207 0.225332
H5    H     H_    0.330686 0.999902 0.753523 0.228921
H6    H     H_    0.830696 0.500824 0.753544 0.227090
H7    H     H_    0.391280 0.197557 0.772203 0.182553
H8    H     H_    0.409081 0.792317 0.757504 0.194544
H9    H     H_    0.979961 0.743411 0.604433 0.146756
H10   H     H_    0.899886 0.298022 0.766078 0.180211
H11   H     H_    0.897791 0.004438 0.691730 0.179720
H12   H     H_    0.653787 0.242635 0.966781 0.164993
H13   H     H_    0.139976 0.250564 0.961455 0.168994
H14   H     H_    0.169800 0.731995 0.972978 0.158133
H15   H     H_    0.749285 0.975912 0.600358 0.187270
H16   H     H_    0.581806 0.213635 0.750760 0.183678
H17   H     H_    0.072921 0.282245 0.742284 0.176041
H18   H     H_    0.091648 0.705970 0.762612 0.187805
H19   H     H_    0.606729 0.724859 0.398159 0.156819
H20   H     H_    0.692327 0.196496 0.284859 0.185178
H21   H     H_    0.192534 0.303129 0.283957 0.187726
H22   H     H_    0.186787 0.701987 0.286023 0.179133
H23   H     H_    0.640086 0.000975 0.125520 0.150978
H24   H     H_    0.140109 0.498222 0.125471 0.154041
H25   H     H_    0.330162 0.999625 0.248698 0.219671
H26   H     H_    0.830221 0.499779 0.248754 0.219372
H27   H     H_    0.192444 0.996726 0.126750 0.176945
H28   H     H_    0.692464 0.499210 0.126928 0.176041
N1    N     N_R   0.498810 1.000000 0.142780 -0.118157
N2    N     N_R   0.998810 0.500000 0.142780 -0.115783
N3    N     N_R   0.498740 1.000000 0.857170 -0.111426
N4    N     N_R   0.998740 0.500000 0.857170 -0.110754
O1    O     O_R   0.408390 0.908380 0.614690 -0.643642
O2    O     O_R   0.408390 0.091620 0.614690 -0.653818
O3    O     O_R   0.908390 0.408380 0.614690 -0.654523
O4    O     O_R   0.908390 0.591620 0.614690 -0.638080
O5    O     O_R   0.408370 0.908380 0.385360 -0.633581
O6    O     O_R   0.408370 0.091620 0.385360 -0.634222
O7    O     O_R   0.908370 0.408380 0.385360 -0.633208
O8    O     O_R   0.908370 0.591620 0.385360 -0.634892
O9    O     O_R   0.591620 0.091610 0.614640 -0.619060
O10   O     O_R   0.591620 0.908390 0.614640 -0.597083
O11   O     O_R   0.091620 0.591610 0.614640 -0.614036
O12   O     O_R   0.091620 0.408390 0.614640 -0.604326
O13   O     O_R   0.591610 0.091610 0.385310 -0.620529
O14   O     O_R   0.591610 0.908390 0.385310 -0.609457
O15   O     O_R   0.091610 0.591610 0.385310 -0.613136
O16   O     O_R   0.091610 0.408390 0.385310 -0.615688
Zn1   Zn    Zn3+2 0.500010 1.000000 0.653130 0.949289
Zn2   Zn    Zn3+2 0.000010 0.500000 0.653130 0.945640
Zn3   Zn    Zn3+2 0.499980 1.000000 0.346870 0.962341
Zn4   Zn    Zn3+2 0.999980 0.500000 0.346870 0.954362
F1    F     F_    0.176664 0.996527 0.863558 -0.619476
F2    F     F_    0.676625 0.499609 0.863706 -0.660543
N5    N     N_3   0.660642 0.000337 0.855212 -0.396687
H29   H     H_    0.696566 0.944639 0.883286 0.184695
H30   H     H_    0.697334 0.054646 0.886239 0.172027
N6    N     N_3   0.160658 0.496669 0.855084 -0.381679
H31   H     H_    0.195354 0.440378 0.883640 0.181161
H32   H     H_    0.198584 0.550145 0.886050 0.173879
F3    F     F_    0.309149 0.210753 0.000967 -0.704864
F4    F     F_    0.339662 0.772975 0.994844 -0.691103
F5    F     F_    0.030248 0.891732 0.703315 -0.627262
F6    F     F_    0.823293 0.282514 0.998759 -0.698867

loop_
_geom_bond_atom_site_label_1
_geom_bond_atom_site_label_2
_ccdc_geom_bond_type
C58   C62   A    
C18   C28   A    
C40   C60   A    
C34   O16   A    
C23   H5    S    
C13   C32   S    
C35   N5    S    
C33   O11   A    
C14   C31   S    
C1    C62   S    
O3    Zn2   S    
C46   H12   S    
C53   C59   A    
C24   H6    S    
C54   C60   A    
C3    C64   S    
C20   H28   S    
C4    C63   S    
C50   C54   A    
C6    H2    S    
C32   O14   A    
C17   H25   S    
O9    Zn1   S    
C19   C21   A    
C24   C26   A    
C5    C11   A    
O13   Zn3   S    
C6    C12   A    
C2    O6    A    
C48   H14   S    
C28   N2    A    
N1    Zn3   S    
O12   Zn2   S    
C9    C13   A    
C21   F1    S    
O6    Zn3   S    
O8    Zn4   S    
C11   C15   A    
C12   C16   A    
O1    Zn1   S    
C56   C58   A    
C40   C44   A    
O15   Zn4   S    
C33   O15   A    
C51   H17   S    
C15   C34   S    
C18   C20   A    
C2    C61   S    
C23   C25   A    
C32   O10   A    
C31   O9    A    
N4    Zn2   S    
N3    Zn1   S    
C41   C47   A    
C44   C46   A    
C13   C53   A    
N5    H30   S    
C21   C23   A    
C26   N4    A    
C38   H8    S    
O14   Zn3   S    
O10   Zn1   S    
C18   H26   S    
C41   F3    S    
O4    Zn2   S    
C5    H1    S    
C10   C14   A    
C43   F5    S    
N2    Zn4   S    
O2    Zn1   S    
C39   C43   A    
C49   H15   S    
C17   C27   A    
C36   N6    S    
C30   C36   A    
C16   C56   A    
O11   Zn2   S    
C3    O3    A    
C16   C33   S    
C36   N4    A    
C45   C49   A    
C39   C59   A    
C31   O13   A    
C5    C61   A    
C42   C48   A    
C52   H18   S    
C43   C45   A    
C7    C63   A    
C45   H11   S    
C8    C64   A    
C14   C54   A    
C9    H19   S    
C25   N3    A    
C55   C57   A    
O5    Zn3   S    
C22   C24   A    
C27   N1    A    
C47   H13   S    
C1    O1    A    
C1    O5    A    
O16   Zn4   S    
N6    H32   S    
C3    O7    A    
C22   F2    S    
C46   C50   A    
C44   F6    S    
C59   C63   A    
C20   C22   A    
C50   H16   S    
C47   C51   A    
N5    H29   S    
C57   C61   A    
C35   N3    A    
C25   C27   A    
C29   C35   A    
C26   C28   A    
C4    O4    A    
C12   H22   S    
C60   C64   A    
C34   O12   A    
C6    C62   A    
C8    H4    S    
C37   H7    S    
O7    Zn4   S    
C30   N2    A    
C29   N1    A    
C11   H21   S    
C49   C53   A    
C4    O8    A    
C10   H20   S    
C17   C19   A    
C40   H10   S    
C51   C55   A    
C39   H9    S    
C37   C41   A    
C29   H23   S    
C19   H27   S    
C42   F4    S    
C7    H3    S    
C38   C42   A    
C7    C9    A    
C48   C52   A    
C2    O2    A    
C8    C10   A    
N6    H31   S    
C30   H24   S    
C38   C58   A    
C37   C57   A    
C52   C56   A    
C15   C55   A    
