data_mof_unit_18780.cif
_audit_creation_date              2012-12-11T14:00:05-0500
_audit_creation_method            fapswitch 2.2
_symmetry_space_group_name_H-M    P1
_symmetry_Int_Tables_number       1
_space_group_crystal_system       triclinic
_cell_length_a                    11.159534
_cell_length_b                    11.270286
_cell_length_c                    18.620728
_cell_angle_alpha                 90.422939
_cell_angle_beta                  89.617102
_cell_angle_gamma                 119.661294
_cell_volume                      2035.00732014

loop_
_atom_site_label
_atom_site_type_symbol
_atom_type_description
_atom_site_fract_x
_atom_site_fract_y
_atom_site_fract_z
_atom_type_partial_charge
C1    C     C_R   0.540362 0.481130 0.851041 0.547466
C2    C     C_R   0.445737 0.588007 0.357157 0.604266
C3    C     C_R   0.058069 0.519144 0.349676 0.581251
C4    C     C_R   0.457606 0.940582 0.349966 0.565858
C5    C     C_2   0.848657 0.413837 0.565233 0.230658
C6    C     C_2   0.480646 0.504119 0.586249 0.272708
C7    C     C_2   0.566142 0.107843 0.565646 0.253013
C8    C     C_2   0.479247 0.983837 0.422827 0.286796
C9    C     C_2   0.432993 0.586284 0.435042 0.283642
C10   C     C_2   0.985740 0.500487 0.417064 0.293710
C11   C     C_2   0.920517 0.375938 0.446653 -0.068347
C12   C     C_R   0.518694 0.059441 0.850971 0.569637
C13   C     C_2   0.545873 0.641500 0.476319 -0.024493
C14   C     C_2   0.514702 0.112250 0.439987 -0.084566
C15   C     C_2   0.508965 0.146422 0.515089 -0.050145
C16   C     C_2   0.544759 0.627055 0.554336 -0.006131
C17   C     C_2   0.909402 0.360891 0.524234 -0.013082
C18   C     C_2   0.921263 0.453452 0.935206 -0.104813
C19   C     C_2   0.483792 0.519108 0.911479 -0.102959
C20   C     C_2   0.481558 0.967403 0.911502 -0.100755
C21   C     C_2   0.452721 0.920278 0.064473 -0.104180
C22   C     C_2   0.467350 0.548437 0.064549 -0.111663
C23   C     C_R   0.873194 0.421290 0.861784 0.562446
C24   C     C_2   0.967308 0.481937 0.088189 -0.103167
C25   C     C_2   0.958057 0.575718 0.048576 -0.157060
C26   C     C_2   0.359141 0.460150 0.024943 -0.163795
C27   C     C_2   0.543754 0.903740 0.024275 -0.174090
C28   C     C_2   0.576688 0.958738 0.951086 -0.165158
C29   C     C_2   0.380554 0.425972 0.951555 -0.152517
C30   C     C_2   0.902553 0.542383 0.975409 -0.166017
C31   C     C_R   0.451912 0.579527 0.138463 0.540874
C32   C     C_R   0.059942 0.519074 0.148864 0.534291
C33   C     C_R   0.420758 0.872834 0.137953 0.541308
C34   C     C_R   0.538872 0.481548 0.650821 0.576872
C35   C     C_R   0.553168 0.133859 0.640745 0.564084
C36   C     C_R   0.858057 0.411974 0.643002 0.583852
Cl1   Cl    Cl    0.033007 0.653809 0.465875 -0.384111
Cl2   Cl    Cl    0.267377 0.531501 0.470680 -0.465018
Cl3   Cl    Cl    0.388745 0.848945 0.484349 -0.430553
Cl4   Cl    Cl    0.684989 0.049366 0.542588 -0.581459
Cl5   Cl    Cl    0.349331 0.353041 0.545754 -0.523963
Cl6   Cl    Cl    0.741263 0.470900 0.527812 -0.620957
Cr1   Cr    Cr6+3 0.464030 0.233680 0.750360 1.069842
Cr2   Cr    Cr6+3 0.766320 0.230350 0.750360 1.067386
Cr3   Cr    Cr6+3 0.769650 0.535970 0.750360 1.077551
Cr4   Cr    Cr6+3 0.233680 0.464030 0.249640 1.065334
Cr5   Cr    Cr6+3 0.230350 0.766320 0.249640 1.074884
Cr6   Cr    Cr6+3 0.535970 0.769650 0.249640 1.044012
H1    H     H_    0.906803 0.287639 0.416019 0.137857
H2    H     H_    0.682766 0.003160 0.932689 0.151320
H3    H     H_    0.319779 0.320716 0.933603 0.156234
H4    H     H_    0.855910 0.598453 0.952770 0.152843
H5    H     H_    0.916923 0.375689 0.071158 0.112314
H6    H     H_    0.571299 0.598810 0.042570 0.110304
H7    H     H_    0.399837 0.971403 0.043198 0.119201
H8    H     H_    0.374227 0.916872 0.928413 0.113543
H9    H     H_    0.539484 0.625572 0.928191 0.110201
H10   H     H_    0.974634 0.402747 0.956435 0.112605
H11   H     H_    0.647770 0.693355 0.451953 0.164039
H12   H     H_    0.539022 0.188878 0.398855 0.116887
H13   H     H_    0.452721 0.197467 0.529284 0.195667
H14   H     H_    0.628293 0.712640 0.582365 0.163524
H15   H     H_    0.961624 0.311181 0.548014 0.201332
H16   H     H_    0.002259 0.680749 0.066943 0.152923
H17   H     H_    0.256573 0.404537 0.048352 0.154394
H18   H     H_    0.602264 0.859712 0.047023 0.141950
O1    O     O_R   0.434100 0.092480 0.829780 -0.506157
O2    O     O_R   0.362730 0.477510 0.175360 -0.478034
O3    O     O_R   0.114780 0.637270 0.175360 -0.520132
O4    O     O_R   0.522490 0.885220 0.175360 -0.504687
O5    O     O_R   0.432250 0.092620 0.670380 -0.461192
O6    O     O_R   0.907380 0.339630 0.670380 -0.501256
O7    O     O_R   0.660370 0.567750 0.670380 -0.505523
O8    O     O_R   0.092620 0.432250 0.329620 -0.514067
O9    O     O_R   0.339630 0.907380 0.329620 -0.466444
O10   O     O_R   0.567750 0.660370 0.329620 -0.520560
O11   O     O_R   0.475790 0.362860 0.676880 -0.480783
O12   O     O_R   0.907520 0.341620 0.829780 -0.500764
O13   O     O_R   0.637140 0.112930 0.676880 -0.462396
O14   O     O_R   0.887070 0.524210 0.676880 -0.422531
O15   O     O_R   0.362860 0.475790 0.323120 -0.449688
O16   O     O_R   0.112930 0.637140 0.323120 -0.445499
O17   O     O_R   0.524210 0.887070 0.323120 -0.509500
O18   O     O_3   0.666667 0.333333 0.749450 -0.354745
O19   O     O_3   0.333333 0.666667 0.250550 -0.330407
O20   O     O_R   0.658380 0.565900 0.829780 -0.528778
O21   O     O_R   0.092480 0.434100 0.170220 -0.531601
O22   O     O_R   0.341620 0.907520 0.170220 -0.507690
O23   O     O_R   0.565900 0.658380 0.170220 -0.507981
O24   O     O_R   0.477510 0.362730 0.824640 -0.498660
O25   O     O_R   0.637270 0.114780 0.824640 -0.511821
O26   O     O_R   0.885220 0.522490 0.824640 -0.478982

loop_
_geom_bond_atom_site_label_1
_geom_bond_atom_site_label_2
_ccdc_geom_bond_type
C5    Cl6   S    
C1    O24   A    
Cr6   O10   S    
C12   O25   A    
C4    C8    S    
C22   H6    S    
C19   H9    S    
C10   Cl1   S    
Cr5   O19   S    
C33   O22   A    
C34   O11   A    
C5    C17   D    
C5    C36   S    
C1    O20   A    
Cr3   O7    S    
Cr5   O16   S    
Cr3   O26   S    
C3    O8    A    
C9    C13   D    
Cr5   O3    S    
C4    O9    A    
C28   H2    S    
C18   H10   S    
C31   O23   A    
C6    Cl5   S    
C8    C14   D    
C7    Cl4   S    
C18   C30   D    
C8    Cl3   S    
C23   O26   A    
C20   H8    S    
Cr4   O19   S    
C7    C15   D    
C21   C27   D    
C35   O5    A    
Cr1   O18   S    
C16   H14   S    
C31   O2    A    
C12   O1    A    
C1    C19   S    
Cr1   O24   S    
C22   C31   S    
C18   C23   S    
C24   C25   D    
C36   O14   A    
C21   H7    S    
C20   C28   D    
C24   H5    S    
C32   O21   A    
C6    C34   S    
C25   H16   S    
C24   C32   S    
Cr4   O2    S    
C11   H1    S    
Cr4   O15   S    
C12   C20   S    
C3    O16   A    
C15   H13   S    
Cr2   O25   S    
C33   O4    A    
Cr6   O23   S    
Cr3   O18   S    
C19   C29   D    
Cr4   O8    S    
C2    O10   A    
Cr4   O21   S    
C29   H3    S    
C25   C30   S    
C30   H4    S    
C11   C17   S    
Cr1   O5    S    
Cr6   O19   S    
C26   H17   S    
C7    C35   S    
Cr2   O13   S    
Cr6   O4    S    
Cr2   O18   S    
C32   O3    A    
C13   H11   S    
Cr1   O11   S    
C14   H12   S    
Cr6   O17   S    
Cr5   O22   S    
Cr2   O12   S    
Cr3   O20   S    
Cr5   O9    S    
C27   H18   S    
C17   H15   S    
C4    O17   A    
C35   O13   A    
C9    Cl2   S    
Cr2   O6    S    
Cr3   O14   S    
C23   O12   A    
C10   C11   D    
C34   O7    A    
C6    C16   D    
C21   C33   S    
C26   C29   S    
Cr1   O1    S    
C22   C26   D    
C13   C16   S    
C27   C28   S    
C3    C10   S    
C14   C15   S    
C2    O15   A    
C2    C9    S    
C36   O6    A    
