data_mof_unit_52896.cif
_audit_creation_date              2012-12-10T18:49:03-0500
_audit_creation_method            fapswitch 2.2
_symmetry_space_group_name_H-M    P1
_symmetry_Int_Tables_number       1
_space_group_crystal_system       triclinic
_cell_length_a                    10.558593
_cell_length_b                    9.960983
_cell_length_c                    14.107346
_cell_angle_alpha                 89.972541
_cell_angle_beta                  91.974256
_cell_angle_gamma                 89.931027
_cell_volume                      1482.84351511

loop_
_atom_site_label
_atom_site_type_symbol
_atom_type_description
_atom_site_fract_x
_atom_site_fract_y
_atom_site_fract_z
_atom_type_partial_charge
C1    C     C_R   0.260588 0.500060 0.512238 0.897370
C2    C     C_1   0.498925 0.499997 0.957311 -0.030162
C3    C     C_R   0.060045 0.377253 0.523423 -0.124590
C4    C     C_R   0.939972 0.622730 0.476625 -0.124649
C5    C     C_R   0.940299 0.376810 0.478534 -0.003189
C6    C     C_R   0.059712 0.623170 0.521524 -0.003161
C7    C     C_R   0.874644 0.499762 0.471189 -0.163777
C8    C     C_R   0.125372 0.500221 0.528849 -0.163632
C9    C     C_R   0.556759 0.071629 0.573330 -0.007886
C10   C     C_R   0.443220 0.928371 0.426679 -0.007922
C11   C     C_R   0.442824 0.071851 0.426820 0.005735
C12   C     C_R   0.739417 0.499937 0.487772 0.897359
C13   C     C_R   0.557170 0.928149 0.573182 0.005787
C14   C     C_2   0.111499 0.257799 0.576438 0.324728
C15   C     C_2   0.888509 0.742173 0.423606 0.324912
C16   C     C_2   0.894809 0.255933 0.424734 0.385635
C17   C     C_2   0.105201 0.744014 0.575363 0.385570
C18   C     C_R   0.619563 0.142294 0.654118 0.153569
C19   C     C_R   0.746766 0.180703 0.649576 -0.075972
C20   C     C_R   0.810307 0.235554 0.729033 -0.130628
C21   C     C_R   0.748492 0.247423 0.814617 -0.132385
C22   C     C_R   0.622908 0.205132 0.820624 -0.130211
C23   C     C_R   0.500351 0.500024 0.329429 0.903070
C24   C     C_R   0.557939 0.154376 0.740442 -0.144255
C25   C     C_R   0.380335 0.857704 0.345924 0.153666
C26   C     C_R   0.253110 0.819396 0.350513 -0.076179
C27   C     C_R   0.189484 0.764573 0.271083 -0.130650
C28   C     C_R   0.251239 0.752622 0.185481 -0.132346
C29   C     C_R   0.376845 0.794816 0.179425 -0.130252
C30   C     C_R   0.441892 0.845561 0.259578 -0.144179
C31   C     C_R   0.377180 0.142581 0.347111 0.171275
C32   C     C_R   0.248498 0.175400 0.352421 -0.121308
C33   C     C_R   0.182239 0.228916 0.273626 -0.145771
C34   C     C_R   0.499647 0.499976 0.670571 0.903075
C35   C     C_R   0.242880 0.245134 0.187914 -0.112194
C36   C     C_R   0.369863 0.208034 0.181012 -0.144738
C37   C     C_R   0.437364 0.158297 0.260481 -0.118470
C38   C     C_R   0.622810 0.857421 0.652894 0.171222
C39   C     C_R   0.562607 0.841674 0.739515 -0.118440
C40   C     C_R   0.630102 0.791949 0.818989 -0.144746
C41   C     C_R   0.757097 0.754887 0.812102 -0.112205
C42   C     C_R   0.817758 0.771135 0.726399 -0.145745
C43   C     C_R   0.751503 0.824643 0.647600 -0.121347
C44   C     C_1   0.502472 0.500043 0.228008 -0.158814
C45   C     C_1   0.497518 0.499958 0.771991 -0.158729
C46   C     C_1   0.502850 0.500015 0.142651 -0.027872
C47   C     C_1   0.497134 0.499986 0.857349 -0.027842
C48   C     C_1   0.501057 0.500004 0.042689 -0.030152
H1    H     H_    0.200546 0.264938 0.616778 0.114893
H2    H     H_    0.202959 0.834941 0.414903 0.161998
H3    H     H_    0.091657 0.733683 0.275296 0.161523
H4    H     H_    0.201508 0.711751 0.123668 0.134249
H5    H     H_    0.424161 0.787293 0.112793 0.136300
H6    H     H_    0.539414 0.877372 0.254161 0.118353
H7    H     H_    0.199020 0.156005 0.416628 0.148107
H8    H     H_    0.083227 0.255156 0.278337 0.148481
H9    H     H_    0.191128 0.284950 0.126578 0.132083
H10   H     H_    0.416221 0.218351 0.114174 0.137764
H11   H     H_    0.535823 0.130096 0.254319 0.141180
H12   H     H_    0.799572 0.734904 0.383102 0.114703
H13   H     H_    0.464137 0.869842 0.745665 0.141196
H14   H     H_    0.583728 0.781613 0.885821 0.137773
H15   H     H_    0.808844 0.715077 0.873442 0.132082
H16   H     H_    0.916781 0.744928 0.721699 0.148515
H17   H     H_    0.800993 0.844065 0.583404 0.148413
H18   H     H_    0.942651 0.160241 0.432228 0.151580
H19   H     H_    0.057393 0.839736 0.567885 0.151623
H20   H     H_    0.796967 0.165221 0.585199 0.162122
H21   H     H_    0.908113 0.266532 0.724854 0.161642
H22   H     H_    0.798158 0.288313 0.876450 0.134270
H23   H     H_    0.575542 0.212603 0.887240 0.136286
H24   H     H_    0.460428 0.122505 0.745819 0.118355
N1    N     N_R   0.500000 0.857200 0.500000 -0.108567
N2    N     N_R   0.500000 0.142800 0.500000 -0.108567
O1    O     O_R   0.316770 0.614620 0.499990 -0.569032
O2    O     O_2   0.947107 0.847350 0.419084 -0.632660
O3    O     O_2   0.808025 0.263923 0.365484 -0.584145
O4    O     O_2   0.191965 0.735959 0.634628 -0.584209
O5    O     O_R   0.683230 0.385380 0.500010 -0.569012
O6    O     O_R   0.683230 0.614620 0.500010 -0.645939
O7    O     O_R   0.316770 0.385380 0.499990 -0.646046
O8    O     O_R   0.500000 0.614690 0.373720 -0.611629
O9    O     O_R   0.500000 0.385310 0.626280 -0.611637
O10   O     O_R   0.500000 0.614690 0.626280 -0.571677
O11   O     O_R   0.500000 0.385310 0.373720 -0.571651
O12   O     O_2   0.052720 0.152775 0.581195 -0.632582
Zn1   Zn    Zn3+2 0.500000 0.653120 0.500000 0.967657
Zn2   Zn    Zn3+2 0.500000 0.346880 0.500000 0.967631

loop_
_geom_bond_atom_site_label_1
_geom_bond_atom_site_label_2
_ccdc_geom_bond_type
C23   O8    A    
C1    C8    S    
C41   C42   A    
C19   C20   A    
O10   Zn1   S    
C30   H6    S    
C26   C27   A    
C18   C24   A    
C36   C37   A    
C18   C19   A    
O6    Zn1   S    
C36   H10   S    
C26   H2    S    
C38   C39   A    
C10   N1    A    
C14   H1    S    
C1    O7    A    
O8    Zn1   S    
C12   O5    A    
C40   H14   S    
C16   O3    D    
C15   H12   S    
C9    C13   A    
N1    Zn1   S    
C5    C16   S    
C35   C36   A    
C44   C46   T    
C42   C43   A    
C32   H7    S    
C33   H8    S    
O9    Zn2   S    
C11   C31   S    
C21   C22   A    
C34   O10   A    
C4    C7    A    
O5    Zn2   S    
C27   H3    S    
C45   C47   T    
C7    C12   S    
C39   H13   S    
C46   C48   S    
C17   H19   S    
C1    O1    A    
C14   O12   D    
C4    C6    A    
C3    C8    A    
C39   C40   A    
C5    C7    A    
C6    C8    A    
C2    C48   T    
C25   C26   A    
C23   C44   S    
C31   C37   A    
C29   C30   A    
C31   C32   A    
C43   H17   S    
C19   H20   S    
C34   C45   S    
C13   C38   S    
C37   H11   S    
C3    C14   S    
C10   C25   S    
O1    Zn1   S    
C40   C41   A    
C13   N1    A    
C23   O11   A    
C22   C24   A    
C20   H21   S    
C16   H18   S    
C34   O9    A    
C41   H15   S    
C42   H16   S    
C22   H23   S    
C24   H24   S    
O11   Zn2   S    
C25   C30   A    
C6    C17   S    
C28   C29   A    
C3    C5    A    
C11   N2    A    
C2    C47   S    
C21   H22   S    
C35   H9    S    
C32   C33   A    
C4    C15   S    
C38   C43   A    
C28   H4    S    
C29   H5    S    
C12   O6    A    
C17   O4    D    
C33   C35   A    
C15   O2    D    
O7    Zn2   S    
C10   C11   A    
C9    C18   S    
C20   C21   A    
C9    N2    A    
C27   C28   A    
N2    Zn2   S    
