data_mof_unit_32332.cif
_audit_creation_date              2012-10-26T17:11:11-0400
_audit_creation_method            fapswitch 2.2
_symmetry_space_group_name_H-M    P1
_symmetry_Int_Tables_number       1
_space_group_crystal_system       triclinic
_cell_length_a                    27.93859
_cell_length_b                    18.797204
_cell_length_c                    16.890447
_cell_angle_alpha                 90.001665
_cell_angle_beta                  63.11828
_cell_angle_gamma                 90.019958
_cell_volume                      7911.80152685

loop_
_atom_site_label
_atom_site_type_symbol
_atom_type_description
_atom_site_fract_x
_atom_site_fract_y
_atom_site_fract_z
_atom_type_partial_charge
C1    C     C_R   0.293878 0.726271 0.330423 0.840448
C2    C     C_R   0.705228 0.272121 0.670060 0.831068
C3    C     C_R   0.706090 0.726332 0.669597 0.839917
C4    C     C_R   0.294812 0.272050 0.329894 0.831617
C5    C     C_R   0.793878 0.226271 0.330424 0.840449
C6    C     C_R   0.205228 0.772121 0.670060 0.831065
C7    C     C_R   0.206090 0.226332 0.669597 0.839918
C8    C     C_R   0.794812 0.772050 0.329894 0.831617
C9    C     C_R   0.536186 0.872080 0.541729 -0.332069
C10   C     C_R   0.462721 0.126362 0.460226 -0.290209
C11   C     C_R   0.464124 0.872096 0.457030 -0.331907
C12   C     C_R   0.538103 0.126369 0.537943 -0.290421
C13   C     C_R   0.036186 0.372080 0.541729 -0.332068
C14   C     C_R   0.962721 0.626362 0.460226 -0.290209
C15   C     C_R   0.964124 0.372096 0.457030 -0.331908
C16   C     C_R   0.038103 0.626369 0.537943 -0.290417
C17   C     C_R   0.221188 0.768610 0.952534 0.131625
C18   C     C_R   0.780976 0.234845 0.044692 0.132818
C19   C     C_R   0.778012 0.769877 0.048139 0.132154
C20   C     C_R   0.218424 0.235865 0.955745 0.132902
C21   C     C_R   0.721188 0.268610 0.952534 0.131625
C22   C     C_R   0.280976 0.734845 0.044692 0.132818
C23   C     C_R   0.278012 0.269877 0.048139 0.132155
C24   C     C_R   0.718424 0.735865 0.955745 0.132903
C25   C     C_R   0.242832 0.700287 0.946185 -0.185018
C26   C     C_R   0.759456 0.303266 0.050931 -0.180350
C27   C     C_R   0.756440 0.701497 0.054441 -0.184695
C28   C     C_R   0.239855 0.304361 0.949558 -0.180109
C29   C     C_R   0.742832 0.200287 0.946186 -0.185018
C30   C     C_R   0.259456 0.803267 0.050931 -0.180350
C31   C     C_R   0.256440 0.201497 0.054441 -0.184695
C32   C     C_R   0.739855 0.804361 0.949558 -0.180110
C33   C     C_R   0.272332 0.683569 0.991836 -0.180719
C34   C     C_R   0.729957 0.320028 0.005149 -0.180737
C35   C     C_R   0.727040 0.684658 0.008680 -0.180808
C36   C     C_R   0.269264 0.321251 0.995472 -0.180671
C37   C     C_R   0.772332 0.183569 0.991836 -0.180719
C38   C     C_R   0.229957 0.820028 0.005149 -0.180737
C39   C     C_R   0.227040 0.184658 0.008680 -0.180808
C40   C     C_R   0.769264 0.821251 0.995472 -0.180669
C41   C     C_R   0.144289 0.829058 0.942926 -0.289712
C42   C     C_R   0.856227 0.171958 0.056449 -0.281879
C43   C     C_R   0.855152 0.829991 0.057423 -0.289710
C44   C     C_R   0.143396 0.172591 0.943770 -0.282036
C45   C     C_R   0.644289 0.329058 0.942927 -0.289712
C46   C     C_R   0.356227 0.671958 0.056449 -0.281879
C47   C     C_R   0.355152 0.329991 0.057424 -0.289709
C48   C     C_R   0.643396 0.672591 0.943770 -0.282036
C49   C     C_R   0.117811 0.852318 0.894146 -0.155482
C50   C     C_R   0.879333 0.143135 0.107740 -0.154771
C51   C     C_R   0.882186 0.852279 0.105738 -0.156148
C52   C     C_R   0.120525 0.143375 0.892346 -0.154848
C53   C     C_R   0.617811 0.352317 0.894146 -0.155482
C54   C     C_R   0.379333 0.643135 0.107740 -0.154771
C55   C     C_R   0.382186 0.352279 0.105738 -0.156148
C56   C     C_R   0.620525 0.643375 0.892346 -0.154848
C57   C     C_R   0.136363 0.831103 0.805275 0.426012
C58   C     C_R   0.855705 0.156306 0.199390 0.439063
C59   C     C_R   0.864064 0.830212 0.194180 0.431808
C60   C     C_R   0.144269 0.156383 0.800655 0.438700
C61   C     C_R   0.636363 0.331103 0.805275 0.426009
C62   C     C_R   0.355705 0.656306 0.199390 0.439062
C63   C     C_R   0.364064 0.330212 0.194180 0.431808
C64   C     C_R   0.644269 0.656383 0.800655 0.438700
C65   C     C_R   0.182262 0.788115 0.765300 -0.156068
C66   C     C_R   0.814950 0.207407 0.236227 -0.153740
C67   C     C_R   0.817678 0.788132 0.234650 -0.159305
C68   C     C_R   0.184929 0.207642 0.763846 -0.153439
C69   C     C_R   0.682262 0.288115 0.765300 -0.156067
C70   C     C_R   0.314950 0.707407 0.236227 -0.153740
C71   C     C_R   0.317678 0.288132 0.234650 -0.159305
C72   C     C_R   0.684929 0.707642 0.763846 -0.153439
C73   C     C_R   0.208557 0.765413 0.814836 -0.283442
C74   C     C_R   0.791804 0.235732 0.184393 -0.278447
C75   C     C_R   0.790848 0.766389 0.185585 -0.284614
C76   C     C_R   0.207875 0.236338 0.815800 -0.278337
C77   C     C_R   0.708557 0.265413 0.814836 -0.283441
C78   C     C_R   0.291805 0.735732 0.184393 -0.278447
C79   C     C_R   0.290847 0.266389 0.185585 -0.284614
C80   C     C_R   0.707875 0.736337 0.815800 -0.278338
C81   C     C_R   0.190330 0.786743 0.903295 0.082162
C82   C     C_R   0.810685 0.215342 0.095374 0.080400
C83   C     C_R   0.808966 0.787919 0.097224 0.081946
C84   C     C_R   0.188862 0.216146 0.904912 0.080430
C85   C     C_R   0.690330 0.286743 0.903295 0.082162
C86   C     C_R   0.310685 0.715342 0.095374 0.080400
C87   C     C_R   0.308966 0.287919 0.097224 0.081946
C88   C     C_R   0.688862 0.716146 0.904912 0.080430
C89   C     C_R   0.196833 0.631425 0.526420 0.805387
C90   C     C_R   0.803416 0.368144 0.472463 0.839952
C91   C     C_R   0.803230 0.631452 0.473394 0.810289
C92   C     C_R   0.196613 0.368129 0.527469 0.838940
C93   C     C_R   0.696833 0.131425 0.526420 0.805392
C94   C     C_R   0.303416 0.868144 0.472463 0.839952
C95   C     C_R   0.303230 0.131452 0.473394 0.810289
C96   C     C_R   0.696613 0.868129 0.527469 0.838941
C97   C     C_R   0.926440 0.903410 0.066638 0.809189
C98   C     C_R   0.074589 0.095019 0.932544 0.826018
C99   C     C_R   0.073633 0.903531 0.933288 0.808232
C100  C     C_R   0.925372 0.094957 0.067486 0.825683
C101  C     C_R   0.426440 0.403410 0.066638 0.809189
C102  C     C_R   0.574588 0.595019 0.932544 0.826018
C103  C     C_R   0.573633 0.403531 0.933288 0.808232
C104  C     C_R   0.425372 0.594957 0.067485 0.825683
C105  C     C_R   0.044405 0.498921 0.518848 0.014440
C106  C     C_R   0.956211 0.498971 0.479513 0.015967
C107  C     C_R   0.544406 0.998921 0.518848 0.014438
C108  C     C_R   0.456211 0.998971 0.479513 0.015967
C109  C     C_R   0.021728 0.564094 0.510921 0.009077
C110  C     C_R   0.979319 0.434128 0.486340 0.034899
C111  C     C_R   0.979137 0.564092 0.487029 0.009918
C112  C     C_R   0.021194 0.434104 0.512114 0.034550
C113  C     C_R   0.521728 0.064094 0.510920 0.009078
C114  C     C_R   0.479319 0.934129 0.486340 0.034899
C115  C     C_R   0.479137 0.064092 0.487029 0.009919
C116  C     C_R   0.521194 0.934104 0.512113 0.034550
C117  C     C_R   0.111822 0.433908 0.546204 0.002450
C118  C     C_R   0.887463 0.563828 0.456046 -0.030269
C119  C     C_R   0.888415 0.433991 0.452997 0.002444
C120  C     C_R   0.112845 0.563668 0.543227 -0.027100
C121  C     C_R   0.611823 0.933907 0.546204 0.002449
C122  C     C_R   0.387463 0.063827 0.456046 -0.030269
C123  C     C_R   0.388415 0.933991 0.452997 0.002444
C124  C     C_R   0.612845 0.063668 0.543226 -0.027097
C125  C     C_R   0.164280 0.434178 0.541950 -0.091872
C126  C     C_R   0.835326 0.564627 0.459576 -0.101183
C127  C     C_R   0.835845 0.434233 0.457699 -0.092495
C128  C     C_R   0.164882 0.564517 0.539918 -0.109482
C129  C     C_R   0.664280 0.934178 0.541950 -0.091872
C130  C     C_R   0.335326 0.064628 0.459576 -0.101183
C131  C     C_R   0.335845 0.934234 0.457699 -0.092495
C132  C     C_R   0.664882 0.064517 0.539918 -0.109487
C133  C     C_R   0.189727 0.499436 0.538088 -0.296572
C134  C     C_R   0.810431 0.499502 0.461587 -0.297420
C135  C     C_R   0.689727 0.999436 0.538088 -0.296573
C136  C     C_R   0.310431 0.999502 0.461587 -0.297420
C137  C     C_R   0.090386 0.498708 0.534333 -0.067327
C138  C     C_R   0.910024 0.498814 0.464540 -0.070131
C139  C     C_R   0.590387 0.998708 0.534332 -0.067325
C140  C     C_R   0.410024 0.998814 0.464540 -0.070131
C141  C     C_R   0.578639 0.872468 0.565778 0.506476
C142  C     C_R   0.420899 0.124569 0.436501 0.525629
C143  C     C_R   0.421536 0.872517 0.433301 0.506734
C144  C     C_R   0.579392 0.124372 0.562983 0.523442
C145  C     C_R   0.078639 0.372468 0.565778 0.506476
C146  C     C_R   0.920899 0.624569 0.436501 0.525629
C147  C     C_R   0.921536 0.372517 0.433301 0.506734
C148  C     C_R   0.079392 0.624372 0.562983 0.523443
Cu1   Cu    Cu3+1 0.209920 0.785290 0.495070 0.979676
Cu2   Cu    Cu3+1 0.790080 0.214710 0.504930 0.947529
Cu3   Cu    Cu3+1 0.790080 0.785290 0.504930 0.981625
Cu4   Cu    Cu3+1 0.209920 0.214710 0.495070 0.947518
Cu5   Cu    Cu3+1 0.709920 0.285290 0.495070 0.979675
Cu6   Cu    Cu3+1 0.290080 0.714710 0.504930 0.947528
Cu7   Cu    Cu3+1 0.290080 0.285290 0.504930 0.981625
Cu8   Cu    Cu3+1 0.709920 0.714710 0.495070 0.947518
Cu9   Cu    Cu3+1 0.495240 0.500000 0.924150 0.955663
Cu10  Cu    Cu3+1 0.504760 0.500000 0.075850 0.955564
Cu11  Cu    Cu3+1 0.995240 1.000000 0.924150 0.955663
Cu12  Cu    Cu3+1 0.004760 1.000000 0.075850 0.955564
H1    H     H_    0.230129 0.499561 0.531524 0.187881
H2    H     H_    0.769972 0.499597 0.468406 0.187683
H3    H     H_    0.730129 0.999561 0.531524 0.187882
H4    H     H_    0.269972 0.999597 0.468406 0.187683
H5    H     H_    0.511386 0.825393 0.553893 0.141139
H6    H     H_    0.485811 0.174927 0.447845 0.161214
H7    H     H_    0.488842 0.825356 0.444916 0.140935
H8    H     H_    0.514888 0.174816 0.550540 0.162520
H9    H     H_    0.011386 0.325393 0.553894 0.141139
H10   H     H_    0.985811 0.674927 0.447845 0.161214
H11   H     H_    0.988842 0.325356 0.444917 0.140936
H12   H     H_    0.014888 0.674816 0.550540 0.162519
H13   H     H_    0.214624 0.873587 0.009923 0.131044
H14   H     H_    0.787485 0.129916 0.987228 0.131276
H15   H     H_    0.784584 0.874833 0.990696 0.130714
H16   H     H_    0.211968 0.130948 0.013228 0.131473
H17   H     H_    0.714623 0.373586 0.009923 0.131044
H18   H     H_    0.287486 0.629916 0.987228 0.131276
H19   H     H_    0.284584 0.374833 0.990696 0.130714
H20   H     H_    0.711968 0.630949 0.013228 0.131473
H21   H     H_    0.236212 0.659414 0.907011 0.130331
H22   H     H_    0.765904 0.343985 0.090454 0.131316
H23   H     H_    0.763083 0.660648 0.093609 0.130652
H24   H     H_    0.233434 0.345012 0.909938 0.131171
H25   H     H_    0.736212 0.159414 0.907011 0.130331
H26   H     H_    0.265904 0.843986 0.090454 0.131316
H27   H     H_    0.263083 0.160647 0.093609 0.130652
H28   H     H_    0.733434 0.845012 0.909938 0.131171
H29   H     H_    0.129970 0.845488 0.011365 0.167592
H30   H     H_    0.872649 0.159037 0.986539 0.171288
H31   H     H_    0.869249 0.846819 0.989172 0.168534
H32   H     H_    0.126868 0.159818 0.013739 0.171299
H33   H     H_    0.629969 0.345488 0.011365 0.167592
H34   H     H_    0.372650 0.659037 0.986539 0.171288
H35   H     H_    0.369249 0.346819 0.989172 0.168534
H36   H     H_    0.626868 0.659818 0.013739 0.171299
H37   H     H_    0.244917 0.734097 0.783282 0.168967
H38   H     H_    0.757424 0.270743 0.214429 0.168004
H39   H     H_    0.754262 0.735507 0.217362 0.169566
H40   H     H_    0.242199 0.271481 0.785813 0.168060
H41   H     H_    0.744917 0.234097 0.783282 0.168967
H42   H     H_    0.257424 0.770743 0.214429 0.168004
H43   H     H_    0.254261 0.235507 0.217362 0.169566
H44   H     H_    0.742199 0.771481 0.785813 0.168060
O1    O     O_R   0.255040 0.869590 0.478480 -0.598411
O2    O     O_R   0.744960 0.130410 0.521520 -0.603557
O3    O     O_R   0.744960 0.869590 0.521520 -0.599498
O4    O     O_R   0.255040 0.130410 0.478480 -0.604749
O5    O     O_R   0.755040 0.369590 0.478480 -0.598411
O6    O     O_R   0.244960 0.630410 0.521520 -0.603557
O7    O     O_R   0.244960 0.369590 0.521520 -0.599498
O8    O     O_R   0.755040 0.630410 0.478480 -0.604749
O9    O     O_R   0.182050 0.796550 0.624440 -0.533645
O10   O     O_R   0.817950 0.203450 0.375560 -0.536227
O11   O     O_R   0.817950 0.796550 0.375560 -0.529869
O12   O     O_R   0.182050 0.203450 0.624440 -0.536393
O13   O     O_R   0.682050 0.296550 0.624440 -0.533646
O14   O     O_R   0.317950 0.703450 0.375560 -0.536226
O15   O     O_R   0.317950 0.296550 0.375560 -0.529869
O16   O     O_R   0.682050 0.703450 0.624440 -0.536393
O17   O     O_R   0.250530 0.763330 0.367210 -0.607895
O18   O     O_R   0.749470 0.236670 0.632790 -0.609979
O19   O     O_R   0.749470 0.763330 0.632790 -0.608106
O20   O     O_R   0.250530 0.236670 0.367210 -0.610507
O21   O     O_R   0.750530 0.263330 0.367210 -0.607896
O22   O     O_R   0.249470 0.736670 0.632790 -0.609980
O23   O     O_R   0.249470 0.263330 0.632790 -0.608106
O24   O     O_R   0.750530 0.736670 0.367210 -0.610507
O25   O     O_R   0.177260 0.690030 0.513710 -0.546662
O26   O     O_R   0.822740 0.309970 0.486290 -0.557014
O27   O     O_R   0.822740 0.690030 0.486290 -0.542852
O28   O     O_R   0.177260 0.309970 0.513710 -0.557235
O29   O     O_R   0.677260 0.190030 0.513710 -0.546665
O30   O     O_R   0.322740 0.809970 0.486290 -0.557014
O31   O     O_R   0.322740 0.190030 0.486290 -0.542852
O32   O     O_R   0.677260 0.809970 0.513710 -0.557235
O33   O     O_R   0.051640 0.926880 0.885090 -0.544911
O34   O     O_R   0.948360 0.073120 0.114910 -0.529432
O35   O     O_R   0.948360 0.926880 0.114910 -0.546495
O36   O     O_R   0.051640 0.073120 0.885090 -0.529337
O37   O     O_R   0.551640 0.426880 0.885090 -0.544911
O38   O     O_R   0.448360 0.573120 0.114910 -0.529432
O39   O     O_R   0.448360 0.426880 0.114910 -0.546495
O40   O     O_R   0.551640 0.573120 0.885090 -0.529337
O41   O     O_R   0.940620 0.926560 0.986760 -0.611862
O42   O     O_R   0.059380 0.073440 0.013240 -0.604894
O43   O     O_R   0.059380 0.926560 0.013240 -0.612906
O44   O     O_R   0.940620 0.073440 0.986760 -0.604981
O45   O     O_R   0.440620 0.426560 0.986760 -0.611862
O46   O     O_R   0.559380 0.573440 0.013240 -0.604894
O47   O     O_R   0.559380 0.426560 0.013240 -0.612907
O48   O     O_R   0.440620 0.573440 0.986760 -0.604981
O49   O     O_3   0.582205 0.821907 0.623628 -0.568176
C149  C     C_3   0.563698 0.753744 0.615195 -0.234415
H45   H     H_    0.579529 0.714303 0.646204 0.220077
H46   H     H_    0.578389 0.737955 0.544467 0.129665
H47   H     H_    0.519234 0.751135 0.652094 0.139169
O50   O     O_3   0.420213 0.176745 0.379529 -0.577757
C150  C     C_3   0.438296 0.148019 0.293007 -0.377459
H48   H     H_    0.448519 0.090179 0.285790 0.164388
H49   H     H_    0.475088 0.176780 0.247004 0.172258
H50   H     H_    0.406823 0.156462 0.271014 0.175307
O51   O     O_3   0.417692 0.821904 0.375738 -0.568367
C151  C     C_3   0.436390 0.753800 0.383821 -0.234339
H51   H     H_    0.420497 0.714330 0.352922 0.220588
H52   H     H_    0.421903 0.737912 0.454473 0.129666
H53   H     H_    0.480847 0.751371 0.346619 0.139269
O52   O     O_3   0.578097 0.174872 0.623452 -0.581062
C152  C     C_3   0.562676 0.141636 0.706943 -0.362498
H54   H     H_    0.536346 0.094076 0.718629 0.166689
H55   H     H_    0.538904 0.179458 0.760568 0.164734
H56   H     H_    0.598934 0.126616 0.714191 0.172004
O53   O     O_3   0.082205 0.321907 0.623628 -0.568176
C153  C     C_3   0.063698 0.253744 0.615195 -0.234415
H57   H     H_    0.079529 0.214303 0.646204 0.220077
H58   H     H_    0.078389 0.237955 0.544467 0.129665
H59   H     H_    0.019234 0.251135 0.652094 0.139169
O54   O     O_3   0.920213 0.676745 0.379529 -0.577757
C154  C     C_3   0.938296 0.648018 0.293007 -0.377459
H60   H     H_    0.948520 0.590179 0.285790 0.164388
H61   H     H_    0.975087 0.676780 0.247004 0.172258
H62   H     H_    0.906823 0.656461 0.271014 0.175307
O55   O     O_3   0.917692 0.321904 0.375738 -0.568366
C155  C     C_3   0.936390 0.253800 0.383821 -0.234341
H63   H     H_    0.920497 0.214330 0.352922 0.220588
H64   H     H_    0.921903 0.237912 0.454473 0.129666
H65   H     H_    0.980847 0.251371 0.346619 0.139269
O56   O     O_3   0.078097 0.674874 0.623449 -0.581061
C156  C     C_3   0.062681 0.641640 0.706941 -0.362494
H66   H     H_    0.036362 0.594068 0.718625 0.166685
H67   H     H_    0.038899 0.679458 0.760565 0.164737
H68   H     H_    0.098942 0.626639 0.714192 0.172001
O57   O     O_3   0.114624 0.861372 0.753832 -0.566401
C157  C     C_3   0.070348 0.820775 0.760582 -0.224210
H69   H     H_    0.049602 0.790305 0.823847 0.105862
H70   H     H_    0.083476 0.784807 0.703052 0.227409
H71   H     H_    0.040369 0.857328 0.756511 0.179516
O58   O     O_3   0.871941 0.118351 0.253395 -0.563929
C158  C     C_3   0.840148 0.056281 0.282961 -0.206074
H72   H     H_    0.796948 0.069473 0.323364 0.126247
H73   H     H_    0.853227 0.025695 0.325915 0.197268
H74   H     H_    0.845340 0.021281 0.226462 0.145433
O59   O     O_3   0.887431 0.857755 0.244655 -0.563414
C159  C     C_3   0.931222 0.814986 0.235771 -0.236832
H75   H     H_    0.943127 0.772862 0.183720 0.100888
H76   H     H_    0.921486 0.790786 0.300845 0.233209
H77   H     H_    0.966717 0.849377 0.219517 0.180999
O60   O     O_3   0.128229 0.118136 0.746592 -0.564260
C160  C     C_3   0.160147 0.056185 0.717314 -0.204134
H78   H     H_    0.203332 0.069541 0.677001 0.125316
H79   H     H_    0.147203 0.025349 0.674354 0.198532
H80   H     H_    0.154941 0.021356 0.773964 0.146768
O61   O     O_3   0.614624 0.361373 0.753832 -0.566402
C161  C     C_3   0.570348 0.320776 0.760581 -0.224205
H81   H     H_    0.549600 0.290310 0.823848 0.105865
H82   H     H_    0.583477 0.284804 0.703054 0.227406
H83   H     H_    0.540371 0.357329 0.756503 0.179514
O62   O     O_3   0.371941 0.618351 0.253395 -0.563928
C162  C     C_3   0.340147 0.556281 0.282961 -0.206072
H84   H     H_    0.296948 0.569474 0.323363 0.126247
H85   H     H_    0.353227 0.525695 0.325916 0.197268
H86   H     H_    0.345340 0.521280 0.226461 0.145434
O63   O     O_3   0.387431 0.357755 0.244655 -0.563413
C163  C     C_3   0.431222 0.314985 0.235771 -0.236830
H87   H     H_    0.443126 0.272862 0.183721 0.100887
H88   H     H_    0.421486 0.290786 0.300845 0.233209
H89   H     H_    0.466718 0.349376 0.219515 0.180998
O64   O     O_3   0.628229 0.618136 0.746592 -0.564260
C164  C     C_3   0.660147 0.556185 0.717314 -0.204133
H90   H     H_    0.703332 0.569541 0.676999 0.125318
H91   H     H_    0.647203 0.525349 0.674355 0.198533
H92   H     H_    0.654941 0.521357 0.773964 0.146767

loop_
_geom_bond_atom_site_label_1
_geom_bond_atom_site_label_2
_ccdc_geom_bond_type
C51   C97   S    
Cu9   Cu10  S    
C14   H10   S    
C79   C87   A    
C61   C69   A    
Cu1   O17   S    
C47   H35   S    
C155  H63   S    
C13   C112  A    
C97   O41   A    
C92   O28   A    
C30   C38   A    
C1    O17   A    
C153  H57   S    
C142  O50   S    
C107  C113  A    
C149  H46   S    
C7    C68   S    
C159  H77   S    
C25   H21   S    
C163  H87   S    
Cu8   O24   S    
Cu3   O11   S    
C11   H7    S    
C36   H19   S    
C73   C81   A    
C16   C109  A    
O63   C163  S    
Cu2   O10   S    
Cu10  O47   S    
C57   C65   A    
C94   O30   A    
C20   C28   A    
C27   C35   A    
C161  H81   S    
C21   C29   A    
C23   C31   A    
C24   C32   A    
C42   H30   S    
O59   C159  S    
C4    O15   A    
Cu6   O30   S    
Cu8   O16   S    
C26   H22   S    
C105  C112  A    
C63   C71   A    
C120  C148  A    
C152  H55   S    
C102  O40   A    
O58   C158  S    
C136  H4    S    
Cu5   O21   S    
C95   O4    A    
C9    C116  A    
C135  H3    S    
C155  H65   S    
C150  H49   S    
Cu9   O45   S    
C50   C100  S    
C1    C70   S    
Cu2   O26   S    
C41   H29   S    
C17   C25   A    
C3    C72   S    
C103  O47   A    
Cu6   O6    S    
C44   H32   S    
C6    O9    A    
C7    O23   A    
C163  H89   S    
C52   C98   S    
C18   C82   S    
C5    O21   A    
C154  H61   S    
Cu1   O9    S    
C134  H2    S    
C126  C134  A    
C80   C88   A    
C23   C36   A    
C148  O56   S    
C31   H27   S    
C34   H17   S    
Cu3   O3    S    
C118  C138  A    
C161  H82   S    
C4    C71   S    
C96   C129  S    
C113  C115  A    
Cu5   O5    S    
C162  H85   S    
C104  O48   A    
C43   C83   A    
C124  C139  A    
C69   C77   A    
C127  C134  A    
C13   C145  A    
C43   C51   A    
C92   C125  S    
C27   H23   S    
C71   C79   A    
C8    O24   A    
Cu4   O12   S    
Cu7   O23   S    
C108  C115  A    
C109  C111  A    
O49   C149  S    
C66   C74   A    
C49   C57   A    
C124  C132  A    
Cu10  O38   S    
C52   C60   A    
C59   C67   A    
C129  C135  A    
C53   C61   A    
Cu3   O27   S    
C74   H38   S    
C151  H51   S    
C55   C63   A    
C95   C130  S    
Cu11  O36   S    
C56   C64   A    
C100  O34   A    
C1    O14   A    
C2    C69   S    
Cu5   O13   S    
C7    O12   A    
C44   C52   A    
C13   H9    S    
C77   C85   A    
C164  H91   S    
C19   C83   S    
C93   O2    A    
C58   O58   S    
C46   H34   S    
C59   O59   S    
C106  C111  A    
C160  H79   S    
C96   O32   A    
C97   O35   A    
Cu2   O2    S    
C131  C136  A    
C149  H47   S    
C91   O27   A    
C47   C87   A    
O57   C157  S    
C49   C99   S    
C10   H6    S    
C156  H66   S    
C60   C68   A    
C42   C50   A    
C20   C84   S    
C67   C75   A    
C99   O43   A    
C91   O8    A    
C105  C109  A    
C3    O19   A    
C22   C30   A    
C119  C138  A    
Cu4   O4    S    
C101  O45   A    
O64   C164  S    
C77   H41   S    
C90   O5    A    
C114  C116  A    
C75   H39   S    
C68   C76   A    
C45   C85   A    
Cu1   O25   S    
C121  C139  A    
C155  H64   S    
O50   C150  S    
C28   H24   S    
C56   C102  S    
C72   C80   A    
C11   C143  A    
Cu8   O32   S    
C151  H53   S    
Cu3   O19   S    
C153  H58   S    
C17   C38   A    
C107  C139  A    
C158  H74   S    
C110  C112  A    
Cu11  O44   S    
C19   C40   A    
C105  C137  A    
C8    C67   S    
C163  H88   S    
O55   C155  S    
O54   C154  S    
C90   O26   A    
C146  O54   S    
C117  C125  A    
C25   C33   A    
Cu4   O28   S    
C119  C127  A    
Cu12  O35   S    
C153  H59   S    
C18   C26   A    
C76   C84   A    
O51   C151  S    
Cu6   O22   S    
C54   C104  S    
Cu9   O40   S    
C98   O42   A    
C157  H69   S    
C98   O36   A    
C119  C147  A    
C2    O18   A    
C156  H68   S    
C117  C145  A    
C10   C142  A    
C108  C114  A    
C37   H14   S    
C6    C65   S    
Cu2   Cu5   S    
C90   C127  S    
C48   C88   A    
Cu7   O15   S    
C8    O11   A    
C161  H83   S    
C61   O61   S    
C152  H54   S    
Cu2   O18   S    
C15   C110  A    
C144  O52   S    
C74   C82   A    
C64   O64   S    
C45   H33   S    
C21   C85   S    
C50   C58   A    
C121  C141  A    
C157  H71   S    
Cu1   O1    S    
C20   C39   A    
C5    C66   S    
C96   O3    A    
C21   C34   A    
C54   C62   A    
C93   O29   A    
Cu8   O8    S    
C158  H72   S    
C149  H45   S    
C100  O44   A    
C147  O55   S    
Cu11  Cu12  S    
Cu4   Cu7   S    
C41   C81   A    
C46   C54   A    
C15   H11   S    
Cu3   Cu8   S    
C24   C88   S    
Cu4   O20   S    
C143  O51   S    
Cu12  O43   S    
C55   C101  S    
C123  C131  A    
Cu10  O46   S    
C121  C129  A    
C44   C84   A    
C120  C128  A    
C41   C49   A    
C94   C131  S    
C141  O49   S    
C9    H5    S    
C154  H60   S    
C15   C147  A    
C75   C83   A    
O61   C161  S    
C80   H44   S    
C53   C103  S    
C104  O38   A    
C5    O10   A    
C6    O22   A    
C17   C81   S    
Cu10  O39   S    
C22   C86   S    
C122  C140  A    
C162  H84   S    
C99   O33   A    
Cu11  O41   S    
O52   C152  S    
C28   C36   A    
C151  H52   S    
C152  H56   S    
C29   C37   A    
C120  C137  A    
C89   C128  S    
C91   C126  S    
C70   C78   A    
C164  H90   S    
C42   C82   A    
Cu1   Cu6   S    
C150  H50   S    
C160  H78   S    
Cu12  O34   S    
C30   H26   S    
C18   C37   A    
C106  C138  A    
C65   C73   A    
C154  H62   S    
C11   C114  A    
Cu9   O37   S    
C156  H67   S    
C26   C34   A    
C29   H25   S    
C73   H37   S    
C2    O13   A    
Cu6   O14   S    
C19   C27   A    
C78   C86   A    
C32   C40   A    
C162  H86   S    
C43   H31   S    
C62   O62   S    
C23   C87   S    
C48   H36   S    
C62   C70   A    
C94   O1    A    
C95   O31   A    
C58   C66   A    
C63   O63   S    
C14   C111  A    
C107  C116  A    
C24   C35   A    
C32   H28   S    
Cu5   O29   S    
C118  C146  A    
C76   H40   S    
C108  C140  A    
C9    C141  A    
C3    O16   A    
C38   H13   S    
C4    O20   A    
C117  C137  A    
C123  C140  A    
C12   C144  A    
C145  O53   S    
O62   C162  S    
C60   O60   S    
C16   H12   S    
Cu7   O31   S    
O53   C153  S    
Cu11  O33   S    
C158  H73   S    
C159  H75   S    
C79   H43   S    
C164  H92   S    
C51   C59   A    
C122  C142  A    
C150  H48   S    
C93   C132  S    
Cu9   O48   S    
O60   C160  S    
C47   C55   A    
C12   C113  A    
C106  C110  A    
C160  H80   S    
C125  C133  A    
C35   H20   S    
C48   C56   A    
C22   C33   A    
C33   H18   S    
C102  O46   A    
C130  C136  A    
C78   H42   S    
Cu12  O42   S    
C39   H16   S    
C133  H1    S    
C12   H8    S    
C40   H15   S    
C89   O6    A    
C14   C146  A    
C16   C148  A    
O56   C156  S    
Cu7   O7    S    
C128  C133  A    
C157  H70   S    
C132  C135  A    
C159  H76   S    
C103  O37   A    
C31   C39   A    
C64   C72   A    
C101  O39   A    
C57   O57   S    
C45   C53   A    
C123  C143  A    
C124  C144  A    
C92   O7    A    
C118  C126  A    
C89   O25   A    
C122  C130  A    
C10   C115  A    
C46   C86   A    
