data_mof_unit_33102.cif
_audit_creation_date              2012-12-10T16:57:41-0500
_audit_creation_method            fapswitch 2.2
_symmetry_space_group_name_H-M    P1
_symmetry_Int_Tables_number       1
_space_group_crystal_system       triclinic
_cell_length_a                    7.796385
_cell_length_b                    8.573568
_cell_length_c                    19.11247
_cell_angle_alpha                 91.550978
_cell_angle_beta                  86.268533
_cell_angle_gamma                 92.983443
_cell_volume                      1272.73605352

loop_
_atom_site_label
_atom_site_type_symbol
_atom_type_description
_atom_site_fract_x
_atom_site_fract_y
_atom_site_fract_z
_atom_type_partial_charge
C1    C     C_R   0.545113 0.794413 0.498475 0.947039
C2    C     C_R   0.642326 0.471690 0.176969 -0.159209
C3    C     C_R   0.542784 0.564593 0.853328 0.035977
C4    C     C_R   0.533984 0.571199 0.146086 0.036616
C5    C     C_R   0.648852 0.459188 0.816402 -0.158093
C6    C     C_R   0.406704 0.646512 0.187444 -0.160193
C7    C     C_R   0.635062 0.430674 0.744803 0.188347
C8    C     C_R   0.387288 0.624028 0.259701 0.178454
C9    C     C_R   0.513363 0.511613 0.709932 -0.033012
C10   C     C_R   0.497845 0.522555 0.290180 -0.036375
C11   C     C_R   0.547561 0.588224 0.070201 0.300677
C12   C     C_R   0.454878 0.205579 0.501496 0.950558
C13   C     C_R   0.551963 0.585108 0.928973 0.300820
C14   C     C_3   0.746910 0.311170 0.707909 -0.873470
C15   C     C_3   0.253896 0.713626 0.302516 -0.866681
C16   C     C_3   0.950106 0.244769 0.412818 -0.158760
C17   C     C_3   0.049298 0.755875 0.586706 -0.155053
C18   C     C_2   0.569131 0.957486 0.498698 -0.389518
C19   C     C_2   0.430834 0.042489 0.501208 -0.393967
C20   C     C_R   0.502865 0.498945 0.634339 0.845494
C21   C     C_R   0.498001 0.504244 0.365682 0.845375
C22   C     C_R   0.405950 0.614936 0.747357 -0.240397
C23   C     C_R   0.623950 0.447338 0.248229 -0.237964
C24   C     C_R   0.420633 0.641499 0.818515 -0.161907
H1    H     H_    0.312969 0.678289 0.721194 0.153572
H2    H     H_    0.813502 0.243187 0.745699 0.225404
H3    H     H_    0.666969 0.227001 0.677101 0.228299
H4    H     H_    0.152510 0.631472 0.325767 0.282040
H5    H     H_    0.315505 0.783571 0.344672 0.236124
H6    H     H_    0.189647 0.795803 0.270016 0.221725
H7    H     H_    0.825460 0.258902 0.389746 0.176030
H8    H     H_    0.934252 0.174610 0.461103 0.132977
H9    H     H_    0.031115 0.178537 0.373803 0.135480
H10   H     H_    0.063894 0.825706 0.538300 0.131764
H11   H     H_    0.174577 0.742484 0.609344 0.174349
H12   H     H_    0.709843 0.369846 0.270782 0.157548
H13   H     H_    0.968603 0.821940 0.625896 0.136686
H14   H     H_    0.336637 0.722560 0.846131 0.160502
H15   H     H_    0.740512 0.410826 0.146084 0.162135
H16   H     H_    0.741041 0.396935 0.843533 0.155273
H17   H     H_    0.322887 0.723588 0.163463 0.153528
H18   H     H_    0.700257 0.007020 0.497453 0.164486
H19   H     H_    0.299701 0.992937 0.502454 0.164013
H20   H     H_    0.847483 0.370032 0.672699 0.284180
N1    N     N_R   0.680438 0.522818 0.961669 -0.177522
N2    N     N_R   0.421978 0.655327 0.037524 -0.175787
N3    N     N_R   0.678279 0.524363 0.031059 -0.174512
N4    N     N_R   0.424152 0.653809 0.968025 -0.172100
N5    N     N_2   0.950330 0.457950 0.481240 0.190590
N6    N     N_2   0.049670 0.542050 0.518760 0.190624
O1    O     O_R   0.389250 0.738570 0.504600 -0.649989
O2    O     O_3   0.965189 0.610456 0.574039 -0.526490
O3    O     O_R   0.610750 0.261430 0.495400 -0.647666
O4    O     O_R   0.678400 0.711620 0.492580 -0.599069
O5    O     O_R   0.321600 0.288380 0.507420 -0.599468
O6    O     O_R   0.355380 0.513500 0.607880 -0.633353
O7    O     O_R   0.644620 0.486500 0.392120 -0.633975
O8    O     O_R   0.644530 0.486550 0.595850 -0.566651
O9    O     O_R   0.355470 0.513450 0.404150 -0.567071
O10   O     O_3   0.034814 0.389729 0.425907 -0.526878
Zn1   Zn    Zn3+2 0.306930 0.517990 0.508030 1.013533
Zn2   Zn    Zn3+2 0.693070 0.482010 0.491970 1.014911

loop_
_geom_bond_atom_site_label_1
_geom_bond_atom_site_label_2
_ccdc_geom_bond_type
O8    Zn2   S    
C13   N4    A    
C2    C4    A    
C1    O4    A    
C21   O9    A    
C16   H9    S    
C16   H8    S    
C5    C7    A    
O3    Zn2   S    
C9    C20   S    
C11   N3    A    
C12   O3    A    
O1    Zn1   S    
C16   H7    S    
C20   O6    A    
N1    N3    A    
C15   H4    S    
O7    Zn2   S    
C17   H13   S    
C14   H2    S    
C4    C11   S    
C13   N1    A    
C1    O1    A    
C1    C18   S    
N5    O10   S    
O5    Zn1   S    
C17   O2    S    
C8    C10   A    
C19   H19   S    
C15   H5    S    
C8    C15   S    
N2    N4    A    
C18   H18   S    
C10   C21   S    
C14   H3    S    
N5    N6    D    
C22   C24   A    
C9    C22   A    
O9    Zn1   S    
C12   O5    A    
C17   H10   S    
C20   O8    A    
C24   H14   S    
C21   O7    A    
C2    C23   A    
C12   C19   S    
C15   H6    S    
C14   H20   S    
C23   H12   S    
C16   O10   S    
C5    H16   S    
N6    O2    S    
C7    C9    A    
N6    Zn1   S    
O6    Zn1   S    
C18   C19   D    
C10   C23   A    
C6    C8    A    
N5    Zn2   S    
C17   H11   S    
C3    C5    A    
C4    C6    A    
C2    H15   S    
C6    H17   S    
C7    C14   S    
O4    Zn2   S    
C3    C24   A    
C11   N2    A    
C22   H1    S    
C3    C13   S    
