data_mof_unit_41568.cif
_audit_creation_date              2012-12-10T16:52:14-0500
_audit_creation_method            fapswitch 2.2
_symmetry_space_group_name_H-M    P1
_symmetry_Int_Tables_number       1
_space_group_crystal_system       triclinic
_cell_length_a                    11.027257
_cell_length_b                    10.900122
_cell_length_c                    9.719405
_cell_angle_alpha                 87.519172
_cell_angle_beta                  101.944907
_cell_angle_gamma                 90.35638
_cell_volume                      1141.88547399

loop_
_atom_site_label
_atom_site_type_symbol
_atom_type_description
_atom_site_fract_x
_atom_site_fract_y
_atom_site_fract_z
_atom_type_partial_charge
C1    C     C_R   0.493630 0.265105 0.501999 0.798285
C2    C     C_2   0.503757 0.866513 0.487987 -0.296254
C3    C     C_2   0.445281 0.070850 0.390186 -0.257503
C4    C     C_2   0.469297 0.133504 0.509385 -0.174790
C5    C     C_2   0.451542 0.412286 0.914421 -0.096900
C6    C     C_2   0.435594 0.423893 0.064001 -0.089300
C7    C     C_R   0.263181 0.496243 0.443566 0.812024
C8    C     C_R   0.498443 0.734468 0.496328 0.836700
C9    C     C_R   0.737087 0.502672 0.556424 0.863379
C10   C     C_2   0.128831 0.481419 0.412601 -0.048065
C11   C     C_2   0.065148 0.525927 0.503796 -0.196821
C12   C     C_2   0.872025 0.509348 0.586123 -0.356643
C13   C     C_2   0.930517 0.524605 0.479402 -0.168020
C14   C     C_2   0.427224 0.937115 0.389852 0.108774
Cu1   Cu    Cu3+1 0.500020 0.500020 0.638640 0.942736
Cu2   Cu    Cu3+1 0.499980 0.499980 0.361360 0.924248
H1    H     H_    0.878427 0.537056 0.372127 0.195195
H2    H     H_    0.500849 0.585112 0.884883 0.221588
H3    H     H_    0.368143 0.364294 0.099674 0.146460
H4    H     H_    0.113852 0.567342 0.599482 0.163866
H5    H     H_    0.923557 0.500109 0.694258 0.150001
H6    H     H_    0.577388 0.907043 0.563989 0.133456
H7    H     H_    0.439491 0.118718 0.288576 0.160757
H8    H     H_    0.420951 0.328341 0.862006 0.168227
N1    N     N_2   0.498650 0.498660 0.846590 -0.275270
N2    N     N_2   0.498620 0.498630 0.152710 -0.222627
O1    O     O_R   0.500020 0.321960 0.617050 -0.575412
O2    O     O_R   0.499980 0.321920 0.382890 -0.588267
O3    O     O_R   0.320700 0.500020 0.574050 -0.587840
O4    O     O_R   0.320660 0.499980 0.339890 -0.582872
O5    O     O_R   0.500020 0.678080 0.617110 -0.575025
O6    O     O_R   0.499980 0.678040 0.382950 -0.589623
O7    O     O_R   0.679340 0.500020 0.660110 -0.563296
O8    O     O_R   0.679300 0.499980 0.425950 -0.579674
C15   C     C_R   0.610887 0.551269 0.125681 0.336308
C16   C     C_R   0.625828 0.679307 0.124258 -0.175266
C17   C     C_R   0.731292 0.732584 0.088222 -0.174256
C18   C     C_R   0.822036 0.658586 0.052402 -0.120225
C19   C     C_R   0.809360 0.531034 0.056597 -0.184901
C20   C     C_R   0.706222 0.477051 0.097216 -0.154178
H9    H     H_    0.553672 0.738016 0.145196 0.135011
H10   H     H_    0.741461 0.831386 0.085172 0.133999
H11   H     H_    0.901877 0.700041 0.020671 0.134724
H12   H     H_    0.879112 0.473945 0.027484 0.136364
H13   H     H_    0.697689 0.378003 0.100457 0.127557
C21   C     C_3   0.070624 0.409220 0.284848 -0.396520
C22   C     C_3   0.122167 0.277530 0.297395 -0.339102
C23   C     C_3   0.061559 0.203857 0.171469 -0.885192
H14   H     H_    0.959858 0.197986 0.164455 0.253612
H15   H     H_    0.079969 0.247703 0.072511 0.251028
H16   H     H_    0.100483 0.109374 0.183827 0.245947
H17   H     H_    0.223805 0.278683 0.302988 0.221900
H18   H     H_    0.104678 0.230548 0.395251 0.217118
H19   H     H_    0.968950 0.401835 0.271596 0.212245
H20   H     H_    0.090437 0.457266 0.188745 0.195580
C24   C     C_3   0.324462 0.886583 0.277748 -0.388340
C25   C     C_3   0.215925 0.837998 0.340735 -0.315637
C26   C     C_3   0.116749 0.780541 0.229102 -0.879653
H21   H     H_    0.079740 0.849611 0.143543 0.244218
H22   H     H_    0.155807 0.701635 0.183905 0.259412
H23   H     H_    0.039341 0.746944 0.277636 0.253387
H24   H     H_    0.248492 0.767977 0.426552 0.210934
H25   H     H_    0.173418 0.914974 0.385444 0.208427
H26   H     H_    0.288377 0.960780 0.197848 0.177715
H27   H     H_    0.360780 0.814307 0.220179 0.207524
C27   C     C_R   0.456897 0.077845 0.649123 0.150059
C28   C     C_R   0.558078 0.078381 0.764091 -0.141565
C29   C     C_R   0.546538 0.027663 0.895320 -0.149400
C30   C     C_R   0.434083 0.976382 0.913002 -0.119616
C31   C     C_R   0.332533 0.976850 0.799849 -0.149357
C32   C     C_R   0.343480 0.028059 0.668538 -0.130329
H28   H     H_    0.645938 0.117360 0.751593 0.120353
H29   H     H_    0.624780 0.028196 0.983321 0.119746
H30   H     H_    0.425583 0.936835 0.014508 0.110903
H31   H     H_    0.245147 0.938069 0.814085 0.123307
H32   H     H_    0.263625 0.029908 0.582471 0.114666

loop_
_geom_bond_atom_site_label_1
_geom_bond_atom_site_label_2
_ccdc_geom_bond_type
C21   H20   S    
C2    H6    S    
C7    C10   S    
C14   C24   S    
C28   C29   A    
C24   H26   S    
Cu1   O5    S    
C22   H17   S    
C7    O3    A    
C3    C14   S    
Cu2   O6    S    
N2    C15   S    
Cu1   O1    S    
C27   C32   A    
C13   H1    S    
C22   H18   S    
C1    C4    S    
Cu2   O8    S    
C21   H19   S    
C26   H23   S    
C23   H15   S    
C27   C28   A    
C25   C26   S    
C30   H30   S    
C7    O4    A    
C6    N2    D    
C24   C25   S    
C9    O7    A    
C6    H3    S    
C11   C13   S    
C16   H9    S    
C17   C18   A    
H2    N1    S    
C23   H14   S    
Cu1   Cu2   S    
C5    N1    D    
C5    C6    S    
C16   C17   A    
C9    O8    A    
Cu1   O3    S    
C19   C20   A    
C30   C31   A    
C29   H29   S    
Cu2   N2    S    
C20   H13   S    
C2    C14   D    
C9    C12   S    
C10   C21   S    
C11   H4    S    
Cu1   N1    S    
C10   C11   D    
C19   H12   S    
C15   C20   A    
C24   H27   S    
C8    O6    A    
Cu2   O4    S    
C32   H32   S    
C18   H11   S    
C31   C32   A    
C18   C19   A    
C12   C13   D    
C4    C27   S    
C28   H28   S    
C17   H10   S    
C1    O1    A    
C3    H7    S    
Cu2   O2    S    
C5    H8    S    
C31   H31   S    
C15   C16   A    
C25   H24   S    
C26   H21   S    
C21   C22   S    
C8    O5    A    
C26   H22   S    
C12   H5    S    
Cu1   O7    S    
C23   H16   S    
C2    C8    S    
C3    C4    D    
C22   C23   S    
C25   H25   S    
C29   C30   A    
C1    O2    A    
