data_mof_unit_39511.cif
_audit_creation_date              2012-12-10T18:01:19-0500
_audit_creation_method            fapswitch 2.2
_symmetry_space_group_name_H-M    P1
_symmetry_Int_Tables_number       1
_space_group_crystal_system       triclinic
_cell_length_a                    9.624968
_cell_length_b                    10.776513
_cell_length_c                    17.34352
_cell_angle_alpha                 91.830204
_cell_angle_beta                  85.65475
_cell_angle_gamma                 88.153846
_cell_volume                      1791.76328691

loop_
_atom_site_label
_atom_site_type_symbol
_atom_type_description
_atom_site_fract_x
_atom_site_fract_y
_atom_site_fract_z
_atom_type_partial_charge
C1    C     C_R   0.498430 0.737574 0.500596 0.777817
C2    C     C_R   0.501444 0.262432 0.499611 0.776874
C3    C     C_R   0.600408 0.934441 0.538088 -0.180421
C4    C     C_R   0.398300 0.065645 0.463057 -0.176645
C5    C     C_R   0.602567 0.062804 0.537350 -0.189237
C6    C     C_R   0.395534 0.937344 0.464214 -0.192678
C7    C     C_R   0.502419 0.128403 0.499199 -0.005921
C8    C     C_R   0.496732 0.871640 0.501615 -0.008700
C9    C     C_R   0.913684 0.587206 0.541262 -0.095478
C10   C     C_R   0.085152 0.409602 0.461018 -0.064467
C11   C     C_R   0.060785 0.595271 0.536659 0.254147
C12   C     C_R   0.937909 0.410749 0.458114 0.260333
C13   C     C_R   0.481885 0.498713 0.649730 0.786841
C14   C     C_R   0.518474 0.498238 0.350395 0.789759
C15   C     C_R   0.474778 0.500397 0.734283 -0.057052
C16   C     C_R   0.527374 0.489124 0.266182 -0.049985
C17   C     C_R   0.592104 0.461789 0.771419 -0.202674
C18   C     C_R   0.415796 0.534364 0.227032 -0.208987
C19   C     C_R   0.591610 0.472602 0.851222 -0.202158
C20   C     C_R   0.417841 0.518746 0.147507 -0.201778
C21   C     C_R   0.474543 0.523993 0.895454 0.162519
C22   C     C_R   0.531674 0.457500 0.105264 0.163448
C23   C     C_R   0.355617 0.564216 0.858591 0.196793
C24   C     C_R   0.643467 0.407807 0.144677 0.195423
C25   C     C_R   0.356124 0.548323 0.778144 -0.245487
C26   C     C_R   0.640829 0.426411 0.225161 -0.239668
C27   C     C_2   0.479600 0.537257 0.979600 -0.231394
C28   C     C_2   0.530352 0.445105 0.020597 -0.232649
Cu1   Cu    Cu3+1 0.359340 0.499980 0.500000 0.939960
Cu2   Cu    Cu3+1 0.640660 0.500020 0.500000 0.931945
H1    H     H_    0.685142 0.424142 0.738672 0.159670
H2    H     H_    0.326170 0.581349 0.258065 0.154780
H3    H     H_    0.725485 0.389062 0.256159 0.132330
H4    H     H_    0.265039 0.576189 0.749690 0.148761
H5    H     H_    0.572089 0.360047 0.991183 0.157200
H6    H     H_    0.438643 0.622986 0.008449 0.154284
H7    H     H_    0.328367 0.552857 0.119212 0.140792
H8    H     H_    0.684691 0.443904 0.878290 0.141168
H9    H     H_    0.678530 0.884318 0.567873 0.134301
H10   H     H_    0.320099 0.115763 0.433326 0.133272
H11   H     H_    0.679834 0.110754 0.568039 0.138236
H12   H     H_    0.316930 0.889626 0.434372 0.128528
H13   H     H_    0.847140 0.657127 0.573153 0.139825
H14   H     H_    0.150037 0.339064 0.428699 0.141994
N1    N     N_R   0.147930 0.499970 0.499980 -0.184393
N2    N     N_R   0.852070 0.500030 0.500020 -0.191789
O1    O     O_R   0.381260 0.680340 0.500000 -0.589140
O2    O     O_R   0.618740 0.319660 0.500000 -0.586328
O3    O     O_R   0.618830 0.680370 0.500010 -0.584521
O4    O     O_R   0.381170 0.319630 0.499990 -0.585220
O5    O     O_R   0.367440 0.500000 0.613600 -0.570346
O6    O     O_R   0.632560 0.500000 0.386400 -0.599231
O7    O     O_R   0.605010 0.500030 0.613600 -0.583132
O8    O     O_R   0.394990 0.499970 0.386400 -0.586004
C29   C     C_3   0.228285 0.625263 0.902641 -0.425319
C30   C     C_3   0.141562 0.530908 0.946665 -0.847042
H15   H     H_    0.106862 0.458620 0.905957 0.256119
H16   H     H_    0.201774 0.485764 0.990779 0.258908
H17   H     H_    0.048192 0.579469 0.976485 0.245792
H18   H     H_    0.259346 0.699563 0.942996 0.189904
H19   H     H_    0.160513 0.671727 0.862260 0.199193
C31   C     C_3   0.765270 0.334250 0.103402 -0.425302
C32   C     C_3   0.865562 0.418545 0.059673 -0.848618
H20   H     H_    0.813701 0.467372 0.013742 0.256190
H21   H     H_    0.905667 0.488273 0.100224 0.256000
H22   H     H_    0.955052 0.361538 0.032130 0.246238
H23   H     H_    0.824695 0.282957 0.145594 0.198797
H24   H     H_    0.727707 0.262562 0.063357 0.190120
C33   C     C_3   0.106413 0.723996 0.560905 -0.339193
C34   C     C_3   0.164449 0.732338 0.640105 -0.791498
H25   H     H_    0.104027 0.673882 0.681167 0.226667
H26   H     H_    0.276451 0.706529 0.636742 0.269328
H27   H     H_    0.154464 0.829953 0.662999 0.218270
H28   H     H_    0.169432 0.767652 0.514580 0.210433
H29   H     H_    0.014772 0.790338 0.565777 0.144218
C35   C     C_3   0.884620 0.312437 0.404714 -0.382503
C36   C     C_3   0.907201 0.182135 0.434900 -0.857985
H30   H     H_    0.873125 0.180335 0.497328 0.262203
H31   H     H_    0.846524 0.114734 0.402591 0.248455
H32   H     H_    0.019094 0.152578 0.426921 0.230874
H33   H     H_    0.774993 0.326503 0.394195 0.254897
H34   H     H_    0.941569 0.317150 0.346703 0.159338

loop_
_geom_bond_atom_site_label_1
_geom_bond_atom_site_label_2
_ccdc_geom_bond_type
C29   C30   S    
C32   H21   S    
C1    C8    S    
C2    C7    S    
C36   H30   S    
C31   C32   S    
C31   H23   S    
Cu1   O1    S    
Cu2   O2    S    
C19   C21   A    
C24   C26   A    
C15   C25   A    
Cu1   O8    S    
C30   H15   S    
C5    H11   S    
C2    O4    A    
C13   O5    A    
C14   O6    A    
C4    H10   S    
C28   H5    S    
C34   H25   S    
C14   C16   S    
C25   H4    S    
C21   C27   S    
C32   H22   S    
C3    H9    S    
C9    N2    A    
C22   C28   S    
C29   H18   S    
C10   N1    A    
C4    C7    A    
C13   O7    A    
Cu1   O4    S    
C36   H31   S    
C21   C23   A    
C16   C26   A    
Cu2   O7    S    
C9    H13   S    
C10   H14   S    
C35   C36   S    
C4    C6    A    
C3    C8    A    
C35   H34   S    
C5    C7    A    
C1    O1    A    
C6    C8    A    
C2    O2    A    
Cu1   N1    S    
Cu1   Cu2   S    
C19   H8    S    
C26   H3    S    
C34   H27   S    
C33   H28   S    
C9    C11   A    
C10   C12   A    
C12   N2    A    
C14   O8    A    
Cu2   O3    S    
C20   C22   A    
C13   C15   S    
C17   H1    S    
C22   C24   A    
C11   N1    A    
C18   H2    S    
Cu1   O5    S    
C36   H32   S    
C15   C17   A    
Cu2   O6    S    
C24   C31   S    
Cu2   N2    S    
C3    C5    A    
C35   H33   S    
C11   C33   S    
C23   C29   S    
C27   H6    S    
C30   H17   S    
C31   H24   S    
C12   C35   S    
C20   H7    S    
C29   H19   S    
C17   C19   A    
C30   H16   S    
C33   H29   S    
C18   C20   A    
C23   C25   A    
C33   C34   S    
C32   H20   S    
C16   C18   A    
C6    H12   S    
C27   C28   D    
C34   H26   S    
C1    O3    A    
