data_mof_unit_55816.cif
_audit_creation_date              2012-12-11T17:12:47-0500
_audit_creation_method            fapswitch 2.2
_symmetry_space_group_name_H-M    P1
_symmetry_Int_Tables_number       1
_space_group_crystal_system       triclinic
_cell_length_a                    17.291433
_cell_length_b                    6.875718
_cell_length_c                    14.436548
_cell_angle_alpha                 90.000441
_cell_angle_beta                  110.341438
_cell_angle_gamma                 89.999658
_cell_volume                      1609.3388573

loop_
_atom_site_label
_atom_site_type_symbol
_atom_type_description
_atom_site_fract_x
_atom_site_fract_y
_atom_site_fract_z
_atom_type_partial_charge
O1    O     O_R   0.314130 0.635770 0.168990 -0.538625
O2    O     O_R   0.685870 0.364230 0.831010 -0.538625
O3    O     O_R   0.185870 0.135770 0.331010 -0.538625
O4    O     O_R   0.814130 0.864230 0.668990 -0.538625
O5    O     O_R   0.146800 0.302460 0.139760 -0.538882
O6    O     O_R   0.853200 0.697540 0.860240 -0.538882
O7    O     O_R   0.353200 0.802460 0.360240 -0.538883
O8    O     O_R   0.646800 0.197540 0.639760 -0.538883
C1    C     C_R   0.113985 0.475856 0.112752 0.746251
C2    C     C_R   0.886015 0.524144 0.887248 0.746251
C3    C     C_R   0.386015 0.975856 0.387248 0.746255
C4    C     C_R   0.613985 0.024144 0.612752 0.746255
O9    O     O_R   0.311100 0.305780 0.157130 -0.539698
O10   O     O_R   0.688900 0.694220 0.842870 -0.539698
O11   O     O_R   0.188900 0.805780 0.342870 -0.539697
O12   O     O_R   0.811100 0.194220 0.657130 -0.539696
O13   O     O_R   0.351340 0.139640 0.348510 -0.535812
O14   O     O_R   0.648660 0.860360 0.651490 -0.535811
O15   O     O_R   0.148660 0.639640 0.151490 -0.535814
O16   O     O_R   0.851340 0.360360 0.848510 -0.535813
C5    C     C_R   0.333848 0.475876 0.136974 0.702326
C6    C     C_R   0.666152 0.524124 0.863026 0.702326
C7    C     C_R   0.166152 0.975878 0.363025 0.702328
C8    C     C_R   0.833848 0.024122 0.636975 0.702328
C9    C     C_1   0.533564 0.008886 0.533038 -0.168361
C10   C     C_1   0.466436 0.991114 0.466962 -0.168361
C11   C     C_1   0.966436 0.508886 0.966962 -0.168377
C12   C     C_1   0.033564 0.491114 0.033038 -0.168377
O17   O     O_3   0.263010 0.470920 0.312770 -0.370200
O18   O     O_3   0.736990 0.529080 0.687230 -0.370200
O19   O     O_3   0.236990 0.970920 0.187230 -0.370203
O20   O     O_3   0.763010 0.029080 0.812770 -0.370203
V1    V     V_3+5 0.247590 0.194450 0.238360 1.471918
V2    V     V_3+5 0.752410 0.805550 0.761640 1.471918
V3    V     V_3+5 0.252410 0.694450 0.261640 1.471916
V4    V     V_3+5 0.747590 0.305550 0.738360 1.471916
C13   C     C_R   0.114600 0.996252 0.426075 -0.104515
C14   C     C_R   0.885400 0.003748 0.573925 -0.104515
C15   C     C_R   0.385398 0.496243 0.073922 -0.104503
C16   C     C_R   0.614602 0.503757 0.926078 -0.104503
C17   C     C_R   0.928284 0.789879 0.466200 -0.169889
C18   C     C_R   0.071716 0.210121 0.533799 -0.169889
C19   C     C_R   0.571737 0.289913 0.033828 -0.169888
C20   C     C_R   0.428263 0.710087 0.966172 -0.169888
C21   C     C_R   0.875013 0.834769 0.516235 -0.143194
C22   C     C_R   0.124987 0.165231 0.483764 -0.143194
C23   C     C_R   0.625004 0.334800 0.983787 -0.143225
C24   C     C_R   0.374996 0.665199 0.016213 -0.143226
C25   C     C_R   0.950128 0.133403 0.578677 -0.103353
C26   C     C_R   0.049872 0.866597 0.421323 -0.103353
C27   C     C_R   0.549863 0.633392 0.921310 -0.103353
C28   C     C_R   0.450138 0.366608 0.078690 -0.103352
C29   C     C_R   0.005340 0.087169 0.528211 0.102471
C30   C     C_R   0.994660 0.912831 0.471789 0.102471
C31   C     C_R   0.494652 0.587158 0.971779 0.102477
C32   C     C_R   0.505348 0.412842 0.028221 0.102477
H1    H     H_    0.174216 0.266756 0.488720 0.135327
H2    H     H_    0.825784 0.733244 0.511280 0.135327
H3    H     H_    0.325757 0.766708 0.011246 0.135308
H4    H     H_    0.674242 0.233291 0.988754 0.135309
H5    H     H_    0.917361 0.656097 0.424079 0.133272
H6    H     H_    0.082639 0.343903 0.575921 0.133272
H7    H     H_    0.582672 0.156149 0.075966 0.133273
H8    H     H_    0.417328 0.843851 0.924034 0.133273
C33   C     C_1   0.038035 0.692055 0.361499 0.284033
N1    N     N_1   0.028579 0.552699 0.313843 -0.363050
C34   C     C_1   0.961965 0.307945 0.638501 0.284033
N2    N     N_1   0.971421 0.447301 0.686157 -0.363050
C35   C     C_1   0.461991 0.192093 0.138537 0.284043
N3    N     N_1   0.471460 0.052760 0.186212 -0.363054
C36   C     C_1   0.538010 0.807909 0.861464 0.284042
N4    N     N_1   0.528541 0.947243 0.813789 -0.363054

loop_
_geom_bond_atom_site_label_1
_geom_bond_atom_site_label_2
_ccdc_geom_bond_type
C2    C11   S    
C16   C23   A    
C31   C32   A    
O1    C5    A    
O3    C7    A    
C17   H5    S    
C19   H7    S    
C14   C25   A    
C29   C30   A    
C20   H8    S    
O7    C3    A    
C26   C30   A    
O13   V1    S    
O20   V4    S    
C18   C29   A    
O8    V4    S    
O4    C8    A    
O3    V1    S    
O17   V1    S    
C18   C22   A    
C14   C21   A    
C28   C35   S    
C23   H4    S    
C1    O15   A    
C2    O16   A    
O5    V1    S    
O2    C6    A    
C8    C14   S    
O19   V1    S    
C18   H6    S    
O11   C7    A    
C15   C28   A    
O12   C8    A    
O9    V1    S    
C27   C36   S    
O11   V3    S    
O4    V2    S    
C21   H2    S    
O18   V2    S    
C34   N2    T    
C3    C10   S    
C9    C10   T    
C7    C13   S    
O6    V2    S    
O20   V2    S    
O5    C1    A    
C5    C15   S    
O8    C4    A    
C6    C16   S    
O9    C5    A    
O14   V2    S    
C22   H1    S    
O19   V3    S    
O1    V3    S    
C24   H3    S    
O2    V4    S    
C3    O13   A    
C25   C34   S    
O7    V3    S    
O10   V2    S    
C16   C27   A    
O17   V3    S    
O18   V4    S    
C4    C9    S    
O10   C6    A    
C36   N4    T    
O15   V3    S    
O12   V4    S    
C13   C26   A    
C20   C31   A    
C25   C29   A    
C27   C31   A    
C35   N3    T    
C26   C33   S    
C17   C30   A    
O6    C2    A    
O16   V4    S    
C28   C32   A    
C19   C32   A    
C33   N1    T    
C4    O14   A    
C11   C12   T    
C17   C21   A    
C13   C22   A    
C19   C23   A    
C20   C24   A    
C1    C12   S    
C15   C24   A    
