data_mof_unit_32230.cif
_audit_creation_date              2012-12-10T17:00:38-0500
_audit_creation_method            fapswitch 2.2
_symmetry_space_group_name_H-M    P1
_symmetry_Int_Tables_number       1
_space_group_crystal_system       triclinic
_cell_length_a                    21.762536
_cell_length_b                    21.707923
_cell_length_c                    21.763927
_cell_angle_alpha                 88.90546
_cell_angle_beta                  86.561807
_cell_angle_gamma                 93.185383
_cell_volume                      10244.7428591

loop_
_atom_site_label
_atom_site_type_symbol
_atom_type_description
_atom_site_fract_x
_atom_site_fract_y
_atom_site_fract_z
_atom_type_partial_charge
C1    C     C_R   0.502573 0.118874 0.990937 0.819125
C2    C     C_R   0.005511 0.119217 0.498964 0.822859
C3    C     C_R   0.498719 0.880905 0.999575 0.808220
C4    C     C_R   0.999818 0.880125 0.501185 0.839599
C5    C     C_R   0.880531 0.995342 0.502235 0.825983
C6    C     C_R   0.880202 0.497568 0.007190 0.794968
C7    C     C_R   0.119804 0.005464 0.497323 0.809523
C8    C     C_R   0.118682 0.501188 0.004637 0.837278
C9    C     C_R   0.998341 0.500693 0.881262 0.856532
C10   C     C_R   0.502575 0.996302 0.880722 0.829243
C11   C     C_R   0.995343 0.498975 0.119391 0.802930
C12   C     C_R   0.498293 0.000698 0.118832 0.842166
C13   C     C_R   0.002520 0.618425 0.489238 0.823180
C14   C     C_R   0.496499 0.618465 0.999466 0.829439
C15   C     C_R   0.998684 0.381134 0.496181 0.839694
C16   C     C_R   0.497694 0.380345 0.001342 0.857051
C17   C     C_R   0.381505 0.505223 0.001996 0.824615
C18   C     C_R   0.380215 0.997433 0.506994 0.800301
C19   C     C_R   0.619595 0.504706 0.997785 0.843399
C20   C     C_R   0.618838 0.001660 0.500637 0.857967
C21   C     C_R   0.500083 0.000173 0.381061 0.826499
C22   C     C_R   0.001222 0.494361 0.381330 0.831437
C23   C     C_R   0.493137 0.999487 0.619533 0.804002
C24   C     C_R   0.998728 0.499528 0.618811 0.849268
C25   C     C_R   0.504314 0.878417 0.807191 0.151562
C26   C     C_R   0.204689 0.949685 0.396112 0.217617
C27   C     C_R   0.506064 0.885445 0.194258 0.165798
C28   C     C_R   0.798963 0.999220 0.625738 0.229794
C29   C     C_R   0.465940 0.111398 0.194005 0.181234
C30   C     C_R   0.202087 0.111498 0.548004 0.199098
C31   C     C_R   0.582065 0.084132 0.792559 0.171023
C32   C     C_R   0.805619 0.960142 0.393984 0.222549
C33   C     C_R   0.056754 0.196735 0.381716 0.223840
C34   C     C_R   0.017432 0.610012 0.200487 0.225606
C35   C     C_R   0.105858 0.807609 0.541899 0.166616
C36   C     C_R   0.103515 0.460646 0.802172 0.195861
C37   C     C_R   0.884825 0.792506 0.497019 0.174772
C38   C     C_R   0.939764 0.382874 0.195756 0.221656
C39   C     C_R   0.994764 0.199227 0.612318 0.226583
C40   C     C_R   0.898778 0.557621 0.811006 0.191014
C41   C     C_R   0.799662 0.554501 0.110650 0.205398
C42   C     C_R   0.380362 0.799708 0.991919 0.218207
C43   C     C_R   0.194313 0.389110 0.034803 0.222129
C44   C     C_R   0.617599 0.208089 0.005932 0.240030
C45   C     C_R   0.197444 0.620926 0.008865 0.220582
C46   C     C_R   0.612585 0.804890 0.004000 0.225172
C47   C     C_R   0.794276 0.394713 0.955602 0.221257
C48   C     C_R   0.426248 0.190600 0.903255 0.200562
C49   C     C_R   0.932606 0.392063 0.321820 0.166490
C50   C     C_R   0.705475 0.457130 0.894874 0.209292
C51   C     C_R   0.065595 0.409306 0.692726 0.199010
C52   C     C_R   0.295629 0.431326 0.098879 0.198987
C53   C     C_R   0.940610 0.598612 0.692431 0.195228
C54   C     C_R   0.692376 0.600729 0.069002 0.189405
C55   C     C_R   0.091366 0.563974 0.289579 0.198121
C56   C     C_R   0.308117 0.606401 0.939410 0.167041
C57   C     C_R   0.592518 0.704600 0.927405 0.166853
C58   C     C_R   0.507165 0.115956 0.698027 0.227446
C59   C     C_R   0.573972 0.301476 0.080957 0.193052
C60   C     C_R   0.568033 0.909262 0.301098 0.202470
C61   C     C_R   0.391954 0.302925 0.952333 0.188245
C62   C     C_R   0.439656 0.886535 0.700231 0.237630
C63   C     C_R   0.390693 0.690326 0.059796 0.164788
C64   C     C_R   0.415481 0.076919 0.311756 0.205963
C65   C     C_R   0.297717 0.059379 0.605976 0.204240
C66   C     C_R   0.917928 0.291766 0.578726 0.181373
C67   C     C_R   0.674051 0.992753 0.617629 0.165179
C68   C     C_R   0.122544 0.704451 0.468382 0.228184
C69   C     C_R   0.708098 0.038973 0.394707 0.150993
C70   C     C_R   0.064514 0.322670 0.393630 0.167613
C71   C     C_R   0.295612 0.891433 0.457958 0.219390
C72   C     C_R   0.907632 0.689735 0.424944 0.215209
C73   C     C_R   0.475242 0.825923 0.784181 -0.196285
C74   C     C_R   0.228538 0.895478 0.373562 -0.193950
C75   C     C_R   0.540507 0.840159 0.220084 -0.182636
C76   C     C_R   0.761708 0.026744 0.671148 -0.205509
C77   C     C_R   0.427129 0.150283 0.226648 -0.182320
C78   C     C_R   0.227767 0.140828 0.597863 -0.178404
C79   C     C_R   0.589850 0.142380 0.764034 -0.196154
C80   C     C_R   0.784120 0.981602 0.338629 -0.205876
C81   C     C_R   0.059983 0.235293 0.328945 -0.204031
C82   C     C_R   0.066210 0.647058 0.221813 -0.205965
C83   C     C_R   0.164509 0.785606 0.530494 -0.174761
C84   C     C_R   0.137731 0.415866 0.772927 -0.187892
C85   C     C_R   0.837086 0.762157 0.466878 -0.179038
C86   C     C_R   0.935000 0.329186 0.233042 -0.206597
C87   C     C_R   0.951086 0.220920 0.655256 -0.211984
C88   C     C_R   0.869736 0.604710 0.781317 -0.190308
C89   C     C_R   0.772273 0.602917 0.140851 -0.170894
C90   C     C_R   0.328679 0.771776 0.024491 -0.206695
C91   C     C_R   0.215985 0.352404 0.081540 -0.219288
C92   C     C_R   0.655984 0.236881 0.047376 -0.200212
C93   C     C_R   0.224815 0.670042 0.973019 -0.210516
C94   C     C_R   0.661661 0.783270 0.967499 -0.216157
C95   C     C_R   0.770270 0.370791 0.902203 -0.200322
C96   C     C_R   0.374491 0.218612 0.883706 -0.196873
C97   C     C_R   0.930183 0.333836 0.296278 -0.181923
C98   C     C_R   0.729029 0.403630 0.870194 -0.201686
C99   C     C_R   0.116907 0.387929 0.720727 -0.193322
C100  C     C_R   0.263600 0.375160 0.115966 -0.208665
C101  C     C_R   0.892763 0.627365 0.724160 -0.188566
C102  C     C_R   0.720384 0.626941 0.119092 -0.199595
C103  C     C_R   0.105736 0.622424 0.262520 -0.213876
C104  C     C_R   0.277225 0.661398 0.935249 -0.157444
C105  C     C_R   0.650560 0.736550 0.925934 -0.196424
C106  C     C_R   0.550300 0.159288 0.719902 -0.202199
C107  C     C_R   0.633075 0.280561 0.087092 -0.197694
C108  C     C_R   0.574370 0.853511 0.270606 -0.194577
C109  C     C_R   0.356701 0.273057 0.909045 -0.189427
C110  C     C_R   0.441210 0.830459 0.733024 -0.197960
C111  C     C_R   0.334884 0.720023 0.061725 -0.156840
C112  C     C_R   0.399159 0.131375 0.283258 -0.197477
C113  C     C_R   0.272732 0.112903 0.628959 -0.175649
C114  C     C_R   0.910443 0.263927 0.637416 -0.195483
C115  C     C_R   0.698367 0.022502 0.667440 -0.182618
C116  C     C_R   0.173163 0.736604 0.491644 -0.198798
C117  C     C_R   0.738828 0.024090 0.339137 -0.186055
C118  C     C_R   0.065076 0.298561 0.334921 -0.183068
C119  C     C_R   0.270962 0.864901 0.406072 -0.194359
C120  C     C_R   0.849280 0.713596 0.428323 -0.202797
C121  C     C_R   0.470751 0.941615 0.722356 0.035968
C122  C     C_R   0.277426 0.950803 0.476669 0.014552
C123  C     C_R   0.526870 0.952729 0.278935 0.035241
C124  C     C_R   0.711135 0.993589 0.561891 0.022939
C125  C     C_R   0.463042 0.042759 0.283303 0.034739
C126  C     C_R   0.278394 0.034776 0.549855 0.037087
C127  C     C_R   0.505343 0.053075 0.720223 0.035877
C128  C     C_R   0.724252 0.010243 0.450453 0.013553
C129  C     C_R   0.033705 0.286751 0.442602 0.022407
C130  C     C_R   0.035674 0.531674 0.275689 0.008856
C131  C     C_R   0.061926 0.722743 0.484254 0.044636
C132  C     C_R   0.034976 0.460297 0.718260 0.033342
C133  C     C_R   0.954446 0.716464 0.460681 0.044553
C134  C     C_R   0.963950 0.441414 0.286722 0.024887
C135  C     C_R   0.967989 0.275629 0.537966 0.011650
C136  C     C_R   0.964192 0.544733 0.718885 0.027990
C137  C     C_R   0.718637 0.549879 0.038055 0.039079
C138  C     C_R   0.441484 0.715788 0.021241 0.010637
C139  C     C_R   0.278056 0.464463 0.045869 0.023635
C140  C     C_R   0.538791 0.279424 0.031844 0.006557
C141  C     C_R   0.282902 0.558227 0.980872 0.015974
C142  C     C_R   0.545489 0.722067 0.971097 0.016976
C143  C     C_R   0.722892 0.476473 0.953874 0.013128
C144  C     C_R   0.448250 0.278519 0.969356 0.032074
C145  C     C_R   0.962628 0.440378 0.221180 0.040886
C146  C     C_R   0.776973 0.453641 0.976070 0.021016
C147  C     C_R   0.046056 0.475251 0.779277 0.028848
C148  C     C_R   0.218376 0.451448 0.027232 0.027144
C149  C     C_R   0.952994 0.534021 0.782738 0.029995
C150  C     C_R   0.778224 0.533347 0.053764 0.035075
C151  C     C_R   0.009457 0.546977 0.220859 0.026765
C152  C     C_R   0.220600 0.561474 0.001258 0.036394
C153  C     C_R   0.551713 0.781124 0.994560 0.027161
C154  C     C_R   0.532497 0.043237 0.776451 0.002376
C155  C     C_R   0.555029 0.223589 0.005203 0.031375
C156  C     C_R   0.508962 0.945891 0.218351 0.027528
C157  C     C_R   0.460543 0.217517 0.950836 0.044642
C158  C     C_R   0.493030 0.937407 0.782492 0.021813
C159  C     C_R   0.439174 0.777728 0.002473 0.033549
C160  C     C_R   0.476309 0.052178 0.219643 0.019972
C161  C     C_R   0.221407 0.052729 0.530004 0.035957
C162  C     C_R   0.995488 0.220109 0.549504 0.034407
C163  C     C_R   0.776120 0.991759 0.564965 0.035179
C164  C     C_R   0.055238 0.781494 0.510649 0.011157
C165  C     C_R   0.781236 0.983096 0.451130 0.045585
C166  C     C_R   0.035594 0.221334 0.440409 0.040510
C167  C     C_R   0.222499 0.971858 0.453991 0.016260
C168  C     C_R   0.946404 0.775136 0.486268 0.023502
C169  C     C_R   0.482903 0.999357 0.688341 -0.213699
C170  C     C_R   0.310950 0.990152 0.516137 -0.181331
C171  C     C_R   0.497968 0.999378 0.314025 -0.193868
C172  C     C_R   0.685691 0.004935 0.504744 -0.167199
C173  C     C_R   0.996676 0.313768 0.490037 -0.182438
C174  C     C_R   0.003128 0.486628 0.314054 -0.180386
C175  C     C_R   0.008063 0.686166 0.472680 -0.212602
C176  C     C_R   0.997449 0.500154 0.685833 -0.184721
C177  C     C_R   0.688214 0.515525 0.992374 -0.195127
C178  C     C_R   0.493991 0.685183 0.997136 -0.164106
C179  C     C_R   0.314421 0.509583 0.008671 -0.181877
C180  C     C_R   0.491179 0.311546 0.005554 -0.187945
C181  C     C_R   0.984315 0.496503 0.187392 -0.194572
C182  C     C_R   0.810826 0.491017 0.016611 -0.180789
C183  C     C_R   0.998452 0.502997 0.814091 -0.182136
C184  C     C_R   0.185773 0.504197 0.010874 -0.209592
C185  C     C_R   0.496287 0.813333 0.000020 -0.216338
C186  C     C_R   0.511344 0.991478 0.812543 -0.159167
C187  C     C_R   0.508729 0.187179 0.977609 -0.203885
C188  C     C_R   0.494176 0.999902 0.185933 -0.161207
C189  C     C_R   0.188926 0.014370 0.489506 -0.183382
C190  C     C_R   0.016803 0.187131 0.496817 -0.205260
C191  C     C_R   0.812238 0.985347 0.507429 -0.215319
C192  C     C_R   0.998849 0.810933 0.504853 -0.164729
Cu1   Cu    Cu3+1 0.561820 0.000000 0.000000 0.900197
Cu2   Cu    Cu3+1 0.000000 0.000000 0.561820 0.904754
Cu3   Cu    Cu3+1 0.438180 0.000000 0.000000 0.929005
Cu4   Cu    Cu3+1 0.000000 0.000000 0.438180 0.907134
Cu5   Cu    Cu3+1 1.000000 0.438180 0.000000 0.900544
Cu6   Cu    Cu3+1 0.000000 0.561820 0.000000 0.919989
Cu7   Cu    Cu3+1 0.061820 0.500000 0.500000 0.902591
Cu8   Cu    Cu3+1 0.500000 0.500000 0.061820 0.898406
Cu9   Cu    Cu3+1 0.938180 0.500000 0.500000 0.906442
Cu10  Cu    Cu3+1 0.500000 0.500000 0.938180 0.908502
Cu11  Cu    Cu3+1 0.500000 0.938180 0.500000 0.900070
Cu12  Cu    Cu3+1 0.500000 0.061820 0.500000 0.927058
H1    H     H_    0.626446 0.174898 0.776290 0.152122
H2    H     H_    0.212439 0.184938 0.613201 0.140032
H3    H     H_    0.417145 0.194745 0.207284 0.148557
H4    H     H_    0.803412 0.966205 0.294884 0.145314
H5    H     H_    0.540729 0.794206 0.201528 0.143909
H6    H     H_    0.214342 0.876974 0.330412 0.148369
H7    H     H_    0.481380 0.780755 0.804273 0.156140
H8    H     H_    0.779569 0.038148 0.715236 0.144517
H9    H     H_    0.948478 0.204316 0.702661 0.149188
H10   H     H_    0.923309 0.284667 0.213729 0.147167
H11   H     H_    0.790189 0.776295 0.473031 0.149072
H12   H     H_    0.829296 0.624298 0.802877 0.147195
H13   H     H_    0.203548 0.805902 0.552982 0.155179
H14   H     H_    0.074479 0.694463 0.205602 0.149393
H15   H     H_    0.070331 0.216883 0.283751 0.146448
H16   H     H_    0.180664 0.402575 0.790679 0.144646
H17   H     H_    0.783833 0.326652 0.885193 0.146836
H18   H     H_    0.708316 0.802144 0.971650 0.150151
H19   H     H_    0.206190 0.715245 0.975146 0.139486
H20   H     H_    0.347721 0.198140 0.848115 0.144428
H21   H     H_    0.197156 0.305565 0.090128 0.151837
H22   H     H_    0.283543 0.789495 0.020266 0.139561
H23   H     H_    0.789589 0.620623 0.183112 0.139861
H24   H     H_    0.703515 0.224922 0.049335 0.143596
H25   H     H_    0.147464 0.648717 0.272853 0.151178
H26   H     H_    0.700537 0.665256 0.142889 0.143523
H27   H     H_    0.872881 0.667260 0.704243 0.148922
H28   H     H_    0.295551 0.699040 0.904933 0.146136
H29   H     H_    0.141698 0.350288 0.701156 0.143359
H30   H     H_    0.715367 0.387373 0.825994 0.151068
H31   H     H_    0.912442 0.293830 0.323714 0.155760
H32   H     H_    0.276484 0.348377 0.155215 0.150858
H33   H     H_    0.295320 0.701560 0.090164 0.147531
H34   H     H_    0.418183 0.788775 0.716875 0.146207
H35   H     H_    0.314521 0.292034 0.895048 0.145848
H36   H     H_    0.364412 0.159108 0.304883 0.146110
H37   H     H_    0.661326 0.297963 0.122989 0.152387
H38   H     H_    0.553505 0.206471 0.702299 0.150778
H39   H     H_    0.687741 0.723618 0.894291 0.151487
H40   H     H_    0.603998 0.819270 0.287500 0.142449
H41   H     H_    0.285020 0.820396 0.390524 0.147698
H42   H     H_    0.082097 0.326837 0.295264 0.153899
H43   H     H_    0.726256 0.043937 0.295914 0.153461
H44   H     H_    0.812597 0.693213 0.402463 0.142863
H45   H     H_    0.669590 0.028353 0.708793 0.171685
H46   H     H_    0.873617 0.276367 0.669749 0.151679
H47   H     H_    0.288247 0.133215 0.670816 0.139461
H48   H     H_    0.219506 0.722602 0.480752 0.140717
O1    O     O_R   0.552210 0.090180 0.999970 -0.584245
O2    O     O_R   0.000030 0.090180 0.552210 -0.574003
O3    O     O_R   0.447790 0.090180 0.000030 -0.568419
O4    O     O_R   0.999970 0.090180 0.447790 -0.578871
O5    O     O_R   0.552210 0.909820 0.000030 -0.576226
O6    O     O_R   0.000030 0.909820 0.447790 -0.581094
O7    O     O_R   0.447790 0.909820 0.999970 -0.584244
O8    O     O_R   0.999970 0.909820 0.552210 -0.592580
O9    O     O_R   0.909820 0.000030 0.552210 -0.583216
O10   O     O_R   0.909820 0.447790 0.000030 -0.590538
O11   O     O_R   0.909820 0.999970 0.447790 -0.568317
O12   O     O_R   0.909820 0.552210 0.999970 -0.578367
O13   O     O_R   0.090180 0.999970 0.552210 -0.586108
O14   O     O_R   0.090180 0.552210 0.000030 -0.576550
O15   O     O_R   0.090180 0.000030 0.447790 -0.587989
O16   O     O_R   0.090180 0.447790 0.999970 -0.582474
O17   O     O_R   0.999970 0.447790 0.909820 -0.576734
O18   O     O_R   0.552210 0.999970 0.909820 -0.598178
O19   O     O_R   0.000030 0.552210 0.909820 -0.574377
O20   O     O_R   0.447790 0.000030 0.909820 -0.591510
O21   O     O_R   0.000030 0.447790 0.090180 -0.582729
O22   O     O_R   0.447790 0.999970 0.090180 -0.574639
O23   O     O_R   0.999970 0.552210 0.090180 -0.585799
O24   O     O_R   0.552210 0.000030 0.090180 -0.588426
O25   O     O_R   0.052210 0.590180 0.499970 -0.575964
O26   O     O_R   0.500030 0.590180 0.052210 -0.599932
O27   O     O_R   0.947790 0.590180 0.500030 -0.573575
O28   O     O_R   0.499970 0.590180 0.947790 -0.607778
O29   O     O_R   0.052210 0.409820 0.500030 -0.597456
O30   O     O_R   0.500030 0.409820 0.947790 -0.564482
O31   O     O_R   0.947790 0.409820 0.499970 -0.606110
O32   O     O_R   0.499970 0.409820 0.052210 -0.591390
O33   O     O_R   0.409820 0.500030 0.052210 -0.600190
O34   O     O_R   0.409820 0.947790 0.500030 -0.586564
O35   O     O_R   0.409820 0.499970 0.947790 -0.593462
O36   O     O_R   0.409820 0.052210 0.499970 -0.581944
O37   O     O_R   0.590180 0.499970 0.052210 -0.570605
O38   O     O_R   0.590180 0.052210 0.500030 -0.583158
O39   O     O_R   0.590180 0.500030 0.947790 -0.586721
O40   O     O_R   0.590180 0.947790 0.499970 -0.602587
O41   O     O_R   0.499970 0.947790 0.409820 -0.575083
O42   O     O_R   0.052210 0.499970 0.409820 -0.606412
O43   O     O_R   0.500030 0.052210 0.409820 -0.578505
O44   O     O_R   0.947790 0.500030 0.409820 -0.599428
O45   O     O_R   0.500030 0.947790 0.590180 -0.578918
O46   O     O_R   0.947790 0.499970 0.590180 -0.574842
O47   O     O_R   0.499970 0.052210 0.590180 -0.572516
O48   O     O_R   0.052210 0.500030 0.590180 -0.571405
C193  C     C_3   0.557149 0.867777 0.846818 -0.842351
H49   H     H_    0.539214 0.846644 0.890725 0.229774
H50   H     H_    0.588157 0.834994 0.824010 0.230767
H51   H     H_    0.586232 0.909926 0.854346 0.244196
C194  C     C_3   0.172990 0.988652 0.351009 -0.833323
H52   H     H_    0.168939 0.036440 0.367147 0.237991
H53   H     H_    0.200956 0.992502 0.306541 0.208665
H54   H     H_    0.126997 0.967005 0.342284 0.246425
C195  C     C_3   0.455729 0.864382 0.153848 -0.859865
H55   H     H_    0.460891 0.888378 0.109456 0.241408
H56   H     H_    0.455724 0.814086 0.145179 0.227175
H57   H     H_    0.410259 0.874136 0.176328 0.237686
C196  C     C_3   0.848460 0.962991 0.652907 -0.803951
H58   H     H_    0.888268 0.994258 0.663882 0.238112
H59   H     H_    0.830370 0.939349 0.696617 0.199144
H60   H     H_    0.862993 0.925616 0.623250 0.245127
C197  C     C_3   0.500073 0.139214 0.137524 -0.843478
H61   H     H_    0.521052 0.185247 0.148352 0.229233
H62   H     H_    0.466600 0.145953 0.102128 0.236446
H63   H     H_    0.538839 0.112152 0.120618 0.241904
C198  C     C_3   0.164303 0.148408 0.507822 -0.918300
H64   H     H_    0.118809 0.124927 0.508063 0.213486
H65   H     H_    0.159020 0.196091 0.524263 0.236140
H66   H     H_    0.186494 0.151691 0.460517 0.239771
C199  C     C_3   0.635375 0.062100 0.826682 -0.866895
H67   H     H_    0.637943 0.011310 0.823816 0.237948
H68   H     H_    0.679862 0.082767 0.805880 0.209725
H69   H     H_    0.631777 0.075362 0.875270 0.258163
C200  C     C_3   0.847847 0.907699 0.389499 -0.814304
H70   H     H_    0.859800 0.891949 0.435209 0.238697
H71   H     H_    0.824472 0.868026 0.367172 0.210583
H72   H     H_    0.890776 0.922005 0.361477 0.241886
C201  C     C_3   0.087344 0.136923 0.370338 -0.815860
H73   H     H_    0.057146 0.105137 0.344468 0.238850
H74   H     H_    0.131306 0.145942 0.342045 0.197337
H75   H     H_    0.100865 0.114226 0.412241 0.240109
C202  C     C_3   0.969331 0.642650 0.167445 -0.823796
H76   H     H_    0.928922 0.611558 0.159269 0.244223
H77   H     H_    0.952369 0.680610 0.196244 0.206324
H78   H     H_    0.989506 0.662978 0.123025 0.237704
C203  C     C_3   0.097720 0.847215 0.597393 -0.822612
H79   H     H_    0.049961 0.841910 0.618362 0.246038
H80   H     H_    0.127543 0.832330 0.633992 0.209767
H81   H     H_    0.111660 0.895722 0.584999 0.261099
C204  C     C_3   0.135155 0.498421 0.849392 -0.852500
H82   H     H_    0.139192 0.469464 0.890732 0.227412
H83   H     H_    0.182424 0.513802 0.831187 0.224924
H84   H     H_    0.111530 0.540911 0.861013 0.235536
C205  C     C_3   0.867493 0.835025 0.547622 -0.912710
H85   H     H_    0.885378 0.881838 0.534854 0.222775
H86   H     H_    0.816720 0.836176 0.556234 0.233765
H87   H     H_    0.887238 0.819909 0.590940 0.239196
C206  C     C_3   0.908794 0.374247 0.136240 -0.819812
H88   H     H_    0.937440 0.347044 0.103998 0.239515
H89   H     H_    0.863532 0.348331 0.145312 0.197268
H90   H     H_    0.897849 0.417661 0.114374 0.240337
C207  C     C_3   0.045757 0.164501 0.638225 -0.826786
H91   H     H_    0.081904 0.155055 0.602703 0.246540
H92   H     H_    0.068165 0.192770 0.673520 0.203477
H93   H     H_    0.026875 0.120430 0.660477 0.240867
C208  C     C_3   0.863660 0.527998 0.865752 -0.837775
H94   H     H_    0.816182 0.515261 0.853010 0.230803
H95   H     H_    0.860490 0.561951 0.902857 0.247398
H96   H     H_    0.882855 0.484575 0.880935 0.226967
C209  C     C_3   0.840993 0.517713 0.146967 -0.919770
H97   H     H_    0.885567 0.518666 0.121687 0.222223
H98   H     H_    0.847869 0.536379 0.193411 0.233225
H99   H     H_    0.820287 0.470032 0.153603 0.238832
C210  C     C_3   0.369220 0.840294 0.937138 -0.799462
H100  H     H_    0.412516 0.852600 0.909008 0.238103
H101  H     H_    0.337735 0.815052 0.906754 0.199876
H102  H     H_    0.347146 0.882769 0.952393 0.240571
C211  C     C_3   0.163417 0.354718 0.984485 -0.817677
H103  H     H_    0.162416 0.383570 0.942138 0.231763
H104  H     H_    0.190108 0.314298 0.971339 0.201558
H105  H     H_    0.116158 0.337381 0.000753 0.242574
C212  C     C_3   0.647905 0.172243 0.955345 -0.852037
H106  H     H_    0.616220 0.164286 0.917960 0.231452
H107  H     H_    0.688991 0.199389 0.934530 0.212454
H108  H     H_    0.663130 0.127954 0.973798 0.239268
C213  C     C_3   0.154470 0.636112 0.062853 -0.804724
H109  H     H_    0.141547 0.594962 0.092958 0.237178
H110  H     H_    0.177914 0.670801 0.091631 0.196305
H111  H     H_    0.112323 0.656102 0.046532 0.237983
C214  C     C_3   0.628013 0.840750 0.060211 -0.805107
H112  H     H_    0.586056 0.848866 0.089745 0.243095
H113  H     H_    0.658493 0.813870 0.088356 0.200815
H114  H     H_    0.652690 0.885509 0.046514 0.240707
C215  C     C_3   0.825742 0.350436 0.995567 -0.832797
H115  H     H_    0.830037 0.368470 0.042362 0.238611
H116  H     H_    0.797410 0.306278 0.001157 0.206580
H117  H     H_    0.871575 0.340490 0.974056 0.243332
C216  C     C_3   0.446918 0.137673 0.865413 -0.828299
H118  H     H_    0.412522 0.098260 0.872374 0.250921
H119  H     H_    0.449384 0.151454 0.815921 0.226016
H120  H     H_    0.493439 0.124152 0.875516 0.214422
C217  C     C_3   0.878607 0.403379 0.365980 -0.813755
H121  H     H_    0.863466 0.451088 0.360757 0.244593
H122  H     H_    0.837736 0.372797 0.356384 0.207199
H123  H     H_    0.889715 0.393032 0.413495 0.254081
C218  C     C_3   0.674956 0.498794 0.851276 -0.835876
H124  H     H_    0.670125 0.545351 0.870385 0.229830
H125  H     H_    0.704169 0.505358 0.807745 0.209881
H126  H     H_    0.629421 0.477829 0.840006 0.247728
C219  C     C_3   0.041686 0.370826 0.641996 -0.831479
H127  H     H_    0.075673 0.374056 0.602032 0.251891
H128  H     H_    0.036754 0.321861 0.657852 0.226133
H129  H     H_    0.995562 0.383369 0.629096 0.220385
C220  C     C_3   0.333838 0.460234 0.147278 -0.812976
H130  H     H_    0.339211 0.511023 0.140872 0.237849
H131  H     H_    0.310062 0.452125 0.193597 0.204776
H132  H     H_    0.379184 0.439209 0.147556 0.242563
C221  C     C_3   0.970678 0.633695 0.637445 -0.829489
H133  H     H_    0.982366 0.682042 0.650332 0.216899
H134  H     H_    0.937470 0.635243 0.601039 0.250552
H135  H     H_    0.014695 0.615175 0.620504 0.230986
C222  C     C_3   0.638264 0.633229 0.048594 -0.828166
H136  H     H_    0.599684 0.625321 0.083802 0.252482
H137  H     H_    0.650050 0.683517 0.045765 0.228152
H138  H     H_    0.625068 0.619178 0.002666 0.219901
C223  C     C_3   0.142831 0.530988 0.316665 -0.841356
H139  H     H_    0.132301 0.480438 0.318668 0.231619
H140  H     H_    0.185836 0.538943 0.286739 0.217196
H141  H     H_    0.151912 0.547779 0.362999 0.245144
C224  C     C_3   0.358750 0.598103 0.891038 -0.832583
H142  H     H_    0.354401 0.551247 0.871741 0.249230
H143  H     H_    0.356148 0.630696 0.851389 0.203570
H144  H     H_    0.403531 0.608422 0.910270 0.260111
C225  C     C_3   0.579770 0.663699 0.874184 -0.835536
H145  H     H_    0.530276 0.662761 0.864275 0.243962
H146  H     H_    0.605625 0.682058 0.831542 0.209105
H147  H     H_    0.594825 0.616756 0.883547 0.248066
C226  C     C_3   0.458216 0.142786 0.661318 -0.827186
H148  H     H_    0.421372 0.108532 0.652176 0.246678
H149  H     H_    0.436256 0.179823 0.687811 0.202836
H150  H     H_    0.478905 0.163213 0.617138 0.242038
C227  C     C_3   0.545810 0.333819 0.135467 -0.825758
H151  H     H_    0.494829 0.333452 0.134645 0.238211
H152  H     H_    0.555316 0.308941 0.178672 0.206776
H153  H     H_    0.566385 0.381646 0.137473 0.254617
C228  C     C_3   0.611602 0.921882 0.350905 -0.809282
H154  H     H_    0.599826 0.889984 0.390850 0.249926
H155  H     H_    0.659420 0.914095 0.333284 0.218762
H156  H     H_    0.611251 0.970068 0.365481 0.219753
C229  C     C_3   0.362243 0.355212 0.983854 -0.847208
H157  H     H_    0.361955 0.394356 0.950729 0.244750
H158  H     H_    0.313692 0.340687 0.997543 0.233285
H159  H     H_    0.383665 0.368685 0.026721 0.227140
C230  C     C_3   0.399695 0.882160 0.646284 -0.852356
H160  H     H_    0.418621 0.848897 0.612946 0.236585
H161  H     H_    0.352252 0.865128 0.662387 0.206935
H162  H     H_    0.395536 0.925474 0.621557 0.236981
C231  C     C_3   0.397608 0.642995 0.109443 -0.849696
H163  H     H_    0.443577 0.649054 0.128684 0.247842
H164  H     H_    0.363160 0.647541 0.148670 0.207987
H165  H     H_    0.389384 0.597009 0.090938 0.257119
C232  C     C_3   0.372670 0.051788 0.364087 -0.813800
H166  H     H_    0.324775 0.048177 0.348916 0.217311
H167  H     H_    0.373616 0.084359 0.402531 0.252901
H168  H     H_    0.383013 0.004699 0.379108 0.223099
C233  C     C_3   0.333683 0.022549 0.647882 -0.921279
H169  H     H_    0.379857 0.020142 0.626106 0.214698
H170  H     H_    0.337486 0.043553 0.693766 0.236376
H171  H     H_    0.310571 0.975920 0.655299 0.241673
C234  C     C_3   0.864831 0.326746 0.557974 -0.821524
H172  H     H_    0.865423 0.330295 0.507044 0.237454
H173  H     H_    0.820529 0.301404 0.572951 0.212445
H174  H     H_    0.865174 0.372956 0.578987 0.246730
C235  C     C_3   0.631680 0.937349 0.635397 -0.816531
H175  H     H_    0.615716 0.911461 0.595819 0.261641
H176  H     H_    0.657101 0.904421 0.662622 0.219784
H177  H     H_    0.592248 0.950950 0.665310 0.230330
C236  C     C_3   0.136375 0.657559 0.420318 -0.836496
H178  H     H_    0.094542 0.640850 0.397639 0.236939
H179  H     H_    0.169016 0.678753 0.383686 0.206569
H180  H     H_    0.158283 0.618236 0.441820 0.234099
C237  C     C_3   0.666422 0.092038 0.393492 -0.839487
H181  H     H_    0.667740 0.117895 0.436930 0.248492
H182  H     H_    0.682329 0.125631 0.355940 0.218979
H183  H     H_    0.618753 0.075429 0.385113 0.238931
C238  C     C_3   0.121014 0.363153 0.405363 -0.820934
H184  H     H_    0.136824 0.354236 0.452141 0.242373
H185  H     H_    0.160469 0.353531 0.372738 0.208086
H186  H     H_    0.111948 0.412025 0.399198 0.259035
C239  C     C_3   0.329620 0.849348 0.498082 -0.841748
H187  H     H_    0.333007 0.867954 0.544781 0.240863
H188  H     H_    0.304163 0.803708 0.503918 0.197976
H189  H     H_    0.375880 0.841459 0.476317 0.250134
C240  C     C_3   0.919419 0.640658 0.378204 -0.821354
H190  H     H_    0.889834 0.598517 0.390764 0.250645
H191  H     H_    0.907488 0.657469 0.332130 0.213059
H192  H     H_    0.968454 0.629100 0.373739 0.214637

loop_
_geom_bond_atom_site_label_1
_geom_bond_atom_site_label_2
_ccdc_geom_bond_type
Cu2   Cu4   S    
C207  H91   S    
C224  H142  S    
C71   C122  A    
Cu12  O38   S    
C33   C166  A    
C11   C181  S    
C39   C87   A    
Cu9   O31   S    
C202  H76   S    
C71   C239  S    
C37   C205  S    
C227  H151  S    
C130  C174  A    
C236  H180  S    
Cu2   O13   S    
C111  H33   S    
C43   C211  S    
C135  C173  A    
C217  H122  S    
C24   O48   A    
C193  H51   S    
C18   O36   A    
C97   H31   S    
C99   H29   S    
C234  H174  S    
Cu12  O43   S    
C232  H166  S    
C11   O21   A    
C212  H108  S    
C218  H125  S    
C42   C159  A    
C230  H161  S    
Cu7   O42   S    
Cu8   O37   S    
C91   C100  A    
C29   C160  A    
C134  C174  A    
C44   C92   A    
C210  H102  S    
C14   O26   A    
C203  H80   S    
C47   C146  A    
C221  H134  S    
C5    O9    A    
C129  C173  A    
C27   C75   A    
C2    O2    A    
C206  H89   S    
C206  H88   S    
C37   C168  A    
C123  C156  A    
C109  H35   S    
C54   C222  S    
C26   C167  A    
C208  H96   S    
C30   C198  S    
C15   C173  S    
C31   C199  S    
C51   C219  S    
C211  H105  S    
C228  H156  S    
Cu9   O46   S    
C235  H175  S    
C70   C129  A    
Cu11  O40   S    
Cu1   O24   S    
Cu1   O1    S    
C16   O32   A    
C231  H165  S    
C64   C232  S    
Cu5   O10   S    
C32   C80   A    
C61   C144  A    
C98   H30   S    
C124  C172  A    
C70   C238  S    
C226  H150  S    
Cu3   O22   S    
C93   H19   S    
C28   C196  S    
C204  H84   S    
C68   C116  A    
C56   C141  A    
C20   C172  S    
C235  H176  S    
C213  H109  S    
C232  H168  S    
C100  H32   S    
C78   C113  A    
Cu5   O17   S    
C24   C176  S    
C162  C190  A    
C202  H78   S    
C72   C240  S    
Cu10  O30   S    
C96   C109  A    
C201  H75   S    
C27   C156  A    
C13   C175  S    
C46   C153  A    
C80   C117  A    
Cu12  O36   S    
C122  C167  A    
C48   C96   A    
C65   C113  A    
C90   H22   S    
Cu3   O7    S    
C2    C190  S    
C45   C213  S    
C49   C217  S    
C118  H42   S    
C18   O34   A    
C68   C131  A    
C216  H118  S    
C168  C192  A    
C71   C119  A    
C20   O38   A    
C40   C88   A    
Cu5   O16   S    
C85   H11   S    
C237  H182  S    
C155  C187  A    
C219  H127  S    
C47   C215  S    
C72   C133  A    
C131  C164  A    
C3    O7    A    
C140  C180  A    
C63   C111  A    
C229  H157  S    
C125  C171  A    
C139  C179  A    
C49   C97   A    
C205  H87   S    
Cu8   Cu10  S    
C64   C125  A    
C102  H26   S    
C201  H74   S    
C107  H37   S    
C6    O12   A    
C58   C106  A    
C220  H130  S    
C209  H97   S    
C105  H39   S    
C214  H113  S    
C41   C89   A    
C136  C176  A    
C205  H85   S    
Cu8   O32   S    
C149  C183  A    
C60   C123  A    
C42   C210  S    
C45   C93   A    
C238  H186  S    
C218  H124  S    
C125  C160  A    
C73   C110  A    
C225  H145  S    
C154  C186  A    
C57   C142  A    
C6    C182  S    
C59   C140  A    
C77   H3    S    
C67   C235  S    
C55   C223  S    
C145  C181  A    
C52   C139  A    
C17   O33   A    
C7    O13   A    
C199  H68   S    
C86   C97   A    
C84   H16   S    
C144  C180  A    
C69   C128  A    
C194  H53   S    
C23   C169  S    
Cu11  O45   S    
C213  H111  S    
C19   C177  S    
C53   C221  S    
C124  C163  A    
C76   H8    S    
C200  H71   S    
C90   C111  A    
C3    C185  S    
C127  C154  A    
C222  H137  S    
C58   C226  S    
C1    C187  S    
C167  C189  A    
C216  H120  S    
C139  C148  A    
C50   C98   A    
C20   O40   A    
C21   O41   A    
C5    C191  S    
Cu11  O41   S    
C209  H99   S    
Cu6   O23   S    
C62   C230  S    
C122  C170  A    
C3    O5    A    
C52   C100  A    
C59   C107  A    
Cu8   O33   S    
C79   C106  A    
C42   C90   A    
C36   C204  S    
C229  H159  S    
C86   H10   S    
C239  H187  S    
C126  C170  A    
C133  C175  A    
C46   C94   A    
C198  H66   S    
C72   C120  A    
C238  H184  S    
Cu6   O19   S    
C6    O10   A    
C39   C162  A    
C7    O15   A    
C240  H191  S    
Cu7   Cu9   S    
C14   C178  S    
C48   C216  S    
C80   H4    S    
C198  H64   S    
C223  H141  S    
Cu8   O26   S    
C121  C158  A    
C19   O37   A    
C128  C165  A    
C197  H63   S    
C137  C150  A    
C44   C212  S    
C218  H126  S    
C213  H110  S    
C233  H171  S    
C9    O17   A    
C132  C147  A    
C73   H7    S    
C157  C187  A    
C110  H34   S    
C115  H45   S    
C34   C202  S    
C220  H132  S    
C127  C169  A    
C113  H47   S    
C65   C126  A    
C159  C185  A    
C119  H41   S    
C217  H121  S    
C61   C229  S    
C142  C178  A    
C62   C110  A    
C70   C118  A    
C38   C206  S    
C234  H173  S    
C39   C207  S    
C25   C73   A    
C143  C177  A    
Cu5   Cu6   S    
C212  H107  S    
C17   O35   A    
C1    O3    A    
C29   C77   A    
C4    O8    A    
C230  H160  S    
C18   C170  S    
C32   C200  S    
C94   H18   S    
C19   O39   A    
C120  H44   S    
C144  C157  A    
C164  C192  A    
C16   C180  S    
C141  C152  A    
C210  H101  S    
C103  H25   S    
C143  C146  A    
C94   C105  A    
C221  H133  S    
Cu3   O3    S    
C224  H143  S    
C4    C192  S    
C121  C169  A    
C21   O43   A    
Cu11  Cu12  S    
C22   O44   A    
C31   C154  A    
C198  H65   S    
C136  C149  A    
C150  C182  A    
C66   C234  S    
C135  C162  A    
C208  H95   S    
C95   H17   S    
C201  H73   S    
C50   C218  S    
C239  H189  S    
C211  H104  S    
C83   H13   S    
C228  H155  S    
C54   C137  A    
C147  C183  A    
C81   H15   S    
C76   C115  A    
C132  C176  A    
C231  H164  S    
C26   C74   A    
C43   C148  A    
C65   C233  S    
C53   C101  A    
C226  H149  S    
Cu1   O5    S    
C27   C195  S    
C204  H83   S    
C126  C161  A    
C60   C108  A    
C227  H152  S    
C9    O19   A    
C75   C108  A    
C207  H92   S    
C10   O20   A    
C32   C165  A    
C232  H167  S    
C106  H38   S    
C158  C186  A    
C202  H77   S    
C197  H62   S    
C151  C181  A    
C69   C237  S    
C156  C188  A    
C146  C182  A    
C219  H129  S    
C56   C104  A    
C8    O14   A    
C217  H123  S    
C12   O22   A    
C238  H185  S    
C35   C83   A    
C41   C150  A    
C233  H169  S    
C81   C118  A    
Cu2   O2    S    
C40   C208  S    
C78   H2    S    
C237  H181  S    
C9    C183  S    
C77   C112  A    
C56   C224  S    
Cu5   O21   S    
C36   C147  A    
C230  H162  S    
C46   C214  S    
Cu4   O6    S    
C193  H50   S    
C129  C166  A    
C38   C86   A    
C221  H135  S    
Cu10  O39   S    
C236  H179  S    
C22   O42   A    
C206  H90   S    
C23   O47   A    
C225  H147  S    
C214  H112  S    
C134  C145  A    
C75   H5    S    
C66   C114  A    
C141  C179  A    
C84   C99   A    
C54   C102  A    
Cu4   O11   S    
C193  H49   S    
C51   C132  A    
C48   C157  A    
Cu4   O4    S    
C35   C164  A    
C45   C152  A    
C209  H98   S    
C21   C171  S    
Cu9   O27   S    
C5    O11   A    
C200  H72   S    
Cu10  O28   S    
C196  H58   S    
Cu7   O25   S    
C131  C175  A    
C165  C191  A    
C40   C149  A    
Cu2   O8    S    
C223  H139  S    
C199  H67   S    
C64   C112  A    
C196  H59   S    
C140  C155  A    
C66   C135  A    
C92   H24   S    
C194  H52   S    
C10   O18   A    
C130  C151  A    
C215  H116  S    
C7    C189  S    
C55   C130  A    
C30   C161  A    
C52   C220  S    
C123  C171  A    
C63   C231  S    
C12   C188  S    
C57   C105  A    
C49   C134  A    
C25   C193  S    
C89   C102  A    
Cu12  O47   S    
Cu2   O9    S    
C200  H70   S    
C15   O31   A    
C8    O16   A    
C61   C109  A    
C67   C124  A    
C12   O24   A    
C88   C101  A    
C95   C98   A    
C13   O25   A    
C203  H79   S    
C195  H55   S    
C74   C119  A    
C216  H119  S    
C74   H6    S    
C57   C225  S    
C37   C85   A    
C195  H57   S    
Cu6   O14   S    
C237  H183  S    
C219  H128  S    
C104  H28   S    
C114  H46   S    
C55   C103  A    
C229  H158  S    
C67   C115  A    
C87   C114  A    
C10   C186  S    
C138  C159  A    
C96   H20   S    
C82   C103  A    
C220  H131  S    
C240  H190  S    
C23   O45   A    
C214  H114  S    
C8    C184  S    
C68   C236  S    
C58   C127  A    
C205  H86   S    
C91   H21   S    
Cu1   O18   S    
C35   C203  S    
C33   C201  S    
C231  H163  S    
C53   C136  A    
C89   H23   S    
Cu3   O20   S    
C93   C104  A    
C22   C174  S    
C233  H170  S    
C51   C99   A    
C225  H146  S    
C215  H117  S    
C79   H1    S    
C161  C189  A    
C196  H60   S    
C116  H48   S    
Cu7   O29   S    
C112  H36   S    
C236  H178  S    
C43   C91   A    
C199  H69   S    
C166  C190  A    
C85   C120  A    
C38   C145  A    
C60   C228  S    
C1    O1    A    
C24   O46   A    
C92   C107  A    
C82   H14   S    
C148  C184  A    
C194  H54   S    
C108  H40   S    
Cu1   Cu3   S    
C234  H172  S    
C87   H9    S    
C101  H27   S    
C11   O23   A    
C212  H106  S    
Cu10  O35   S    
Cu11  O34   S    
C128  C172  A    
C63   C138  A    
C15   O29   A    
C152  C184  A    
C160  C188  A    
C138  C178  A    
C25   C158  A    
C222  H138  S    
C50   C143  A    
C13   O27   A    
C210  H100  S    
C222  H136  S    
C203  H81   S    
C14   O28   A    
C59   C227  S    
C4    O6    A    
C88   H12   S    
C44   C155  A    
C83   C116  A    
C2    O4    A    
C163  C191  A    
C34   C151  A    
C31   C79   A    
C207  H93   S    
C34   C82   A    
C208  H94   S    
C117  H43   S    
C239  H188  S    
C41   C209  S    
C211  H103  S    
C17   C179  S    
C228  H154  S    
C215  H115  S    
C195  H56   S    
C153  C185  A    
C36   C84   A    
Cu9   O44   S    
C69   C117  A    
C224  H144  S    
C227  H153  S    
C142  C153  A    
C16   O30   A    
C197  H61   S    
C240  H192  S    
C29   C197  S    
C235  H177  S    
C30   C78   A    
C133  C168  A    
C137  C177  A    
C28   C163  A    
C223  H140  S    
C226  H148  S    
C26   C194  S    
C47   C95   A    
Cu7   O48   S    
Cu4   O15   S    
C204  H82   S    
C33   C81   A    
C62   C121  A    
Cu6   O12   S    
C28   C76   A    
