data_mof_unit_60719.cif
_audit_creation_date              2012-12-10T19:52:15-0500
_audit_creation_method            fapswitch 2.2
_symmetry_space_group_name_H-M    P1
_symmetry_Int_Tables_number       1
_space_group_crystal_system       triclinic
_cell_length_a                    18.273952
_cell_length_b                    18.274016
_cell_length_c                    31.915582
_cell_angle_alpha                 90.000383
_cell_angle_beta                  89.997942
_cell_angle_gamma                 90.063624
_cell_volume                      10657.8347217

loop_
_atom_site_label
_atom_site_type_symbol
_atom_type_description
_atom_site_fract_x
_atom_site_fract_y
_atom_site_fract_z
_atom_type_partial_charge
C1    C     C_R   0.641232 0.500054 0.000000 0.931153
C2    C     C_1   0.499784 0.500205 0.163106 0.008688
C3    C     C_3   0.759845 0.443339 0.265769 -0.776795
C4    C     C_3   0.381073 0.347698 0.749110 0.106720
C5    C     C_3   0.310300 0.312958 0.733799 -0.760695
C6    C     C_3   0.349722 0.377907 0.251281 0.111217
C7    C     C_3   0.317641 0.305783 0.266429 -0.765813
C8    C     C_3   0.191951 0.975726 0.248770 0.110798
C9    C     C_3   0.256699 0.930347 0.234005 -0.767206
C10   C     C_3   0.179401 0.928846 0.750795 0.116011
C11   C     C_3   0.258085 0.935604 0.765808 -0.776151
C12   C     C_3   0.880611 0.848030 0.249115 0.106677
C13   C     C_1   0.000164 0.000225 0.336894 0.008653
C14   C     C_3   0.809739 0.813493 0.233801 -0.760846
C15   C     C_3   0.846263 0.882258 0.751269 0.110703
C16   C     C_3   0.812207 0.811018 0.766381 -0.764984
C17   C     C_1   0.451018 0.637004 0.720358 0.223852
C18   C     C_1   0.468962 0.642208 0.279672 0.224555
C19   C     C_1   0.951458 0.137119 0.220353 0.224077
C20   C     C_1   0.973113 0.143010 0.779679 0.224394
C21   C     C_1   0.550580 0.364450 0.779183 0.181218
C22   C     C_1   0.529018 0.358312 0.220800 0.180245
C23   C     C_1   0.050169 0.864263 0.279189 0.181202
C24   C     C_1   0.999792 0.000194 0.663105 0.008706
C25   C     C_1   0.024880 0.857490 0.720790 0.180242
C26   C     C_1   0.499863 0.500439 0.663111 0.084467
C27   C     C_1   0.499892 0.500472 0.336889 0.084431
C28   C     C_1   0.999870 0.000407 0.163111 0.084436
C29   C     C_1   0.999910 0.000437 0.836888 0.084408
C30   C     C_1   0.717659 0.500146 0.000001 -0.181480
C31   C     C_1   0.282341 0.499963 0.999999 -0.179588
C32   C     C_1   0.217659 0.000146 0.500001 -0.181433
C33   C     C_R   0.358768 0.499986 1.000000 0.932393
C34   C     C_1   0.782341 0.999963 0.499999 -0.179638
C35   C     C_1   0.782409 0.500121 0.000002 -0.178314
C36   C     C_1   0.217591 0.499970 0.999998 -0.175889
C37   C     C_1   0.282409 0.000121 0.500002 -0.178271
C38   C     C_1   0.717591 0.999970 0.499998 -0.175971
C39   C     C_R   0.499966 0.358646 0.500000 0.936385
C40   C     C_R   0.999966 0.858646 0.000000 0.936368
C41   C     C_R   0.499996 0.499861 0.581343 0.898421
C42   C     C_R   0.499999 0.499861 0.418657 0.898560
C43   C     C_R   0.999996 0.999858 0.081343 0.898433
C44   C     C_R   0.141232 0.000054 0.500000 0.931169
C45   C     C_R   0.999999 0.999857 0.918657 0.898543
C46   C     C_R   0.500034 0.641073 0.500000 0.929285
C47   C     C_R   0.000034 0.141073 1.000000 0.929295
C48   C     C_R   0.999976 0.641129 0.000000 0.929027
C49   C     C_R   0.499976 0.141129 0.500000 0.929067
C50   C     C_R   0.858837 0.500039 0.000001 0.928616
C51   C     C_R   0.141163 0.499993 0.999999 0.928592
C52   C     C_R   0.358837 0.000039 0.500001 0.928642
C53   C     C_R   0.641163 0.999993 0.499999 0.928618
C54   C     C_R   0.500019 0.500005 0.918657 0.902142
C55   C     C_R   0.858768 0.999986 0.500000 0.932343
C56   C     C_R   0.500005 0.500005 0.081343 0.902005
C57   C     C_R   0.000019 0.000005 0.418657 0.902134
C58   C     C_R   0.000004 0.000005 0.581342 0.901979
C59   C     C_R   0.000022 0.358818 1.000000 0.927523
C60   C     C_R   0.500022 0.858819 0.500000 0.927533
C61   C     C_1   0.499907 0.282253 0.500000 -0.174250
C62   C     C_1   0.999907 0.782253 0.000000 -0.174287
C63   C     C_1   0.999923 0.717523 0.000000 -0.173483
C64   C     C_1   0.499923 0.217523 0.500000 -0.173458
C65   C     C_1   0.500091 0.717555 0.500000 -0.178029
C66   C     C_3   0.476606 0.566025 0.736167 -0.129196
C67   C     C_1   0.000091 0.217555 1.000000 -0.178002
C68   C     C_1   0.000074 0.282336 1.000000 -0.176466
C69   C     C_1   0.500074 0.782336 0.500000 -0.176526
C70   C     C_3   0.567703 0.488561 0.736124 0.425092
C71   C     C_3   0.565376 0.479968 0.263800 0.419956
C72   C     C_3   0.455200 0.448218 0.736207 0.422339
C73   C     C_3   0.448642 0.454371 0.263856 0.426019
C74   C     C_3   0.067677 0.988314 0.236124 0.425077
C75   C     C_3   0.064775 0.978036 0.763798 0.419938
C76   C     C_3   0.955048 0.948322 0.236210 0.422349
C77   C     C_3   0.484879 0.568458 0.263845 -0.129580
C78   C     C_3   0.947348 0.955838 0.763853 0.426095
C79   C     C_3   0.544856 0.553920 0.763847 -0.102304
C80   C     C_3   0.550783 0.547621 0.236130 -0.088939
C81   C     C_3   0.431796 0.513332 0.763892 -0.089993
C82   C     C_3   0.433448 0.521948 0.236142 -0.103139
C83   C     C_3   0.045034 0.053747 0.263845 -0.102276
C84   C     C_3   0.052149 0.046092 0.736132 -0.088879
C85   C     C_3   0.931848 0.013512 0.263891 -0.090039
C86   C     C_3   0.934121 0.023833 0.736144 -0.103152
C87   C     C_1   0.500093 0.500061 0.874302 -0.168937
C88   C     C_3   0.976823 0.066062 0.236165 -0.129302
C89   C     C_1   0.499907 0.500053 0.125698 -0.168802
C90   C     C_1   0.000098 0.000056 0.374302 -0.168909
C91   C     C_1   0.999910 0.000050 0.625697 -0.168793
C92   C     C_1   0.499963 0.500115 0.625701 -0.152083
C93   C     C_1   0.499976 0.500131 0.374299 -0.152053
C94   C     C_1   0.999965 0.000097 0.125701 -0.152094
C95   C     C_1   0.999981 0.000110 0.874299 -0.152083
C96   C     C_3   0.523465 0.434975 0.763588 -0.180703
C97   C     C_3   0.514542 0.432479 0.236401 -0.180954
C98   C     C_3   0.023273 0.934870 0.263591 -0.180707
C99   C     C_3   0.986880 0.068828 0.763848 -0.129552
C100  C     C_3   0.012582 0.932047 0.736395 -0.180937
C101  C     C_3   0.500201 0.500519 0.791505 -0.065755
C102  C     C_3   0.499607 0.500427 0.208494 -0.065493
C103  C     C_3   0.000213 0.000490 0.291506 -0.065745
C104  C     C_3   0.999623 0.000409 0.708494 -0.065492
C105  C     C_3   0.499692 0.500937 0.708475 -0.011088
C106  C     C_3   0.499742 0.500995 0.291524 -0.010627
C107  C     C_3   0.999704 0.000899 0.208476 -0.011087
C108  C     C_3   0.999780 0.000956 0.791524 -0.010649
C109  C     C_1   0.592110 0.612686 0.779824 0.179180
C110  C     C_1   0.500155 0.500240 0.836894 0.008641
C111  C     C_1   0.606379 0.598969 0.220581 0.211219
C112  C     C_1   0.357563 0.527347 0.779547 0.212143
C113  C     C_1   0.362389 0.546761 0.220068 0.180898
C114  C     C_1   0.092474 0.112365 0.279820 0.179214
C115  C     C_1   0.109202 0.095818 0.720585 0.211174
C116  C     C_1   0.857659 0.027760 0.279545 0.212309
C117  C     C_1   0.863806 0.050694 0.720079 0.180917
C118  C     C_3   0.692014 0.476356 0.748770 0.110850
C119  C     C_3   0.756902 0.431182 0.734001 -0.767103
C120  C     C_3   0.681388 0.434146 0.250793 0.116218
H1    H     H_    0.674024 0.454187 0.779638 0.138016
H2    H     H_    0.772146 0.502279 0.270598 0.256859
H3    H     H_    0.369509 0.375255 0.779544 0.134093
H4    H     H_    0.421634 0.303394 0.754266 0.163304
H5    H     H_    0.320023 0.283264 0.703949 0.263126
H6    H     H_    0.289639 0.273636 0.757560 0.209915
H7    H     H_    0.268311 0.355916 0.728614 0.260114
H8    H     H_    0.376975 0.367756 0.220589 0.137690
H9    H     H_    0.304026 0.417099 0.246650 0.160494
H10   H     H_    0.288271 0.314031 0.296529 0.264078
H11   H     H_    0.278522 0.284229 0.242819 0.209324
H12   H     H_    0.710601 0.533774 0.752983 0.158032
H13   H     H_    0.362061 0.265149 0.271090 0.258641
H14   H     H_    0.173894 0.953622 0.279640 0.138069
H15   H     H_    0.210718 0.033087 0.252978 0.157904
H16   H     H_    0.277596 0.951953 0.203750 0.260080
H17   H     H_    0.301246 0.932764 0.257633 0.207388
H18   H     H_    0.239715 0.872435 0.229774 0.263995
H19   H     H_    0.174938 0.958012 0.720234 0.132143
H20   H     H_    0.167189 0.869906 0.745933 0.165579
H21   H     H_    0.265244 0.905530 0.795770 0.263545
H22   H     H_    0.295693 0.912139 0.742016 0.210187
H23   H     H_    0.777732 0.452861 0.703748 0.260168
H24   H     H_    0.272180 0.994131 0.770679 0.256954
H25   H     H_    0.869121 0.875627 0.279546 0.134089
H26   H     H_    0.921040 0.803608 0.254276 0.163226
H27   H     H_    0.819381 0.783766 0.203954 0.263026
H28   H     H_    0.788959 0.774235 0.257563 0.209773
H29   H     H_    0.767875 0.856571 0.228611 0.260235
H30   H     H_    0.873190 0.871412 0.720561 0.137662
H31   H     H_    0.801670 0.922714 0.746674 0.160453
H32   H     H_    0.783103 0.820015 0.796495 0.263924
H33   H     H_    0.772488 0.790598 0.742769 0.209343
H34   H     H_    0.801441 0.433732 0.757630 0.207355
H35   H     H_    0.855485 0.769156 0.771003 0.258722
H36   H     H_    0.740098 0.373219 0.729765 0.263968
H37   H     H_    0.676002 0.463097 0.220213 0.132012
H38   H     H_    0.670968 0.374854 0.245973 0.165663
H39   H     H_    0.767954 0.413558 0.295747 0.263602
H40   H     H_    0.798126 0.420992 0.241977 0.209929
N1    N     N_1   0.629302 0.659007 0.792420 -0.205591
N2    N     N_1   0.456421 0.700301 0.292148 -0.193029
N3    N     N_1   0.931476 0.193091 0.207890 -0.195719
N4    N     N_1   0.962268 0.201444 0.792157 -0.193054
N5    N     N_1   0.572047 0.308925 0.791489 -0.195866
N6    N     N_1   0.540319 0.299857 0.208489 -0.196607
N7    N     N_1   0.071464 0.808674 0.291498 -0.195829
N8    N     N_1   0.034465 0.798729 0.708475 -0.196851
N9    N     N_1   0.650218 0.639394 0.208346 -0.202611
N10   N     N_1   0.299069 0.538345 0.791887 -0.192930
N11   N     N_1   0.306437 0.566363 0.207376 -0.195116
N12   N     N_1   0.129813 0.158569 0.292414 -0.205669
N13   N     N_1   0.154186 0.134966 0.708352 -0.202699
N14   N     N_1   0.799200 0.038941 0.291885 -0.192723
N15   N     N_1   0.808441 0.071908 0.707396 -0.195114
N16   N     N_1   0.430860 0.692915 0.707899 -0.196265
O1    O     O_R   0.607370 0.439420 0.000000 -0.617726
O2    O     O_R   0.392710 0.560580 0.000000 -0.615886
O3    O     O_R   0.107290 0.060580 0.500000 -0.616772
O4    O     O_R   0.892710 0.060580 0.500000 -0.615863
O5    O     O_R   0.500000 0.439420 0.938390 -0.616725
O6    O     O_R   0.500000 0.439420 0.061610 -0.616557
O7    O     O_R   1.000000 0.939420 0.438390 -0.616728
O8    O     O_R   0.000000 0.939420 0.561610 -0.616560
O9    O     O_R   0.500000 0.560580 0.938390 -0.612573
O10   O     O_R   0.500000 0.560580 0.061610 -0.612425
O11   O     O_R   1.000000 0.060580 0.438390 -0.612544
O12   O     O_R   0.392630 0.439420 0.000000 -0.619283
O13   O     O_R   1.000000 0.060580 0.561610 -0.612400
O14   O     O_R   0.560550 0.392540 0.500000 -0.616250
O15   O     O_R   0.439450 0.392540 0.500000 -0.616213
O16   O     O_R   0.060550 0.892540 0.000000 -0.616256
O17   O     O_R   0.939450 0.892540 0.000000 -0.616218
O18   O     O_R   0.560580 0.499860 0.561610 -0.611109
O19   O     O_R   0.560580 0.499860 0.438390 -0.611161
O20   O     O_R   0.439420 0.499860 0.561610 -0.612830
O21   O     O_R   0.439420 0.499860 0.438390 -0.612881
O22   O     O_R   0.060580 0.999860 0.061610 -0.611151
O23   O     O_R   0.107370 0.939420 0.500000 -0.617765
O24   O     O_R   0.060580 0.999860 0.938390 -0.611282
O25   O     O_R   0.939420 0.999860 0.061610 -0.612788
O26   O     O_R   0.939420 0.999860 0.938390 -0.612748
O27   O     O_R   0.560630 0.607160 0.500000 -0.618587
O28   O     O_R   0.439370 0.607160 0.500000 -0.617485
O29   O     O_R   0.060630 0.107160 0.000000 -0.618609
O30   O     O_R   0.939370 0.107160 0.000000 -0.617468
O31   O     O_R   1.000000 0.607310 0.965210 -0.616882
O32   O     O_R   1.000000 0.607310 0.034790 -0.616810
O33   O     O_R   0.500000 0.107310 0.465210 -0.616886
O34   O     O_R   0.892630 0.939420 0.500000 -0.619277
O35   O     O_R   0.500000 0.107310 0.534790 -0.616784
O36   O     O_R   0.892680 0.500000 0.965220 -0.619007
O37   O     O_R   0.892680 0.500000 0.034780 -0.618814
O38   O     O_R   0.107320 0.500000 0.965220 -0.616727
O39   O     O_R   0.107320 0.500000 0.034780 -0.617683
O40   O     O_R   0.392680 0.000000 0.465220 -0.619039
O41   O     O_R   0.392680 0.000000 0.534780 -0.618717
O42   O     O_R   0.607320 0.000000 0.465220 -0.616712
O43   O     O_R   0.607320 0.000000 0.534780 -0.617815
O44   O     O_3   0.636617 0.473820 0.717988 -0.595743
O45   O     O_R   1.000000 0.392690 0.965220 -0.617244
O46   O     O_3   0.633472 0.461346 0.281767 -0.596467
O47   O     O_3   0.407334 0.396287 0.718187 -0.596134
O48   O     O_3   0.398039 0.405270 0.282032 -0.596295
O49   O     O_3   0.136545 0.973355 0.217989 -0.595764
O50   O     O_3   0.132299 0.957442 0.781767 -0.596474
O51   O     O_3   0.907020 0.896538 0.218191 -0.596099
O52   O     O_3   0.895343 0.908218 0.782023 -0.596236
O53   O     O_R   1.000000 0.392690 0.034780 -0.618282
O54   O     O_R   0.500000 0.892690 0.465220 -0.617273
O55   O     O_R   0.500000 0.892690 0.534780 -0.618330
O56   O     O_R   0.607290 0.560580 0.000000 -0.616799
Zn1   Zn    Zn3+2 0.500000 0.419100 0.000000 0.986762
Zn2   Zn    Zn3+2 1.000000 0.500000 0.046450 0.989378
Zn3   Zn    Zn3+2 0.500000 0.000000 0.453550 0.991049
Zn4   Zn    Zn3+2 0.500000 0.000000 0.546450 0.989276
Zn5   Zn    Zn3+2 1.000000 0.919100 0.500000 0.986778
Zn6   Zn    Zn3+2 0.500000 0.580900 0.000000 0.993838
Zn7   Zn    Zn3+2 1.000000 0.080900 0.500000 0.993924
Zn8   Zn    Zn3+2 0.580910 0.499830 0.500000 0.998168
Zn9   Zn    Zn3+2 0.419090 0.499830 0.500000 0.998065
Zn10  Zn    Zn3+2 0.080910 0.999830 0.000000 0.998028
Zn11  Zn    Zn3+2 0.919090 0.999830 0.000000 0.998151
Zn12  Zn    Zn3+2 1.000000 0.500000 0.953550 0.991177

loop_
_geom_bond_atom_site_label_1
_geom_bond_atom_site_label_2
_ccdc_geom_bond_type
C53   O43   A    
C120  H38   S    
C119  H36   S    
C58   O8    A    
O24   Zn10  S    
C13   C90   T    
C2    C89   T    
C42   C93   S    
C119  H23   S    
C55   O4    A    
C73   C82   S    
O30   Zn11  S    
C1    O56   A    
C59   O53   A    
C100  C104  S    
C74   C83   S    
C86   C104  S    
C37   C52   S    
C20   C99   S    
C15   H31   S    
O28   Zn9   S    
C21   N5    T    
C84   C115  S    
C74   C98   S    
C87   C110  T    
C81   C101  S    
O22   Zn10  S    
C45   O24   A    
C73   C97   S    
C99   C108  S    
C71   C97   S    
O21   Zn9   S    
C17   C66   S    
C41   O18   A    
C83   C103  S    
C30   C35   T    
C60   O54   A    
C60   C69   S    
C78   C108  S    
C77   C106  S    
O42   Zn3   S    
C7    H13   S    
C74   O49   S    
C54   C87   S    
C75   C84   S    
C77   C80   S    
C2    C102  S    
C28   C107  S    
C76   C98   S    
C15   C16   S    
C60   O55   A    
C14   H28   S    
C52   O40   A    
C43   C94   S    
C40   C62   S    
O35   Zn4   S    
C4    H4    S    
C28   C94   T    
C12   H26   S    
O53   Zn2   S    
C118  C119  S    
C75   C100  S    
C7    H10   S    
O3    Zn7   S    
C59   O45   A    
O6    Zn1   S    
C74   C107  S    
O10   Zn6   S    
C1    O1    A    
C112  N10   T    
C45   O26   A    
C54   O9    A    
C5    H6    S    
C43   O25   A    
C31   C33   S    
C29   C108  S    
O55   Zn4   S    
C13   C103  S    
C11   H24   S    
C7    H11   S    
C97   C102  S    
C85   C103  S    
C17   N16   T    
C44   O3    A    
O29   Zn10  S    
C78   C86   S    
C46   O28   A    
C83   C88   S    
C33   O2    A    
C50   O36   A    
C34   C55   S    
C22   C97   S    
C96   C101  S    
C8    H15   S    
O56   Zn6   S    
O17   Zn11  S    
C83   C114  S    
C5    H7    S    
O39   Zn2   S    
C10   H20   S    
C58   O13   A    
C6    H9    S    
C75   C108  S    
O23   Zn5   S    
O41   Zn4   S    
C47   C67   S    
C71   C80   S    
C48   O31   A    
C10   O50   S    
C35   C50   S    
C6    O48   S    
C40   O17   A    
C85   C116  S    
C25   N8    T    
C78   O52   S    
C39   C61   S    
O16   Zn10  S    
C57   C90   S    
C79   C109  S    
C8    H14   S    
C67   C68   T    
O15   Zn9   S    
O34   Zn5   S    
C76   O51   S    
O19   Zn8   S    
O14   Zn8   S    
C46   C65   S    
C113  N11   T    
C19   C88   S    
C10   C11   S    
C29   C95   T    
C39   O14   A    
C47   O29   A    
C8    C9    S    
C48   C63   S    
O1    Zn1   S    
C119  H34   S    
C50   O37   A    
C101  C110  S    
C72   O47   S    
C14   H27   S    
C70   O44   S    
C4    H3    S    
C80   C102  S    
C111  N9    T    
C118  H1    S    
C72   C96   S    
C12   H25   S    
C61   C64   T    
C70   C96   S    
O33   Zn3   S    
C62   C63   T    
C66   C79   S    
C59   C68   S    
C39   O15   A    
C9    H18   S    
C25   C100  S    
O9    Zn6   S    
C40   O16   A    
C81   C112  S    
C48   O32   A    
C16   H35   S    
O27   Zn8   S    
C52   O41   A    
C54   O5    A    
O54   Zn3   S    
C16   H32   S    
C19   N3    T    
C32   C37   T    
C72   C105  S    
O38   Zn12  S    
C86   C99   S    
C11   H21   S    
C82   C102  S    
C36   C51   S    
C23   N7    T    
C53   O42   A    
C51   O38   A    
C56   C89   S    
C12   C14   S    
C76   C107  S    
C78   C100  S    
C3    H40   S    
C84   C104  S    
O4    Zn7   S    
C27   C93   T    
C10   H19   S    
C47   O30   A    
C66   C105  S    
C5    H5    S    
O37   Zn2   S    
C45   C95   S    
C24   C91   T    
O32   Zn2   S    
O8    Zn5   S    
O2    Zn6   S    
C71   O46   S    
C14   H29   S    
C58   C91   S    
C85   C88   S    
C51   O39   A    
C49   O35   A    
C88   C107  S    
C46   O27   A    
C120  O46   S    
C73   O48   S    
C70   C79   S    
C34   C38   T    
C84   C99   S    
O43   Zn4   S    
C42   O21   A    
C72   C81   S    
C82   C113  S    
C56   O10   A    
C4    C5    S    
C12   O51   S    
C70   C105  S    
C114  N12   T    
O11   Zn7   S    
C8    O49   S    
C3    H2    S    
C6    C7    S    
C21   C96   S    
C116  N14   T    
C41   O20   A    
C4    O47   S    
O20   Zn9   S    
O25   Zn11  S    
C26   C105  S    
C15   O52   S    
O18   Zn8   S    
C9    H17   S    
O36   Zn12  S    
C109  N1    T    
O31   Zn12  S    
O7    Zn5   S    
C66   C81   S    
C118  O44   S    
C18   N2    T    
C57   O7    A    
C117  N15   T    
C73   C106  S    
C120  H37   S    
C38   C53   S    
C56   O6    A    
C77   C82   S    
C18   C77   S    
C65   C69   T    
O26   Zn11  S    
C80   C111  S    
C1    C30   S    
C27   C106  S    
C33   O12   A    
O13   Zn7   S    
C42   O19   A    
C11   H22   S    
C57   O11   A    
C118  H12   S    
C3    C120  S    
C3    H39   S    
C6    H8    S    
C22   N6    T    
C9    H16   S    
O5    Zn1   S    
C86   C117  S    
C23   C98   S    
C41   C92   S    
C32   C44   S    
C44   O23   A    
C115  N13   T    
C71   C106  S    
C49   O33   A    
C16   H33   S    
C49   C64   S    
O40   Zn3   S    
C31   C36   T    
C79   C101  S    
C24   C104  S    
C43   O22   A    
C26   C92   T    
C76   C85   S    
C75   O50   S    
C15   H30   S    
O12   Zn1   S    
C98   C103  S    
C55   O34   A    
O45   Zn12  S    
C20   N4    T    
