data_mof_unit_18401.cif
_audit_creation_date              2013-03-05T15:41:02-0500
_audit_creation_method            fapswitch 2.2
_symmetry_space_group_name_H-M    P1
_symmetry_Int_Tables_number       1
_space_group_crystal_system       triclinic
_cell_length_a                    28.082272
_cell_length_b                    18.414482
_cell_length_c                    16.964551
_cell_angle_alpha                 90.142878
_cell_angle_beta                  61.121216
_cell_angle_gamma                 90.29689
_cell_volume                      7681.66876697

loop_
_atom_site_label
_atom_site_type_symbol
_atom_site_description
_atom_site_fract_x
_atom_site_fract_y
_atom_site_fract_z
_atom_type_partial_charge
O1    O     O_R   0.746490 0.236330 0.638080 -0.627892
O2    O     O_R   0.253510 0.763670 0.361920 -0.628078
O3    O     O_R   0.253510 0.236330 0.361920 -0.622683
O4    O     O_R   0.746490 0.763670 0.638080 -0.628118
O5    O     O_R   0.246490 0.736330 0.638080 -0.631729
O6    O     O_R   0.753510 0.263670 0.361920 -0.626283
O7    O     O_R   0.753510 0.736330 0.361920 -0.627090
O8    O     O_R   0.246490 0.263670 0.638080 -0.649004
O9    O     O_R   0.674170 0.186160 0.516270 -0.625315
O10   O     O_R   0.325830 0.813840 0.483730 -0.639893
O11   O     O_R   0.325830 0.186160 0.483730 -0.636346
O12   O     O_R   0.674170 0.813840 0.516270 -0.647165
O13   O     O_R   0.174170 0.686160 0.516270 -0.635943
O14   O     O_R   0.825830 0.313840 0.483730 -0.648592
O15   O     O_R   0.825830 0.686160 0.483730 -0.636358
O16   O     O_R   0.174170 0.313840 0.516270 -0.649977
O17   O     O_R   0.739960 0.127620 0.525000 -0.614836
O18   O     O_R   0.260040 0.872380 0.475000 -0.617081
O19   O     O_R   0.260040 0.127620 0.475000 -0.616744
O20   O     O_R   0.739960 0.872380 0.525000 -0.628600
O21   O     O_R   0.239960 0.627620 0.525000 -0.617808
O22   O     O_R   0.760040 0.372380 0.475000 -0.624550
O23   O     O_R   0.760040 0.627620 0.475000 -0.612393
O24   O     O_R   0.239960 0.372380 0.525000 -0.622912
O25   O     O_R   0.680700 0.294870 0.629350 -0.634035
O26   O     O_R   0.319300 0.705130 0.370650 -0.623323
O27   O     O_R   0.319300 0.294870 0.370650 -0.617934
O28   O     O_R   0.680700 0.705130 0.629350 -0.628768
O29   O     O_R   0.180700 0.794870 0.629350 -0.627846
O30   O     O_R   0.819300 0.205130 0.370650 -0.625774
O31   O     O_R   0.819300 0.794870 0.370650 -0.632590
O32   O     O_R   0.180700 0.205130 0.629350 -0.630749
C1    C     C_R   0.706390 0.277737 0.672892 0.889273
C2    C     C_R   0.299059 0.733825 0.323042 0.889157
C3    C     C_R   0.293878 0.277550 0.326957 0.910558
C4    C     C_R   0.700684 0.734390 0.677196 0.885325
C5    C     C_R   0.201362 0.767008 0.676913 0.883455
C6    C     C_R   0.799243 0.234226 0.322905 0.885606
C7    C     C_R   0.793623 0.777854 0.327080 0.896570
C8    C     C_R   0.200974 0.233798 0.677071 0.868604
C9    C     C_R   0.690700 0.129715 0.537420 0.909266
C10   C     C_R   0.308495 0.870995 0.467250 0.889459
C11   C     C_R   0.303413 0.127959 0.482957 0.918666
C12   C     C_R   0.691252 0.870508 0.535785 0.877696
C13   C     C_R   0.191054 0.629410 0.535541 0.895281
C14   C     C_R   0.808919 0.370624 0.464674 0.872819
C15   C     C_R   0.808824 0.629283 0.465032 0.915924
C16   C     C_R   0.191147 0.370696 0.535145 0.878021
Zn1   Zn    Zn3+2 0.792340 0.208750 0.507670 0.993000
Zn2   Zn    Zn3+2 0.207660 0.791250 0.492330 0.988436
Zn3   Zn    Zn3+2 0.207660 0.208750 0.492330 0.993143
Zn4   Zn    Zn3+2 0.792340 0.791250 0.507670 0.986540
Zn5   Zn    Zn3+2 0.292340 0.708750 0.507670 0.994533
Zn6   Zn    Zn3+2 0.707660 0.291250 0.492330 0.997334
Zn7   Zn    Zn3+2 0.707660 0.708750 0.492330 0.992823
Zn8   Zn    Zn3+2 0.292340 0.291250 0.507670 0.996296
H1    H     H_    0.031805 0.250823 0.528096 0.151225
H2    H     H_    0.966752 0.749321 0.476149 0.153418
H3    H     H_    0.968173 0.251229 0.467796 0.150769
H4    H     H_    0.031446 0.748926 0.534338 0.151941
H5    H     H_    0.534444 0.750318 0.531330 0.161877
H6    H     H_    0.416493 0.237429 0.615960 0.175364
H7    H     H_    0.469348 0.753507 0.473820 0.155033
H8    H     H_    0.499886 0.240752 0.628963 0.152592
C17   C     C_R   0.519916 0.127793 0.592699 0.105208
C18   C     C_R   0.456433 0.869676 0.491524 0.087978
C19   C     C_R   0.425690 0.124948 0.573033 0.094737
C20   C     C_R   0.534202 0.866787 0.550016 0.087852
C21   C     C_R   0.037247 0.631654 0.535028 0.099340
C22   C     C_R   0.962198 0.368451 0.467390 0.088398
C23   C     C_R   0.961434 0.632059 0.471820 0.096970
C24   C     C_R   0.037626 0.368032 0.531419 0.090005
C25   C     C_R   0.488013 0.190393 0.609982 -0.192892
C26   C     C_R   0.480200 0.803703 0.494800 -0.111464
C27   C     C_R   0.440508 0.188504 0.602269 -0.189809
C28   C     C_R   0.517056 0.801845 0.527941 -0.121080
C29   C     C_R   0.017440 0.697597 0.521435 -0.184312
C30   C     C_R   0.981963 0.302561 0.481113 -0.038344
C31   C     C_R   0.980920 0.697825 0.487565 -0.183640
C32   C     C_R   0.017891 0.302327 0.516178 -0.033172
C33   C     C_R   0.457023 0.062226 0.556530 0.036165
C34   C     C_R   0.511395 0.932850 0.545173 0.034798
C35   C     C_R   0.502576 0.062872 0.570509 0.033368
C36   C     C_R   0.469963 0.933646 0.521456 0.029563
C37   C     C_R   0.979843 0.566011 0.487930 0.034776
C38   C     C_R   0.019302 0.434065 0.515095 0.039696
C39   C     C_R   0.019042 0.565823 0.517038 0.034414
C40   C     C_R   0.980190 0.434256 0.485798 0.039327
C41   C     C_R   0.959778 0.500218 0.473401 -0.035566
C42   C     C_R   0.039489 0.499845 0.529337 -0.035541
C43   C     C_R   0.442634 0.998460 0.526873 -0.041904
C44   C     C_R   0.530155 0.998128 0.563814 -0.043887
C45   C     C_R   0.894751 0.433972 0.443137 0.052708
C46   C     C_R   0.104950 0.566054 0.558488 0.057234
C47   C     C_R   0.105219 0.433366 0.556779 0.053129
C48   C     C_R   0.894412 0.566645 0.444981 0.057353
C49   C     C_R   0.386914 0.935195 0.472917 0.059406
C50   C     C_R   0.601190 0.065394 0.577044 0.055875
C51   C     C_R   0.603223 0.932450 0.570090 0.055766
C52   C     C_R   0.369940 0.062781 0.517257 0.049878
C53   C     C_R   0.843940 0.434832 0.442869 -0.108874
C54   C     C_R   0.156000 0.565187 0.557860 -0.118165
C55   C     C_R   0.156160 0.434620 0.556916 -0.109130
C56   C     C_R   0.843756 0.565360 0.443824 -0.120317
C57   C     C_R   0.340406 0.935886 0.459418 -0.113901
C58   C     C_R   0.655527 0.065140 0.563352 -0.122209
C59   C     C_R   0.656350 0.934303 0.560888 -0.110015
C60   C     C_R   0.330544 0.063089 0.486712 -0.107857
C61   C     C_R   0.821090 0.499993 0.438554 -0.289266
C62   C     C_R   0.178982 0.499999 0.561763 -0.288960
C63   C     C_R   0.316810 0.000402 0.458111 -0.294995
C64   C     C_R   0.680493 0.999935 0.560856 -0.286236
H9    H     H_    0.782251 0.499811 0.439333 0.201269
H10   H     H_    0.218021 0.500172 0.560273 0.202384
H11   H     H_    0.284546 0.000876 0.440249 0.198583
H12   H     H_    0.721600 0.000284 0.551066 0.203849
C65   C     C_R   0.916794 0.500305 0.452404 0.069437
C66   C     C_R   0.082712 0.499726 0.549723 0.069745
C67   C     C_R   0.400186 0.999036 0.504810 0.068773
C68   C     C_R   0.577831 0.998678 0.571774 0.071393
C69   C     C_R   0.076866 0.368581 0.559464 -0.203230
C70   C     C_R   0.922576 0.631459 0.442967 -0.228474
C71   C     C_R   0.923256 0.369379 0.438765 -0.203700
C72   C     C_R   0.076428 0.630682 0.563137 -0.229187
C73   C     C_R   0.575238 0.867100 0.573547 -0.228249
C74   C     C_R   0.380289 0.123163 0.559690 -0.234124
C75   C     C_R   0.418862 0.872446 0.460114 -0.205535
C76   C     C_R   0.569230 0.129018 0.595317 -0.237739
H13   H     H_    0.084456 0.317669 0.582568 0.179093
H14   H     H_    0.915310 0.682361 0.419423 0.178492
H15   H     H_    0.915828 0.318908 0.414034 0.177677
H16   H     H_    0.084097 0.681153 0.587563 0.175127
H17   H     H_    0.585046 0.815530 0.591873 0.176927
H18   H     H_    0.353538 0.169270 0.584486 0.185625
H19   H     H_    0.415788 0.825124 0.425105 0.178436
H20   H     H_    0.581467 0.179384 0.613289 0.171498
C77   C     C_R   0.732956 0.294088 0.943202 -0.012034
C78   C     C_R   0.284782 0.744586 0.041070 -0.012519
C79   C     C_R   0.270394 0.288179 0.054501 -0.009886
C80   C     C_R   0.706768 0.763445 0.966535 -0.011020
C81   C     C_R   0.220764 0.765827 0.954937 -0.011050
C82   C     C_R   0.792981 0.262290 0.033748 -0.010737
C83   C     C_R   0.767095 0.794291 0.056911 -0.011417
C84   C     C_R   0.210299 0.257563 0.963805 -0.006612
C85   C     C_R   0.787908 0.271914 0.892944 -0.064660
C86   C     C_R   0.237419 0.787701 0.083382 -0.073037
C87   C     C_R   0.214650 0.268962 0.104830 -0.064882
C88   C     C_R   0.756654 0.801564 0.921409 -0.069617
C89   C     C_R   0.268537 0.723516 0.912266 -0.072731
C90   C     C_R   0.743617 0.301110 0.078636 -0.069549
C91   C     C_R   0.711802 0.773112 0.107373 -0.064302
C92   C     C_R   0.261623 0.292417 0.917488 -0.070948
C93   C     C_R   0.815113 0.246887 0.940733 0.093069
C94   C     C_R   0.203302 0.793427 0.042748 0.096585
C95   C     C_R   0.187179 0.244144 0.057354 0.092305
C96   C     C_R   0.790083 0.806800 0.963234 0.098230
C97   C     C_R   0.302648 0.717903 0.952896 0.093396
C98   C     C_R   0.710215 0.306935 0.036760 0.097019
C99   C     C_R   0.684284 0.748479 0.059725 0.093305
C100  C     C_R   0.294631 0.297151 0.960118 0.095271
C101  C     C_R   0.646083 0.326825 0.949136 0.089114
C102  C     C_R   0.363080 0.687233 0.043752 0.082774
C103  C     C_R   0.356966 0.321051 0.049623 0.089466
C104  C     C_R   0.633172 0.694622 0.959568 0.080419
C105  C     C_R   0.140366 0.818395 0.954421 0.084144
C106  C     C_R   0.866141 0.193184 0.040830 0.081861
C107  C     C_R   0.854350 0.825669 0.050633 0.089605
C108  C     C_R   0.134697 0.192569 0.958538 0.080781
C109  C     C_R   0.617132 0.345501 0.901700 -0.134229
C110  C     C_R   0.387125 0.660232 0.095612 -0.134786
C111  C     C_R   0.384953 0.342507 0.097471 -0.140761
C112  C     C_R   0.611563 0.662881 0.905859 -0.131894
C113  C     C_R   0.114459 0.841947 0.903819 -0.132578
C114  C     C_R   0.887919 0.162015 0.094498 -0.131755
C115  C     C_R   0.883413 0.844427 0.097848 -0.137082
C116  C     C_R   0.112106 0.162254 0.905541 -0.133224
C117  C     C_R   0.637047 0.325315 0.813528 -0.302392
C118  C     C_R   0.367321 0.681320 0.183891 -0.294935
C119  C     C_R   0.364419 0.323861 0.186277 -0.290326
C120  C     C_R   0.632098 0.682592 0.816925 -0.300246
C121  C     C_R   0.133479 0.819507 0.816273 -0.304998
C122  C     C_R   0.867486 0.182023 0.183335 -0.294172
C123  C     C_R   0.863473 0.824404 0.186049 -0.299247
C124  C     C_R   0.132267 0.182529 0.816919 -0.296851
H21   H     H_    0.612686 0.334033 0.780556 0.186842
H22   H     H_    0.385311 0.659373 0.222697 0.193554
H23   H     H_    0.388308 0.333994 0.219887 0.190899
H24   H     H_    0.615481 0.657917 0.777259 0.191622
H25   H     H_    0.114031 0.838905 0.778524 0.190829
H26   H     H_    0.884032 0.157637 0.223017 0.192476
H27   H     H_    0.887981 0.833094 0.218872 0.186905
H28   H     H_    0.114715 0.159312 0.777858 0.192784
C125  C     C_R   0.689156 0.299378 0.765298 -0.083470
C126  C     C_R   0.322809 0.726181 0.225058 -0.097029
C127  C     C_R   0.312031 0.298187 0.234239 -0.094239
C128  C     C_R   0.676104 0.728721 0.775744 -0.096166
C129  C     C_R   0.178835 0.776346 0.774491 -0.094395
C130  C     C_R   0.823782 0.228236 0.224347 -0.095811
C131  C     C_R   0.811058 0.799082 0.234584 -0.085676
C132  C     C_R   0.177058 0.227281 0.775252 -0.088952
C133  C     C_R   0.723664 0.295059 0.805926 0.006290
C134  C     C_R   0.297479 0.753649 0.174874 0.012684
C135  C     C_R   0.278092 0.293055 0.192863 0.004699
C136  C     C_R   0.699783 0.760104 0.826926 0.013425
C137  C     C_R   0.206021 0.752250 0.823341 0.014234
C138  C     C_R   0.800303 0.259438 0.173079 0.013165
C139  C     C_R   0.776430 0.795002 0.194121 0.005717
C140  C     C_R   0.202232 0.256240 0.825354 0.009962
C141  C     C_R   0.700805 0.304592 0.899606 0.071195
C142  C     C_R   0.315014 0.728392 0.086707 0.071607
C143  C     C_R   0.301907 0.299860 0.098819 0.074713
C144  C     C_R   0.679816 0.739477 0.917723 0.075367
C145  C     C_R   0.189292 0.779234 0.910604 0.069370
C146  C     C_R   0.819866 0.238307 0.082531 0.075094
C147  C     C_R   0.799372 0.804192 0.100380 0.072333
C148  C     C_R   0.182386 0.235419 0.915892 0.074622
C149  C     C_R   0.622604 0.329942 0.043628 -0.181436
C150  C     C_R   0.385963 0.677218 0.949955 -0.176242
C151  C     C_R   0.381861 0.320322 0.955105 -0.173534
C152  C     C_R   0.610298 0.683283 0.053260 -0.194654
C153  C     C_R   0.118537 0.829850 0.047880 -0.185796
C154  C     C_R   0.888491 0.181187 0.947295 -0.193463
C155  C     C_R   0.877982 0.828353 0.956146 -0.182552
C156  C     C_R   0.111813 0.181655 0.052248 -0.191669
C157  C     C_R   0.653977 0.320476 0.086321 -0.122530
C158  C     C_R   0.356326 0.692114 0.905685 -0.123862
C159  C     C_R   0.351465 0.307298 0.911309 -0.122581
C160  C     C_R   0.636180 0.707060 0.100977 -0.112083
C161  C     C_R   0.149496 0.818438 0.090615 -0.124667
C162  C     C_R   0.862617 0.204821 0.899738 -0.112254
C163  C     C_R   0.846527 0.819323 0.913500 -0.125042
C164  C     C_R   0.138254 0.204457 0.099402 -0.113108
C165  C     C_R   0.780494 0.286361 0.755929 -0.233566
C166  C     C_R   0.257591 0.808463 0.206726 -0.235403
C167  C     C_R   0.221103 0.286222 0.242310 -0.232298
C168  C     C_R   0.741062 0.813742 0.792615 -0.239795
C169  C     C_R   0.246850 0.698746 0.791386 -0.230289
C170  C     C_R   0.759670 0.313473 0.207067 -0.236709
C171  C     C_R   0.719492 0.787020 0.244295 -0.232026
C172  C     C_R   0.245269 0.307322 0.789984 -0.240354
C173  C     C_R   0.812657 0.275883 0.797493 0.299351
C174  C     C_R   0.228347 0.826663 0.161965 0.276485
C175  C     C_R   0.189292 0.275750 0.200108 0.301110
C176  C     C_R   0.770221 0.833517 0.837155 0.277451
C177  C     C_R   0.277333 0.683378 0.834697 0.256681
C178  C     C_R   0.730633 0.333388 0.162572 0.277353
C179  C     C_R   0.687100 0.777430 0.202825 0.295092
C180  C     C_R   0.276462 0.322953 0.831987 0.259159
H29   H     H_    0.579387 0.337428 0.086170 0.164448
H30   H     H_    0.427436 0.659948 0.908439 0.167250
H31   H     H_    0.425305 0.327801 0.914075 0.154585
H32   H     H_    0.571432 0.657429 0.093088 0.178669
H33   H     H_    0.076731 0.845031 0.090776 0.169446
H34   H     H_    0.926986 0.155005 0.907214 0.180304
H35   H     H_    0.921322 0.835401 0.913740 0.161107
H36   H     H_    0.072418 0.157239 0.092522 0.178062
H37   H     H_    0.633204 0.321578 0.159086 0.173369
H38   H     H_    0.376485 0.684382 0.833580 0.170093
H39   H     H_    0.373179 0.304447 0.838620 0.163906
H40   H     H_    0.618595 0.689595 0.170097 0.188574
H41   H     H_    0.129821 0.826939 0.162540 0.173346
H42   H     H_    0.879770 0.186797 0.830883 0.190255
H43   H     H_    0.867322 0.820070 0.840726 0.170270
H44   H     H_    0.120368 0.187664 0.168806 0.188330
H45   H     H_    0.801621 0.293233 0.683743 0.207802
H46   H     H_    0.251712 0.842722 0.262358 0.208624
H47   H     H_    0.199819 0.294829 0.314242 0.205029
H48   H     H_    0.749337 0.844893 0.733639 0.210649
H49   H     H_    0.252258 0.662566 0.737637 0.210789
H50   H     H_    0.751934 0.344910 0.265694 0.210014
H51   H     H_    0.698602 0.793904 0.316482 0.208881
H52   H     H_    0.253820 0.339951 0.732020 0.217623
O33   O     O_R   0.062020 0.072840 0.007170 -0.621649
O34   O     O_R   0.937980 0.927160 0.992830 -0.612715
O35   O     O_R   0.937980 0.072840 0.992830 -0.621493
O36   O     O_R   0.062020 0.927160 0.007170 -0.620600
O37   O     O_R   0.562020 0.572840 0.007170 -0.620501
O38   O     O_R   0.437980 0.427160 0.992830 -0.604689
O39   O     O_R   0.437980 0.572840 0.992830 -0.612455
O40   O     O_R   0.562020 0.427160 0.007170 -0.614974
O41   O     O_R   0.947860 0.073950 0.109290 -0.617785
O42   O     O_R   0.052140 0.926050 0.890710 -0.619854
O43   O     O_R   0.052140 0.073950 0.890710 -0.618393
O44   O     O_R   0.947860 0.926050 0.109290 -0.616116
O45   O     O_R   0.447860 0.573950 0.109290 -0.619396
O46   O     O_R   0.552140 0.426050 0.890710 -0.616932
O47   O     O_R   0.552140 0.573950 0.890710 -0.620041
O48   O     O_R   0.447860 0.426050 0.109290 -0.615407
C181  C     C_R   0.072112 0.103011 0.936538 0.906004
C182  C     C_R   0.927863 0.897018 0.063370 0.900735
C183  C     C_R   0.927649 0.102689 0.063777 0.907406
C184  C     C_R   0.072827 0.898098 0.935784 0.905203
C185  C     C_R   0.572044 0.603060 0.936578 0.902723
C186  C     C_R   0.428509 0.396396 0.062935 0.895913
C187  C     C_R   0.427625 0.602430 0.063934 0.907223
C188  C     C_R   0.572465 0.397451 0.936239 0.892803
Zn9   Zn    Zn3+2 0.505960 0.500000 0.080520 0.974600
Zn10  Zn    Zn3+2 0.494040 0.500000 0.919480 0.986675
Zn11  Zn    Zn3+2 0.005960 0.000000 0.080520 0.965067
Zn12  Zn    Zn3+2 0.994040 0.000000 0.919480 0.969661
N1    N     N_R   0.870599 0.279348 0.741630 0.184694
O49   O     O_R   0.899608 0.322110 0.763068 -0.396621
O50   O     O_R   0.893612 0.246700 0.663989 -0.436099
N2    N     N_R   0.195690 0.891194 0.190410 0.191171
O51   O     O_R   0.200826 0.939988 0.131388 -0.378785
O52   O     O_R   0.167308 0.906570 0.275660 -0.406832
N3    N     N_R   0.131430 0.282032 0.254654 0.185269
O53   O     O_R   0.104262 0.325352 0.230581 -0.391972
O54   O     O_R   0.106830 0.251463 0.333527 -0.438313
N4    N     N_R   0.808154 0.892987 0.801400 0.193862
O55   O     O_R   0.807850 0.944313 0.854538 -0.374057
O56   O     O_R   0.837611 0.901361 0.714757 -0.407803
N5    N     N_R   0.310141 0.619125 0.807549 0.199185
O57   O     O_R   0.338307 0.602205 0.722685 -0.376736
O58   O     O_R   0.305300 0.572011 0.868009 -0.311929
N6    N     N_R   0.693571 0.393377 0.197922 0.194010
O59   O     O_R   0.694667 0.444700 0.144438 -0.373829
O60   O     O_R   0.664295 0.402235 0.284507 -0.400313
N7    N     N_R   0.629213 0.782457 0.258553 0.188422
O61   O     O_R   0.601129 0.825176 0.235710 -0.388594
O62   O     O_R   0.605531 0.751894 0.337494 -0.424728
N8    N     N_R   0.318369 0.377240 0.791560 0.199025
O63   O     O_R   0.322827 0.428215 0.840772 -0.297309
O64   O     O_R   0.347580 0.381368 0.704380 -0.402508

loop_
_geom_bond_atom_site_label_1
_geom_bond_atom_site_label_2
_geom_bond_distance
_ccdc_geom_bond_type
N8    O64   1.301577 A    
O4    C4    1.247330 A    
O5    C5    1.248339 A    
C130  C138  1.442795 A    
C59   C64   1.382573 A    
C23   C70   1.395076 A    
O7    Zn7   2.014352 S    
O31   Zn4   2.069114 S    
C111  C119  1.371678 A    
O8    Zn8   2.014352 S    
C102  C150  1.411051 A    
C105  C153  1.412416 A    
C119  C127  1.374171 A    
N1    O49   1.301573 A    
C80   C144  1.433006 A    
O39   Zn10  1.986774 S    
C117  C125  1.373943 A    
C77   C98   1.415476 A    
C110  C118  1.377603 A    
C83   C147  1.428949 A    
C134  C142  1.408339 A    
C101  C149  1.409507 A    
C80   C99   1.417787 A    
C38   C40   1.407392 A    
C81   C94   1.418131 A    
C127  C135  1.433509 A    
C125  C133  1.437594 A    
O30   C6    1.306256 A    
C133  C141  1.408164 A    
C170  H50   1.077588 S    
O20   C12   1.289739 A    
C36   C43   1.400982 A    
O48   C186  1.272589 A    
C128  C136  1.442661 A    
C87   C95   1.430848 A    
C120  C128  1.376561 A    
C49   C57   1.430912 A    
C2    C126  1.468565 S    
C83   C91   1.416830 A    
O44   C182  1.274900 A    
C132  C140  1.442463 A    
C150  H30   1.078888 S    
C158  H38   1.080799 S    
C138  C146  1.413137 A    
O33   C181  1.224110 A    
O6    Zn6   2.014934 S    
C112  C185  1.465684 S    
C29   C31   1.396869 A    
N4    O56   1.301501 A    
C106  C114  1.441007 A    
O41   Zn11  2.001290 S    
C38   C42   1.403828 A    
C45   C53   1.429272 A    
C178  N6    1.438364 S    
C102  C142  1.408962 A    
O27   C3    1.291649 A    
N6    O59   1.301695 A    
C134  C166  1.410643 A    
C86   C94   1.429542 A    
C87   C175  1.422479 A    
C136  C144  1.413424 A    
O46   C188  1.276979 A    
C138  C170  1.413480 A    
O23   Zn7   2.021121 S    
C167  C175  1.401079 A    
H2    C31   1.083634 S    
O41   C183  1.275458 A    
O42   C184  1.273293 A    
O30   Zn1   2.068993 S    
C34   C36   1.402932 A    
C152  H32   1.076265 S    
H6    C27   1.083674 S    
C149  H29   1.080736 S    
O36   Zn11  1.986776 S    
C156  H36   1.076627 S    
C115  C123  1.371008 A    
C116  C124  1.377933 A    
C15   C56   1.465005 S    
C115  C182  1.457119 S    
C45   C71   1.418852 A    
C176  N4    1.438413 S    
C100  C159  1.410324 A    
C50   C68   1.412584 A    
H7    C26   1.083586 S    
O24   Zn8   2.021121 S    
O44   Zn11  1.991418 S    
O9    C9    1.261884 A    
C50   C58   1.428299 A    
C60   C63   1.374779 A    
O12   C12   1.255045 A    
O13   C13   1.257119 A    
O38   Zn10  1.979938 S    
C104  C144  1.412600 A    
O39   C187  1.223141 A    
C11   C60   1.438114 S    
C123  C131  1.373370 A    
C13   C54   1.463289 S    
C118  H22   1.084728 S    
C40   C41   1.404674 A    
C74   H18   1.077846 S    
C136  C168  1.413305 A    
O7    C7    1.246266 A    
O9    Zn6   2.100113 S    
O8    C8    1.245697 A    
C150  C158  1.392512 A    
O11   Zn8   2.107216 S    
C103  C151  1.406141 A    
N7    O62   1.300812 A    
O47   Zn10  1.991417 S    
C172  C180  1.399008 A    
C21   C29   1.403348 A    
O16   Zn3   2.107216 S    
C107  C147  1.410340 A    
C121  C129  1.375508 A    
C114  C122  1.378555 A    
C23   C31   1.403607 A    
C34   C44   1.405327 A    
O22   Zn6   2.010911 S    
C26   C28   1.396786 A    
C55   C62   1.381787 A    
C52   C74   1.426096 A    
C171  C179  1.403355 A    
O18   C10   1.302697 A    
C30   C32   1.396998 A    
N5    O58   1.300669 A    
C112  C120  1.378662 A    
O38   C186  1.225703 A    
C72   H16   1.078928 S    
O2    Zn2   2.014934 S    
C124  C132  1.376337 A    
H8    C25   1.083420 S    
C6    C130  1.472944 S    
C62   H10   1.084303 S    
C101  C109  1.436349 A    
N2    O52   1.301499 A    
H1    C32   1.083591 S    
C135  C143  1.406349 A    
C45   C65   1.408938 A    
H3    C30   1.083593 S    
C109  C117  1.371015 A    
C33   C35   1.409125 A    
C47   C55   1.431729 A    
O21   C13   1.297092 A    
H5    C28   1.083616 S    
C167  H47   1.080272 S    
C14   C53   1.463125 S    
C153  H33   1.078492 S    
C52   C60   1.430517 A    
O23   C15   1.296998 A    
C1    C125  1.454828 S    
O24   C16   1.296649 A    
C48   C65   1.410120 A    
C140  C172  1.412848 A    
O17   Zn1   2.010911 S    
C84   C148  1.432441 A    
C16   C55   1.465166 S    
C78   C142  1.431018 A    
O47   C185  1.272870 A    
C91   C99   1.433265 A    
C49   C67   1.414476 A    
C4    C128  1.472343 S    
O3    C3    1.247778 A    
C86   C174  1.423367 A    
C52   C67   1.407036 A    
C99   C160  1.405397 A    
O34   C182  1.222346 A    
C46   C54   1.428629 A    
C166  C174  1.403509 A    
C105  C145  1.407623 A    
C113  C184  1.458573 S    
C179  N7    1.435825 S    
C19   C33   1.399131 A    
C114  C183  1.469010 S    
C94   C161  1.405292 A    
C43   C67   1.411479 A    
C104  C112  1.437992 A    
C19   C27   1.407220 A    
C153  C161  1.391787 A    
C109  C188  1.459990 S    
C64   H12   1.083935 S    
C110  C187  1.461027 S    
C107  C115  1.433243 A    
C12   C59   1.458872 S    
C108  C116  1.437764 A    
C7    C131  1.453882 S    
C164  H44   1.078501 S    
C41   C65   1.413964 A    
C160  H40   1.078495 S    
C161  H41   1.080448 S    
C20   C28   1.402907 A    
C122  H26   1.084693 S    
C20   C34   1.398682 A    
C108  C148  1.412639 A    
C44   C68   1.409020 A    
C24   C32   1.402788 A    
C46   C66   1.408830 A    
O2    C2    1.250524 A    
C78   C86   1.414399 A    
C174  N2    1.437689 S    
O40   C188  1.220955 A    
O12   Zn7   2.107216 S    
C165  H45   1.079763 S    
O13   Zn2   2.100113 S    
C154  C162  1.392666 A    
C88   C176  1.417830 A    
C116  C181  1.465526 S    
C20   C73   1.389840 A    
C180  N8    1.437460 S    
C149  C157  1.396324 A    
C162  H42   1.078378 S    
C24   C69   1.395346 A    
O10   C10   1.249452 A    
C25   C27   1.402213 A    
C129  C137  1.443267 A    
C106  C154  1.413610 A    
O14   C14   1.256391 A    
C118  C126  1.377411 A    
C42   C66   1.413674 A    
C77   C85   1.417374 A    
C75   H19   1.079682 S    
C76   H20   1.080621 S    
C91   C179  1.422880 A    
C111  C186  1.456784 S    
C119  H23   1.085187 S    
C53   C61   1.382273 A    
C126  C134  1.441337 A    
C139  C171  1.409364 A    
C95   C164  1.405741 A    
C117  H21   1.085296 S    
C152  C160  1.392304 A    
N6    O60   1.301486 A    
O10   Zn5   2.100113 S    
C163  H43   1.081211 S    
C120  H24   1.084718 S    
C121  H25   1.084892 S    
C155  C163  1.395171 A    
O48   Zn9   1.991418 S    
C124  H28   1.084769 S    
C103  C111  1.429701 A    
C21   C39   1.402323 A    
C3    C127  1.450813 S    
C47   C69   1.419378 A    
C50   C76   1.419378 A    
N8    O63   1.299826 A    
C57   C63   1.368728 A    
C137  C145  1.409287 A    
C151  H31   1.081834 S    
O40   Zn9   1.986776 S    
O16   C16   1.251636 A    
O19   C11   1.288611 A    
N1    O50   1.300690 A    
C9    C58   1.467606 S    
C81   C89   1.414522 A    
N3    O53   1.301563 A    
C17   C76   1.406879 A    
O25   Zn6   2.068993 S    
C82   C146  1.434835 A    
C131  C139  1.437434 A    
C19   C74   1.398618 A    
C37   C41   1.404173 A    
O27   Zn8   2.069114 S    
C8    C132  1.469467 S    
C21   C72   1.394752 A    
C101  C141  1.411643 A    
C77   C141  1.430762 A    
O33   Zn11  1.979938 S    
O32   Zn3   2.069114 S    
C135  C167  1.407992 A    
O34   Zn12  1.979938 S    
C133  C165  1.409445 A    
C102  C110  1.434097 A    
C170  C178  1.402940 A    
C139  C147  1.408281 A    
O15   Zn4   2.107216 S    
C137  C169  1.409911 A    
C98   C157  1.408450 A    
C107  C155  1.408817 A    
O22   C14   1.297710 A    
C79   C100  1.414852 A    
C54   C62   1.382613 A    
O35   Zn12  1.986774 S    
O18   Zn2   2.010911 S    
N4    O55   1.301696 A    
C89   C177  1.421987 A    
C90   C98   1.428661 A    
C71   H15   1.078843 S    
C69   H13   1.078241 S    
C24   C38   1.402099 A    
C51   C59   1.423356 A    
C48   C70   1.419689 A    
C82   C90   1.414384 A    
O35   C183  1.223105 A    
C172  H52   1.076561 S    
N5    O57   1.302211 A    
O3    Zn3   2.014352 S    
C10   C57   1.457143 S    
C92   C180  1.418276 A    
C17   C35   1.406000 A    
O1    C1    1.250016 A    
N7    O61   1.301586 A    
C33   C43   1.408443 A    
O28   C4    1.303368 A    
C84   C92   1.416215 A    
C39   C42   1.404837 A    
O29   C5    1.307022 A    
C168  H48   1.077485 S    
C169  H49   1.078246 S    
C88   C96   1.426938 A    
C151  C159  1.395590 A    
C89   C97   1.429154 A    
C18   C26   1.403226 A    
C92   C100  1.426977 A    
C22   C30   1.402732 A    
C122  C130  1.377533 A    
O15   C15   1.251051 A    
C49   C75   1.417207 A    
C22   C40   1.401902 A    
C80   C88   1.413467 A    
O42   Zn12  2.001291 S    
C51   C73   1.419581 A    
C58   C64   1.383791 A    
O43   C181  1.273329 A    
C35   C44   1.399302 A    
C79   C87   1.417578 A    
O4    Zn4   2.014352 S    
O5    Zn5   2.014934 S    
C156  C164  1.391545 A    
C56   C61   1.381503 A    
C166  H46   1.078675 S    
O14   Zn1   2.100113 S    
C105  C113  1.436205 A    
C17   C25   1.404523 A    
C18   C75   1.394083 A    
C51   C68   1.409169 A    
C23   C37   1.402087 A    
O43   Zn12  1.991417 S    
O26   C2    1.305080 A    
O11   C11   1.243396 A    
C5    C129  1.469086 S    
C159  H39   1.081161 S    
C85   C93   1.434252 A    
C104  C152  1.413016 A    
O32   C8    1.303153 A    
C140  C148  1.410881 A    
O45   C187  1.271764 A    
C108  C156  1.412128 A    
C22   C71   1.394717 A    
O28   Zn7   2.069114 S    
O29   Zn2   2.068993 S    
C37   C39   1.407360 A    
C47   C66   1.410271 A    
H4    C29   1.083632 S    
C169  C177  1.401364 A    
C81   C145  1.432807 A    
O45   Zn9   2.001290 S    
C103  C143  1.410121 A    
C79   C143  1.426365 A    
C175  N3    1.434921 S    
N3    O54   1.300528 A    
C155  H35   1.081104 S    
O6    C6    1.251327 A    
C154  H34   1.075706 S    
C85   C173  1.422493 A    
C106  C146  1.414175 A    
O37   Zn9   1.979938 S    
C97   C158  1.406642 A    
C165  C173  1.402771 A    
N2    O51   1.301680 A    
C93   C162  1.405414 A    
O26   Zn5   2.068993 S    
C173  N1    1.435117 S    
C73   H17   1.077586 S    
C123  H27   1.085336 S    
C61   H9    1.084338 S    
C171  H51   1.079809 S    
C168  C176  1.402572 A    
C84   C95   1.416432 A    
C48   C56   1.432175 A    
C157  H37   1.081179 S    
O20   Zn4   2.021121 S    
C177  N5    1.435124 S    
O21   Zn5   2.010911 S    
C96   C163  1.408140 A    
C83   C96   1.415856 A    
C78   C97   1.415859 A    
C90   C178  1.417869 A    
O31   C7    1.294510 A    
C113  C121  1.376505 A    
C82   C93   1.417385 A    
O17   C9    1.295550 A    
C18   C36   1.403048 A    
O36   C184  1.220057 A    
O19   Zn3   2.021121 S    
O37   C185  1.224393 A    
O25   C1    1.297656 A    
O46   Zn10  2.001291 S    
C63   H11   1.085402 S    
O1    Zn1   2.014934 S    
C70   H14   1.078121 S    
C46   C72   1.418632 A    
