data_mof_unit_51343.cif
_audit_creation_date              2013-03-05T15:49:11-0500
_audit_creation_method            fapswitch 2.2
_symmetry_space_group_name_H-M    P1
_symmetry_Int_Tables_number       1
_space_group_crystal_system       triclinic
_cell_length_a                    17.597232
_cell_length_b                    24.514434
_cell_length_c                    15.175581
_cell_angle_alpha                 90.030141
_cell_angle_beta                  126.699685
_cell_angle_gamma                 89.919761
_cell_volume                      5248.86904978

loop_
_atom_site_label
_atom_site_type_symbol
_atom_site_description
_atom_site_fract_x
_atom_site_fract_y
_atom_site_fract_z
_atom_type_partial_charge
C1    C     C_R   0.311020 0.127777 0.903682 0.391519
C2    C     C_R   0.308274 0.876957 0.906735 0.364602
C3    C     C_R   0.811126 0.627903 0.903665 0.391833
C4    C     C_R   0.808295 0.376950 0.906751 0.363946
N1    N     N_R   0.392450 0.103580 0.942190 -0.082771
N2    N     N_R   0.392450 0.896420 0.942190 -0.087878
N3    N     N_R   0.892450 0.603580 0.942190 -0.082796
N4    N     N_R   0.892450 0.396420 0.942190 -0.088125
C5    C     C_R   0.401004 0.877290 0.090810 -0.198216
C6    C     C_R   0.401189 0.125096 0.089251 -0.187129
C7    C     C_R   0.901047 0.377211 0.090808 -0.196853
C8    C     C_R   0.901303 0.625321 0.089225 -0.186852
H1    H     H_    0.431167 0.870282 0.175793 0.118046
H2    H     H_    0.430171 0.131984 0.174000 0.118363
H3    H     H_    0.931285 0.370070 0.175772 0.117297
H4    H     H_    0.930352 0.632375 0.173947 0.118323
N5    N     N_R   0.450490 0.896000 0.057360 -0.060561
N6    N     N_R   0.450490 0.104000 0.057360 -0.060610
N7    N     N_R   0.950490 0.396000 0.057360 -0.060832
N8    N     N_R   0.950490 0.604000 0.057360 -0.060632
C9    C     C_R   0.547909 0.045744 0.302558 -0.146790
C10   C     C_R   0.548346 0.954954 0.303414 -0.134409
C11   C     C_R   0.047220 0.545892 0.302077 -0.147190
C12   C     C_R   0.047635 0.455044 0.303230 -0.133637
H5    H     H_    0.559547 0.088038 0.327234 0.101620
H6    H     H_    0.556837 0.912808 0.327981 0.090673
H7    H     H_    0.059336 0.588186 0.326843 0.102070
H8    H     H_    0.055846 0.412963 0.328224 0.087793
N9    N     N_R   0.525490 0.028390 0.207550 -0.028452
N10   N     N_R   0.525490 0.971610 0.207550 -0.027572
N11   N     N_R   0.025490 0.528390 0.207550 -0.028387
N12   N     N_R   0.025490 0.471610 0.207550 -0.027104
C13   C     C_R   0.250201 0.955466 0.689589 0.054226
C14   C     C_R   0.250284 0.045034 0.689870 -0.006864
C15   C     C_R   0.750081 0.455459 0.689642 0.055382
C16   C     C_R   0.750091 0.545036 0.689940 -0.008969
H9    H     H_    0.243968 0.915090 0.657952 0.188075
H10   H     H_    0.244463 0.085412 0.658227 0.169273
H11   H     H_    0.743826 0.415098 0.657941 0.188321
H12   H     H_    0.744312 0.585376 0.658159 0.169982
N13   N     N_R   0.317450 0.971190 0.792000 -0.059056
N14   N     N_R   0.317450 0.028810 0.792000 -0.053617
N15   N     N_R   0.817450 0.471190 0.792000 -0.059268
N16   N     N_R   0.817450 0.528810 0.792000 -0.053697
C17   C     C_R   0.312767 0.141062 0.995055 -0.109917
C18   C     C_R   0.310984 0.863152 0.998264 -0.093084
C19   C     C_R   0.812899 0.641294 0.994983 -0.110135
C20   C     C_R   0.811014 0.363098 0.998245 -0.092135
C21   C     C_R   0.563127 0.000544 0.364751 0.009685
C22   C     C_R   0.061740 0.500764 0.363959 0.011644
C23   C     C_R   0.205400 0.000288 0.625905 -0.077557
C24   C     C_R   0.705131 0.500277 0.626055 -0.077102
C25   C     C_R   0.494920 0.046208 0.727580 -0.131815
C26   C     C_R   0.495040 0.953846 0.727545 -0.188560
C27   C     C_R   0.997066 0.546327 0.729725 -0.145740
C28   C     C_R   0.996460 0.454009 0.728665 -0.172807
H13   H     H_    0.492284 0.088534 0.706620 0.109315
H14   H     H_    0.494137 0.911485 0.707493 0.115706
H15   H     H_    0.995410 0.588732 0.709973 0.110442
H16   H     H_    0.997044 0.411759 0.709646 0.111421
N17   N     N_R   0.473900 0.028390 0.792280 -0.049872
N18   N     N_R   0.473900 0.971610 0.792280 -0.048047
N19   N     N_R   0.973900 0.528390 0.792280 -0.050429
N20   N     N_R   0.973900 0.471610 0.792280 -0.049510
C29   C     C_R   0.765129 0.955098 0.299921 0.160587
C30   C     C_R   0.760547 0.046441 0.302156 0.168772
C31   C     C_R   0.264938 0.455096 0.300168 0.160280
C32   C     C_R   0.260408 0.546432 0.302315 0.168414
N21   N     N_R   0.682310 0.971180 0.208170 -0.067966
N22   N     N_R   0.682310 0.028820 0.208170 -0.086489
N23   N     N_R   0.182310 0.471180 0.208170 -0.068016
N24   N     N_R   0.182310 0.528820 0.208170 -0.086595
C33   C     C_R   0.659009 0.148248 0.092871 -0.167792
C34   C     C_R   0.645650 0.847162 0.088973 -0.176684
C35   C     C_R   0.158895 0.648297 0.092927 -0.167704
C36   C     C_R   0.145885 0.347226 0.089029 -0.176147
H17   H     H_    0.705117 0.161135 0.177127 0.097250
H18   H     H_    0.675861 0.829376 0.167844 0.133508
H19   H     H_    0.205016 0.661135 0.177226 0.097269
H20   H     H_    0.176127 0.329440 0.167905 0.133316
N25   N     N_R   0.606470 0.103570 0.057210 -0.042033
N26   N     N_R   0.606470 0.896430 0.057210 -0.035562
N27   N     N_R   0.106470 0.603570 0.057210 -0.042002
N28   N     N_R   0.106470 0.396430 0.057210 -0.035462
C37   C     C_R   0.555446 0.848487 0.907255 -0.108093
C38   C     C_R   0.563793 0.149416 0.909005 -0.104641
C39   C     C_R   0.055700 0.348538 0.907273 -0.110478
C40   C     C_R   0.063559 0.649555 0.909107 -0.103743
H21   H     H_    0.510640 0.836324 0.822111 0.104720
H22   H     H_    0.519865 0.162653 0.824580 0.105075
H23   H     H_    0.011022 0.336352 0.822134 0.104548
H24   H     H_    0.019473 0.662907 0.824759 0.105725
N29   N     N_R   0.549740 0.896000 0.943240 -0.042553
N30   N     N_R   0.549740 0.104000 0.943240 -0.040924
N31   N     N_R   0.049740 0.396000 0.943240 -0.042780
N32   N     N_R   0.049740 0.604000 0.943240 -0.040568
Ni1   Ni    Ni4+2 0.433780 0.065390 0.868430 0.250037
Ni2   Ni    Ni4+2 0.433780 0.934610 0.868430 0.244404
Ni3   Ni    Ni4+2 0.933780 0.565390 0.868430 0.250477
Ni4   Ni    Ni4+2 0.933780 0.434610 0.868430 0.244439
Ni5   Ni    Ni4+2 0.565800 0.934190 0.131570 0.200357
Ni6   Ni    Ni4+2 0.565800 0.065810 0.131570 0.196569
Ni7   Ni    Ni4+2 0.065800 0.434190 0.131570 0.200443
Ni8   Ni    Ni4+2 0.065800 0.565810 0.131570 0.196641
C41   C     C_R   0.507792 0.000005 0.685008 0.025087
C42   C     C_R   0.010382 0.500221 0.687392 0.027315
C43   C     C_R   0.816079 0.001426 0.357200 0.028666
C44   C     C_R   0.315824 0.501408 0.357550 0.029100
C45   C     C_R   0.633131 0.177631 0.001599 -0.007403
C46   C     C_R   0.617178 0.817375 0.997704 -0.018117
C47   C     C_R   0.132893 0.677767 0.001700 -0.008243
C48   C     C_R   0.117608 0.317485 0.997764 -0.017276
C49   C     C_3   0.038128 0.952604 0.486138 0.392419
C50   C     C_3   0.045763 0.015568 0.588982 0.424304
C51   C     C_3   0.537850 0.452538 0.486516 0.391994
C52   C     C_3   0.545547 0.515598 0.589229 0.424883
C53   C     C_3   0.981562 0.966287 0.530767 -0.359619
C54   C     C_3   0.481337 0.466299 0.531177 -0.359382
H25   H     H_    0.960721 0.939230 0.571666 0.187277
H26   H     H_    0.460576 0.439305 0.572236 0.187008
C55   C     C_3   0.918812 0.003498 0.430492 0.041927
C56   C     C_3   0.418551 0.503456 0.430822 0.041741
C57   C     C_3   0.974325 0.988590 0.384394 -0.241350
C58   C     C_3   0.982897 0.053417 0.490406 -0.181491
C59   C     C_3   0.474011 0.488466 0.384691 -0.241099
C60   C     C_3   0.482638 0.553393 0.490567 -0.182441
C61   C     C_3   0.040873 0.038034 0.447167 -0.217690
C62   C     C_3   0.540562 0.537929 0.447295 -0.216327
C63   C     C_3   0.103954 0.000773 0.547130 -0.036689
C64   C     C_3   0.603682 0.500726 0.547346 -0.037007
H27   H     H_    0.942310 0.976586 0.298236 0.142343
H28   H     H_    0.966234 0.095974 0.497751 0.169307
H29   H     H_    0.441958 0.476397 0.298554 0.142369
H30   H     H_    0.465907 0.595953 0.497799 0.169088
H31   H     H_    0.066575 0.066667 0.413664 0.153219
H32   H     H_    0.566270 0.566477 0.413674 0.153571
C65   C     C_3   0.267145 0.813710 0.108563 -0.383122
C66   C     C_3   0.261083 0.184157 0.103098 -0.376309
C67   C     C_3   0.766778 0.313747 0.108188 -0.377271
C68   C     C_3   0.760438 0.683997 0.102470 -0.375498
H33   H     H_    0.341560 0.815103 0.183331 0.157768
H34   H     H_    0.334846 0.184324 0.179408 0.160381
H35   H     H_    0.841074 0.315318 0.183167 0.157164
H36   H     H_    0.834040 0.683948 0.179065 0.160232
H37   H     H_    0.229351 0.849070 0.112132 0.167547
H38   H     H_    0.226171 0.146551 0.103925 0.165705
H39   H     H_    0.728655 0.349071 0.111277 0.169178
H40   H     H_    0.725191 0.646360 0.102526 0.165923
C69   C     C_3   0.724298 0.259960 0.112652 -0.479314
C70   C     C_3   0.710686 0.734816 0.105760 -0.483881
C71   C     C_3   0.224534 0.759959 0.112953 -0.473420
C72   C     C_3   0.211339 0.235041 0.106180 -0.483052
H41   H     H_    0.173895 0.768202 0.132391 0.175197
H42   H     H_    0.158086 0.223055 0.119604 0.168754
H43   H     H_    0.673427 0.268167 0.131756 0.174587
H44   H     H_    0.657214 0.722744 0.118779 0.168695
H45   H     H_    0.782758 0.235299 0.182165 0.162154
H46   H     H_    0.764822 0.759541 0.178567 0.171804
H47   H     H_    0.282977 0.735179 0.182225 0.162118
H48   H     H_    0.265558 0.259904 0.178680 0.171811
H49   H     H_    0.883307 0.262947 0.068081 0.146312
H50   H     H_    0.878217 0.741306 0.073928 0.154504
H51   H     H_    0.382956 0.762891 0.067540 0.146358
H52   H     H_    0.378096 0.241177 0.073272 0.154144
H53   H     H_    0.811334 0.190309 0.069116 0.094078
H54   H     H_    0.798981 0.810137 0.074754 0.104979
H55   H     H_    0.310873 0.690264 0.068420 0.094118
H56   H     H_    0.299026 0.310219 0.073728 0.104845
C73   C     C_3   0.807614 0.264456 0.994690 -0.461094
C74   C     C_3   0.803700 0.739268 0.998067 -0.457872
C75   C     C_3   0.307207 0.764517 0.994306 -0.461036
C76   C     C_3   0.303507 0.239034 0.997571 -0.457584
C77   C     C_3   0.152164 0.816886 0.903225 -0.383191
C78   C     C_3   0.150905 0.182853 0.897946 -0.373220
C79   C     C_3   0.652335 0.316604 0.902748 -0.382664
C80   C     C_3   0.651084 0.683256 0.897176 -0.372757
C81   C     C_3   0.259474 0.816104 0.000816 0.304179
C82   C     C_3   0.257396 0.185462 0.997943 0.293899
C83   C     C_3   0.759536 0.316016 0.000706 0.301600
C84   C     C_3   0.757381 0.685640 0.997739 0.293375
H57   H     H_    0.141148 0.811606 0.824716 0.211868
H58   H     H_    0.141327 0.188124 0.820637 0.214924
H59   H     H_    0.641719 0.311094 0.824493 0.212254
H60   H     H_    0.642184 0.689194 0.820376 0.214408
H61   H     H_    0.120369 0.856616 0.900891 0.191704
H62   H     H_    0.121543 0.142271 0.895601 0.211319
H63   H     H_    0.620262 0.356332 0.899828 0.192067
H64   H     H_    0.621491 0.642564 0.893638 0.212690
C85   C     C_3   0.676356 0.228482 0.001700 0.253611
C86   C     C_3   0.664906 0.768599 0.997659 0.257638
C87   C     C_3   0.176172 0.728609 0.001798 0.251553
C88   C     C_3   0.165161 0.268606 0.997736 0.257339
C89   C     C_3   0.757692 0.212727 0.991714 0.064506
C90   C     C_3   0.748957 0.788518 0.995055 0.060644
C91   C     C_3   0.257179 0.712822 0.991248 0.064709
C92   C     C_3   0.248850 0.288370 0.994362 0.060201
C93   C     C_3   0.600643 0.267654 0.907887 0.028994
C94   C     C_3   0.594237 0.730225 0.899374 0.026336
C95   C     C_3   0.100456 0.767911 0.908314 0.029417
C96   C     C_3   0.094292 0.230092 0.899856 0.026897
H65   H     H_    0.563672 0.246244 0.828151 0.143257
H66   H     H_    0.560442 0.753282 0.821711 0.145263
H67   H     H_    0.063269 0.746596 0.828457 0.143460
H68   H     H_    0.060486 0.252974 0.821995 0.145845
H69   H     H_    0.809538 0.266389 0.923037 0.203752
H70   H     H_    0.809319 0.740253 0.929129 0.208230
H71   H     H_    0.308949 0.766501 0.922534 0.203934
H72   H     H_    0.308987 0.239847 0.928537 0.208897
C97   C     C_3   0.575004 0.052649 0.608621 -0.447570
C98   C     C_3   0.587188 0.952230 0.618761 -0.426652
C99   C     C_3   0.070724 0.554817 0.604865 -0.458709
C100  C     C_3   0.094852 0.455200 0.624523 -0.416922
H73   H     H_    0.540639 0.091219 0.605070 0.156543
H74   H     H_    0.560499 0.912030 0.621356 0.168767
H75   H     H_    0.032757 0.592217 0.598934 0.158199
H76   H     H_    0.073722 0.414072 0.631028 0.178825
H77   H     H_    0.645665 0.053205 0.690406 0.180245
H78   H     H_    0.656331 0.956913 0.701346 0.171437
H79   H     H_    0.141910 0.558062 0.685577 0.181424
H80   H     H_    0.163533 0.462715 0.706247 0.166217
C101  C     C_3   0.589127 0.054281 0.519047 -0.432525
C102  C     C_3   0.604949 0.952164 0.531681 -0.403254
C103  C     C_3   0.082212 0.556457 0.513231 -0.429108
C104  C     C_3   0.111736 0.455335 0.536637 -0.403102
H81   H     H_    0.665568 0.059887 0.556641 0.174497
H82   H     H_    0.682311 0.955653 0.572011 0.167406
H83   H     H_    0.157165 0.565689 0.548140 0.173609
H84   H     H_    0.188227 0.462360 0.575714 0.167719
H85   H     H_    0.549875 0.090233 0.466031 0.161969
H86   H     H_    0.581700 0.912461 0.488296 0.153752
H87   H     H_    0.037115 0.590192 0.456476 0.161814
H88   H     H_    0.093930 0.414542 0.497509 0.153309
H89   H     H_    0.408899 0.031492 0.335849 0.137219
H90   H     H_    0.414640 0.960648 0.338521 0.182616
H91   H     H_    0.905200 0.524824 0.333333 0.142602
H92   H     H_    0.919253 0.454440 0.345774 0.171999
C105  C     C_3   0.419036 0.995529 0.477036 0.381057
C106  C     C_3   0.921518 0.492102 0.480613 0.389165
C107  C     C_3   0.519175 0.999915 0.597224 0.312059
C108  C     C_3   0.021472 0.500261 0.599475 0.322865
C109  C     C_3   0.551729 0.000700 0.452067 0.357992
C110  C     C_3   0.051645 0.501023 0.452246 0.360109
C111  C     C_3   0.443428 0.996449 0.393836 -0.468683
C112  C     C_3   0.944523 0.492132 0.396212 -0.489845
N33   N     N_R   0.258491 0.154886 0.799354 0.187173
O1    O     O_R   0.304086 0.184591 0.774021 -0.470746
O2    O     O_R   0.172783 0.139357 0.721056 -0.435658
N34   N     N_R   0.239945 0.859606 0.796174 0.192381
O3    O     O_R   0.156302 0.882083 0.736883 -0.400083
O4    O     O_R   0.264910 0.826558 0.750456 -0.444857
N35   N     N_R   0.758593 0.654917 0.799257 0.187280
O5    O     O_R   0.804125 0.684623 0.773841 -0.470398
O6    O     O_R   0.672831 0.639407 0.721073 -0.435756
N36   N     N_R   0.739781 0.359817 0.796111 0.192461
O7    O     O_R   0.656138 0.382294 0.737230 -0.400278
O8    O     O_R   0.764285 0.326596 0.750169 -0.443994
N37   N     N_R   0.067730 0.898309 0.478877 0.239957
O9    O     O_R   0.042531 0.855611 0.506425 -0.360288
O10   O     O_R   0.114000 0.892108 0.437492 -0.427700
N38   N     N_R   0.082022 0.029658 0.701274 0.251100
O11   O     O_R   0.046128 0.070933 0.718692 -0.425122
O12   O     O_R   0.136029 0.995479 0.780811 -0.386864
N39   N     N_R   0.567402 0.398211 0.479342 0.240288
O13   O     O_R   0.542111 0.355560 0.506899 -0.359900
O14   O     O_R   0.613611 0.391927 0.437900 -0.428950
N40   N     N_R   0.581882 0.529787 0.701499 0.251183
O15   O     O_R   0.545958 0.571079 0.718827 -0.425743
O16   O     O_R   0.636025 0.495688 0.781150 -0.386683
C113  C     C_3   0.022381 0.786328 0.920445 -0.367094
C114  C     C_3   0.933872 0.807891 0.812414 -0.836185
H93   H     H_    0.951233 0.843853 0.783105 0.257532
H94   H     H_    0.902480 0.775597 0.748447 0.277874
H95   H     H_    0.880332 0.820296 0.825113 0.252922
H96   H     H_    0.000035 0.751525 0.946913 0.213139
H97   H     H_    0.049665 0.818696 0.983888 0.200547
C115  C     C_3   0.012193 0.208958 0.902359 -0.379777
C116  C     C_3   0.928698 0.187570 0.790309 -0.839991
H98   H     H_    0.898689 0.220709 0.728092 0.266991
H99   H     H_    0.951183 0.153298 0.762850 0.284475
H100  H     H_    0.872303 0.172705 0.796223 0.249357
H101  H     H_    0.037479 0.175782 0.963910 0.201350
H102  H     H_    0.984895 0.242297 0.926099 0.205558
C117  C     C_3   0.522319 0.286097 0.919576 -0.367530
C118  C     C_3   0.433861 0.307472 0.811272 -0.834937
H103  H     H_    0.451209 0.343375 0.781815 0.257499
H104  H     H_    0.402689 0.275063 0.747548 0.277516
H105  H     H_    0.380148 0.319911 0.823668 0.252839
H106  H     H_    0.499983 0.251343 0.946160 0.213346
H107  H     H_    0.549363 0.318576 0.982767 0.200072
C119  C     C_3   0.512111 0.708744 0.901503 -0.378843
C120  C     C_3   0.428645 0.687644 0.789141 -0.840252
H108  H     H_    0.398614 0.721011 0.727406 0.266512
H109  H     H_    0.451169 0.653630 0.761201 0.284915
H110  H     H_    0.372255 0.672505 0.794827 0.249203
H111  H     H_    0.537390 0.675327 0.962576 0.201535
H112  H     H_    0.484783 0.741844 0.925689 0.205339
C121  C     C_3   0.737801 0.171788 0.901103 -0.382907
C122  C     C_3   0.669291 0.190074 0.780922 -0.847194
H113  H     H_    0.594749 0.183230 0.748504 0.226773
H114  H     H_    0.679366 0.233228 0.769080 0.293434
H115  H     H_    0.681916 0.164882 0.729956 0.245218
H116  H     H_    0.807000 0.163058 0.916769 0.191817
H117  H     H_    0.713951 0.131900 0.911006 0.193592
C123  C     C_3   0.731395 0.831825 0.908997 -0.358611
C124  C     C_3   0.667469 0.815097 0.787511 -0.881931
H118  H     H_    0.678160 0.772168 0.774788 0.287107
H119  H     H_    0.591875 0.821959 0.750699 0.232203
H120  H     H_    0.684178 0.841088 0.741260 0.246319
H121  H     H_    0.705366 0.870748 0.919372 0.195704
H122  H     H_    0.801833 0.842195 0.929422 0.189700
C125  C     C_3   0.236810 0.672044 0.900181 -0.383848
C126  C     C_3   0.168113 0.690571 0.780173 -0.845441
H123  H     H_    0.093618 0.683673 0.747901 0.226787
H124  H     H_    0.178139 0.733786 0.768639 0.293317
H125  H     H_    0.180567 0.665583 0.728837 0.245060
H126  H     H_    0.305850 0.663277 0.915465 0.191917
H127  H     H_    0.212914 0.632135 0.909924 0.193668
C127  C     C_3   0.230774 0.331316 0.907509 -0.358187
C128  C     C_3   0.166667 0.314074 0.786318 -0.882305
H128  H     H_    0.183873 0.339291 0.739649 0.246685
H129  H     H_    0.176656 0.270878 0.774336 0.288226
H130  H     H_    0.091182 0.321479 0.749398 0.228283
H131  H     H_    0.204663 0.370334 0.917409 0.194980
H132  H     H_    0.301059 0.341675 0.927488 0.189581
C129  C     C_3   0.352957 0.046835 0.449385 -0.413927
C130  C     C_3   0.291978 0.045876 0.491167 -0.941232
H133  H     H_    0.221334 0.027917 0.428069 0.260261
H134  H     H_    0.323959 0.021521 0.566464 0.271197
H135  H     H_    0.280566 0.088109 0.507580 0.260031
H136  H     H_    0.393108 0.085450 0.475237 0.193721
H137  H     H_    0.300738 0.050901 0.358589 0.193186
C131  C     C_3   0.357542 0.943004 0.457437 -0.272823
C132  C     C_3   0.376849 0.888137 0.424563 -0.979448
H138  H     H_    0.339991 0.886419 0.334396 0.250493
H139  H     H_    0.452110 0.879198 0.465828 0.262893
H140  H     H_    0.347182 0.854583 0.444650 0.274999
H141  H     H_    0.356915 0.935659 0.528750 0.192261
H142  H     H_    0.282184 0.951781 0.388940 0.215205
C133  C     C_3   0.850221 0.541446 0.447389 -0.418522
C134  C     C_3   0.787421 0.539362 0.486431 -0.948699
H143  H     H_    0.726556 0.511398 0.433731 0.268803
H144  H     H_    0.826203 0.525298 0.571761 0.273333
H145  H     H_    0.758260 0.580578 0.480117 0.259363
H146  H     H_    0.886432 0.581304 0.470533 0.196778
H147  H     H_    0.798317 0.543450 0.356284 0.195367
C135  C     C_3   0.864836 0.438219 0.465125 -0.280431
C136  C     C_3   0.905668 0.381746 0.469987 -0.963356
H148  H     H_    0.950683 0.381498 0.441777 0.257559
H149  H     H_    0.945476 0.364177 0.553656 0.249754
H150  H     H_    0.846207 0.353119 0.416141 0.266524
H151  H     H_    0.846760 0.437268 0.523638 0.209230
H152  H     H_    0.795480 0.440657 0.382252 0.199460
C137  C     C_3   0.793488 0.897020 0.337787 -0.330130
C138  C     C_3   0.727008 0.870033 0.357845 -0.928293
H153  H     H_    0.732230 0.891029 0.426187 0.260104
H154  H     H_    0.652541 0.871608 0.283214 0.256365
H155  H     H_    0.747628 0.826656 0.381017 0.257356
H156  H     H_    0.799686 0.874667 0.279312 0.179113
H157  H     H_    0.864793 0.893986 0.415292 0.223057
C139  C     C_3   0.764332 0.099755 0.354428 -0.378409
C140  C     C_3   0.783245 0.092084 0.466208 -0.873516
H158  H     H_    0.735689 0.060605 0.460904 0.252033
H159  H     H_    0.856983 0.079079 0.530265 0.281330
H160  H     H_    0.770761 0.131150 0.492786 0.253203
H161  H     H_    0.818251 0.127048 0.362255 0.178842
H162  H     H_    0.694263 0.120126 0.300475 0.191421
C141  C     C_3   0.293081 0.397027 0.338255 -0.329637
C142  C     C_3   0.226036 0.370122 0.357521 -0.928839
H163  H     H_    0.230876 0.391128 0.425616 0.260012
H164  H     H_    0.151728 0.371759 0.282564 0.256730
H165  H     H_    0.246467 0.326729 0.380720 0.257332
H166  H     H_    0.299769 0.374603 0.280224 0.179204
H167  H     H_    0.364141 0.394017 0.416145 0.222816
C143  C     C_3   0.263923 0.599691 0.354574 -0.377607
C144  C     C_3   0.282710 0.591922 0.466280 -0.874778
H168  H     H_    0.235411 0.560244 0.461005 0.251873
H169  H     H_    0.356570 0.579146 0.530447 0.281508
H170  H     H_    0.269808 0.630899 0.492697 0.252751
H171  H     H_    0.317817 0.627071 0.362555 0.178696
H172  H     H_    0.193814 0.620011 0.300506 0.191275

loop_
_geom_bond_atom_site_label_1
_geom_bond_atom_site_label_2
_geom_bond_distance
_ccdc_geom_bond_type
C47   C87   1.461090 S    
C39   H23   1.078346 S    
C120  H108  1.110814 S    
C14   N14   1.329327 A    
C132  H138  1.110883 S    
C123  H122  1.112958 S    
N3    Ni3   1.904842 S    
C127  H131  1.108933 S    
C31   C141  1.504159 S    
C118  H103  1.109932 S    
C27   H15   1.077569 S    
C53   H25   1.110342 S    
C73   H69   1.108974 S    
C139  H161  1.108608 S    
N16   Ni3   1.872462 S    
N32   Ni3   1.893153 S    
C101  H81   1.112196 S    
N39   O14   1.300492 A    
C5    H1    1.075295 S    
N36   O8    1.301153 A    
C7    H3    1.075268 S    
H89   C111  1.114368 S    
C8    H4    1.076443 S    
C110  C112  1.552116 S    
C121  H116  1.112847 S    
C130  H133  1.111046 S    
C32   C143  1.509281 S    
C5    C18   1.394213 A    
N33   O1    1.300941 A    
C7    C20   1.394278 A    
H55   C91   1.116575 S    
C8    C19   1.399448 A    
C104  H84   1.113380 S    
C33   N25   1.323404 A    
C142  H163  1.111144 S    
N34   O4    1.301319 A    
C80   H64   1.112249 S    
C140  H160  1.110410 S    
C106  C108  1.611177 S    
N39   O13   1.300132 A    
C134  H143  1.111007 S    
C75   C91   1.528845 S    
C37   C46   1.364707 A    
C38   H22   1.077181 S    
N14   Ni1   1.872462 S    
C73   C89   1.528909 S    
N1    N6    1.401561 A    
C100  H80   1.114265 S    
N30   Ni1   1.893153 S    
C9    N9    1.317341 A    
C46   C86   1.460475 S    
C97   H73   1.105482 S    
C11   N11   1.316164 A    
N15   N16   1.412524 A    
C12   N12   1.322479 A    
C70   C86   1.563983 S    
C76   H72   1.108155 S    
C32   N24   1.330611 A    
C51   C54   1.538359 S    
C99   C103  1.520633 S    
C8    N8    1.324744 A    
C130  H135  1.110483 S    
C135  H152  1.113585 S    
C28   C42   1.385864 A    
C58   C61   1.553198 S    
C141  H166  1.102179 S    
C114  H94   1.110717 S    
C16   N16   1.329328 A    
C122  H113  1.104548 S    
C25   N17   1.314025 A    
N2    Ni2   1.906420 S    
C12   H8    1.078627 S    
C79   H59   1.094612 S    
C132  H140  1.110749 S    
C85   C93   1.566788 S    
C80   H60   1.089044 S    
C26   C41   1.386414 A    
C117  H106  1.110829 S    
C35   C47   1.375094 A    
C118  H105  1.110590 S    
C61   H31   1.109889 S    
C34   C46   1.368644 A    
C21   C109  1.453869 S    
C144  H168  1.106498 S    
N21   Ni5   1.879510 S    
C69   C85   1.563616 S    
C97   H77   1.114535 S    
C69   H43   1.111547 S    
C72   C88   1.564253 S    
C1    N33   1.432795 S    
C30   N22   1.330540 A    
C115  H102  1.110825 S    
C6    N6    1.324633 A    
C68   C84   1.558353 S    
C52   C54   1.525219 S    
N9    Ni6   1.911725 S    
C129  H137  1.113291 S    
C143  H171  1.108612 S    
C88   C96   1.562303 S    
N21   N22   1.413012 A    
C106  C135  1.586864 S    
C54   H26   1.110330 S    
C55   C57   1.546861 S    
C67   C83   1.559305 S    
C30   C139  1.509251 S    
C52   C64   1.536027 S    
C60   H30   1.106763 S    
C74   C84   1.546232 S    
C33   H17   1.073927 S    
C109  C111  1.552849 S    
C35   H19   1.074058 S    
C142  H165  1.110324 S    
C98   H78   1.114422 S    
C128  H129  1.105775 S    
C98   C102  1.528931 S    
C105  C129  1.588499 S    
C106  C133  1.591159 S    
C134  H145  1.110529 S    
C4    N36   1.424877 S    
C30   C43   1.375789 A    
C104  C110  1.546711 S    
C78   H58   1.088706 S    
C9    C21   1.374191 A    
C23   C63   1.437104 S    
C135  H151  1.108080 S    
C101  C109  1.546941 S    
C77   H61   1.112515 S    
C14   C23   1.361700 A    
N9    N10   1.391927 A    
C113  H96   1.110834 S    
C119  H112  1.110844 S    
C120  H109  1.109830 S    
C3    N35   1.432582 S    
C52   N40   1.459637 S    
C103  H83   1.112251 S    
C94   C119  1.557204 S    
C126  H123  1.104568 S    
C58   H28   1.106743 S    
N37   O9    1.300145 A    
N6    Ni6   1.877927 S    
C143  C144  1.532839 S    
N19   Ni3   1.904960 S    
C40   C47   1.376071 A    
C67   H35   1.107936 S    
C124  H119  1.105062 S    
C39   N31   1.315318 A    
C94   H66   1.106436 S    
C28   N20   1.316414 A    
C92   C127  1.564047 S    
C15   N15   1.329145 A    
C16   C24   1.361749 A    
C95   C113  1.557502 S    
H49   C73   1.114791 S    
C71   H41   1.111546 S    
C133  H146  1.103639 S    
C116  H98   1.110831 S    
C18   C81   1.482664 S    
C139  C140  1.532649 S    
C12   C22   1.376015 A    
N4    N7    1.401553 A    
C131  C132  1.540768 S    
C6    H2    1.076445 S    
N28   N31   1.387219 A    
C71   H47   1.112875 S    
C61   C63   1.534203 S    
C19   C84   1.477781 S    
C57   C61   1.554803 S    
N11   N12   1.391927 A    
C96   H68   1.106488 S    
C6    C17   1.399300 A    
C41   C107  1.460743 S    
C137  H157  1.095095 S    
C93   C117  1.557534 S    
N40   O16   1.299968 A    
C17   C82   1.477862 S    
C49   C53   1.538381 S    
N1    Ni1   1.904842 S    
N3    N8    1.401561 A    
C34   H18   1.069889 S    
H52   C76   1.114978 S    
C75   H71   1.108873 S    
C100  C104  1.529943 S    
C144  H170  1.110403 S    
C76   C82   1.546489 S    
N2    N5    1.401553 A    
N23   Ni7   1.879509 S    
C60   C62   1.553260 S    
C10   N10   1.321250 A    
C97   C107  1.570516 S    
C80   C94   1.537601 S    
N38   O11   1.300051 A    
C131  H141  1.103736 S    
C99   H79   1.114472 S    
C126  H125  1.110578 S    
C127  H132  1.112978 S    
N11   Ni8   1.911725 S    
C56   C59   1.546916 S    
C118  H104  1.110721 S    
N4    Ni4   1.906420 S    
N23   N24   1.413012 A    
C136  H150  1.111099 S    
C139  H162  1.110023 S    
N25   N30   1.387212 A    
C1    C17   1.406550 A    
C50   N38   1.459712 S    
C66   H38   1.112772 S    
N27   N32   1.387212 A    
C3    C19   1.406082 A    
N17   N18   1.391927 A    
C87   C91   1.574372 S    
C50   C53   1.525152 S    
C77   H57   1.094385 S    
N19   N20   1.391927 A    
C85   C89   1.574268 S    
C80   C84   1.555500 S    
C115  C116  1.529765 S    
C102  H86   1.107549 S    
C138  H153  1.111152 S    
C116  H100  1.110487 S    
C117  C118  1.529596 S    
C99   C108  1.569999 S    
C75   C81   1.552643 S    
C130  H134  1.100012 S    
C29   C43   1.385482 A    
C89   C121  1.563588 S    
C51   C64   1.521238 S    
C40   N32   1.313978 A    
C77   C95   1.537051 S    
C97   C101  1.521523 S    
N13   N14   1.412524 A    
C36   N28   1.329341 A    
C142  H164  1.107912 S    
C137  C138  1.525429 S    
N35   O5    1.300913 A    
C140  H159  1.105385 S    
C7    N7    1.325150 A    
C122  H114  1.105317 S    
C1    N1    1.320521 A    
C88   C92   1.580609 S    
C65   H37   1.112681 S    
C134  H144  1.097717 S    
C74   H70   1.108388 S    
C3    N3    1.320338 A    
C62   H32   1.109912 S    
C4    C20   1.402324 A    
C31   C44   1.385247 A    
C119  C120  1.529747 S    
C2    N34   1.425193 S    
C79   C93   1.536683 S    
C9    H5    1.079676 S    
H51   C75   1.114805 S    
C78   C82   1.555605 S    
C29   C137  1.504119 S    
N26   N29   1.387219 A    
C42   C108  1.459233 S    
C113  C114  1.529593 S    
C95   H67   1.105580 S    
C114  H95   1.110590 S    
C49   N37   1.456563 S    
C34   N26   1.329467 A    
C102  C109  1.548711 S    
C103  H87   1.112419 S    
C132  H139  1.096464 S    
C123  H121  1.108971 S    
C133  H147  1.112989 S    
C105  C111  1.557806 S    
C27   C42   1.386921 A    
C36   H20   1.069879 S    
C38   C45   1.376142 A    
N15   Ni4   1.870300 S    
C66   H34   1.108748 S    
C136  H148  1.102778 S    
C74   C90   1.527057 S    
C25   H13   1.078206 S    
N31   Ni4   1.890890 S    
C11   C22   1.372799 A    
N24   Ni8   1.877329 S    
C66   C72   1.539551 S    
C67   C69   1.537961 S    
C117  H107  1.111228 S    
C28   H16   1.076731 S    
C122  H115  1.110614 S    
C15   H11   1.076584 S    
N36   O7    1.301824 A    
C48   C88   1.460699 S    
C133  C134  1.535486 S    
H50   C74   1.114948 S    
C121  H117  1.109768 S    
N12   Ni7   1.910189 S    
C129  H136  1.104269 S    
C143  H172  1.110055 S    
C100  C108  1.562682 S    
C91   C125  1.563694 S    
N33   O2    1.300252 A    
C50   C63   1.536100 S    
C43   C55   1.450766 S    
N34   O3    1.301913 A    
C86   C94   1.562345 S    
C10   C21   1.376036 A    
C65   H33   1.107944 S    
C37   H21   1.078278 S    
C70   H46   1.112887 S    
C57   H27   1.110485 S    
C105  C131  1.592560 S    
N17   Ni1   1.904960 S    
C68   H36   1.108697 S    
C62   C64   1.534178 S    
N22   Ni6   1.877327 S    
C33   C45   1.375134 A    
C39   C48   1.364842 A    
C13   C23   1.360477 A    
C26   N18   1.314915 A    
C78   C96   1.538062 S    
C13   N13   1.329205 A    
C98   C107  1.560357 S    
C35   N27   1.323489 A    
C29   N21   1.338534 A    
C125  H127  1.109735 S    
N10   Ni5   1.910189 S    
C126  H124  1.105306 S    
C31   N23   1.338452 A    
C129  C130  1.538629 S    
C13   H9    1.076612 S    
H91   C112  1.114299 S    
C128  H128  1.110271 S    
N20   Ni4   1.906479 S    
C124  H118  1.105816 S    
C10   H6    1.078060 S    
C101  H85   1.111752 S    
C15   C24   1.360255 A    
C114  H93   1.109930 S    
C69   H45   1.112858 S    
C99   H75   1.105251 S    
C125  C126  1.533712 S    
C72   H48   1.112909 S    
C121  C122  1.533608 S    
C141  C142  1.525497 S    
C4    N4    1.326602 A    
C68   H40   1.112749 S    
C2    C18   1.402648 A    
C67   H39   1.112668 S    
C49   C63   1.521205 S    
C87   C95   1.566752 S    
C104  H88   1.108453 S    
C54   C56   1.535333 S    
N35   O6    1.300320 A    
C115  H101  1.111282 S    
C102  H82   1.113381 S    
C103  C110  1.548638 S    
C105  C107  1.613147 S    
C106  C112  1.556984 S    
C53   C55   1.535373 S    
C55   C58   1.540498 S    
N5    Ni5   1.880167 S    
C38   N30   1.313594 A    
N18   Ni2   1.906479 S    
N7    Ni7   1.880167 S    
C100  H76   1.099790 S    
C45   C85   1.460751 S    
C49   C57   1.532792 S    
C59   C62   1.554763 S    
C93   H65   1.105572 S    
C11   H7    1.079873 S    
C137  H156  1.102128 S    
H90   C111  1.106213 S    
C50   C58   1.530738 S    
C71   C87   1.563629 S    
C128  H130  1.105085 S    
C52   C60   1.530747 S    
C125  H126  1.112874 S    
C2    N2    1.326796 A    
C37   N29   1.315104 A    
N25   Ni6   1.900188 S    
C144  H169  1.105469 S    
N27   Ni8   1.900188 S    
C113  H97   1.111237 S    
C119  H111  1.111286 S    
C40   H24   1.077157 S    
C16   H12   1.078189 S    
C120  H110  1.110525 S    
N38   O12   1.299969 A    
C131  H142  1.112288 S    
C79   C83   1.554632 S    
C98   H74   1.103046 S    
C79   H63   1.112498 S    
C27   N19   1.313090 A    
N37   O10   1.300489 A    
C56   C60   1.540460 S    
C127  C128  1.534420 S    
C25   C41   1.387422 A    
C136  H149  1.106822 S    
C77   C81   1.554627 S    
C36   C48   1.368788 A    
C124  H120  1.110299 S    
C51   N39   1.456546 S    
C5    N5    1.325178 A    
C123  C124  1.534341 S    
C72   H42   1.111316 S    
C138  H154  1.107878 S    
C116  H99   1.109868 S    
H54   C90   1.116548 S    
C66   C82   1.558232 S    
C68   C70   1.539520 S    
C26   H14   1.079422 S    
C59   H29   1.110491 S    
C14   H10   1.078117 S    
C44   C56   1.450669 S    
C22   C110  1.452981 S    
H53   C89   1.116574 S    
N8    Ni8   1.877927 S    
C138  H155  1.110327 S    
C140  H158  1.106151 S    
C51   C59   1.532768 S    
C141  H167  1.095201 S    
C24   C64   1.437051 S    
H92   C112  1.109494 S    
C78   H62   1.112368 S    
C90   C123  1.564072 S    
C135  C136  1.540199 S    
N26   Ni5   1.898632 S    
C73   C83   1.552703 S    
C76   C92   1.526757 S    
N40   O15   1.300016 A    
C86   C90   1.580987 S    
C65   C81   1.559349 S    
H56   C92   1.116556 S    
N28   Ni7   1.898632 S    
N13   Ni2   1.870300 S    
C65   C71   1.538023 S    
C70   H44   1.111321 S    
C32   C44   1.375766 A    
N29   Ni2   1.890890 S    
C20   C83   1.482423 S    
C96   C115  1.557159 S    
