data_mof_unit_34833.cif
_audit_creation_date              2012-12-11T14:44:28-0500
_audit_creation_method            fapswitch 2.2
_symmetry_space_group_name_H-M    P1
_symmetry_Int_Tables_number       1
_space_group_crystal_system       triclinic
_cell_length_a                    25.407544
_cell_length_b                    16.780908
_cell_length_c                    15.731053
_cell_angle_alpha                 89.131563
_cell_angle_beta                  48.820349
_cell_angle_gamma                 90.190512
_cell_volume                      5046.73549508

loop_
_atom_site_label
_atom_site_type_symbol
_atom_type_description
_atom_site_fract_x
_atom_site_fract_y
_atom_site_fract_z
_atom_type_partial_charge
C1    C     C_R   0.331258 0.095395 0.811428 0.559116
C2    C     C_3   0.771023 0.817863 0.586375 0.254864
C3    C     C_3   0.721950 0.268691 0.584944 0.261358
C4    C     C_3   0.229552 0.820813 0.413414 0.260412
C5    C     C_3   0.780721 0.773616 0.412309 0.260002
C6    C     C_3   0.271525 0.318157 0.585526 0.255600
C7    C     C_3   0.221618 0.768935 0.585023 0.260880
C8    C     C_3   0.729233 0.320913 0.414129 0.263093
C9    C     C_2   0.705523 0.142143 0.001104 0.543643
C10   C     C_2   0.392670 0.712008 0.771941 0.449467
C11   C     C_2   0.294563 0.120012 0.997745 0.496251
C12   C     C_R   0.646166 0.852863 0.242065 0.513268
C13   C     C_2   0.645875 0.744889 0.131628 0.418004
C14   C     C_2   0.206777 0.637705 0.997967 0.510544
C15   C     C_2   0.892002 0.212335 0.776248 0.425042
C16   C     C_2   0.794312 0.619625 0.998060 0.496272
C17   C     C_2   0.146941 0.246087 0.129509 0.426365
C18   C     C_2   0.762982 0.189669 0.953359 0.042614
C19   C     C_2   0.334966 0.663348 0.841365 0.242542
C20   C     C_2   0.260625 0.189148 0.031202 0.162684
C21   C     C_2   0.685263 0.694321 0.134995 0.232226
C22   C     C_2   0.263715 0.686723 0.948825 -0.006989
C23   C     C_R   0.668207 0.105425 0.190187 0.530225
C24   C     C_2   0.834170 0.164432 0.848406 0.284432
C25   C     C_2   0.759917 0.688500 0.032127 0.160750
C26   C     C_2   0.185926 0.195322 0.133547 0.226294
C27   C     C_R   0.590139 0.144682 0.594875 0.218223
C28   C     C_R   0.388452 0.893228 0.404049 0.180156
C29   C     C_R   0.410405 0.146170 0.404122 0.220968
C30   C     C_R   0.612121 0.892384 0.595437 0.168711
C31   C     C_R   0.089993 0.644920 0.594751 0.217816
C32   C     C_R   0.888391 0.393433 0.404083 0.180401
C33   C     C_R   0.910730 0.646527 0.404247 0.217487
C34   C     C_R   0.357083 0.847273 0.749626 0.503498
C35   C     C_R   0.112510 0.393151 0.595130 0.169566
C36   C     C_R   0.665991 0.147234 0.406477 0.200059
C37   C     C_R   0.310120 0.896998 0.590876 0.251908
C38   C     C_R   0.335036 0.146232 0.592286 0.193213
C39   C     C_R   0.689708 0.897477 0.408512 0.246344
C40   C     C_R   0.165857 0.647322 0.406383 0.232934
C41   C     C_R   0.810103 0.397051 0.590961 0.254020
C42   C     C_R   0.835184 0.646322 0.592437 0.193714
C43   C     C_R   0.189882 0.398227 0.408135 0.269764
C44   C     C_R   0.582141 0.105991 0.191351 -0.145258
C45   C     C_R   0.831227 0.595315 0.811478 0.559097
C46   C     C_R   0.445589 0.850289 0.744882 -0.158617
C47   C     C_R   0.417508 0.095883 0.810775 -0.124914
C48   C     C_R   0.558110 0.856492 0.243536 -0.179914
C49   C     C_R   0.083371 0.603467 0.189608 -0.097739
C50   C     C_R   0.945528 0.350670 0.745566 -0.152534
C51   C     C_R   0.917405 0.595735 0.810906 -0.124100
C52   C     C_R   0.058505 0.356879 0.242613 -0.186719
C53   C     C_R   0.348191 0.112225 0.875188 -0.171183
C54   C     C_R   0.614032 0.811232 0.211068 -0.139786
C55   C     C_R   0.651286 0.130953 0.127364 -0.129339
C56   C     C_R   0.146869 0.353648 0.240569 0.528332
C57   C     C_R   0.391924 0.801145 0.771467 -0.126125
C58   C     C_R   0.848080 0.612206 0.875339 -0.170479
C59   C     C_R   0.114846 0.312096 0.209308 -0.155229
C60   C     C_R   0.153320 0.625863 0.124450 -0.223717
C61   C     C_R   0.891861 0.301473 0.772549 -0.133890
C62   C     C_R   0.639764 0.191971 0.501197 -0.033833
C63   C     C_R   0.321674 0.873573 0.496789 -0.032663
C64   C     C_R   0.361481 0.192371 0.496763 -0.034630
C65   C     C_R   0.678604 0.873064 0.502739 -0.034779
C66   C     C_R   0.139611 0.692196 0.500990 -0.058918
C67   C     C_R   0.169170 0.601575 0.189900 0.565997
C68   C     C_R   0.821598 0.373860 0.496875 -0.032099
C69   C     C_R   0.861718 0.692649 0.497036 -0.032834
C70   C     C_R   0.179243 0.374674 0.502208 -0.056700
C71   C     C_3   0.339761 0.311513 0.402151 0.551528
C72   C     C_3   0.712402 0.779827 0.595292 0.557976
C73   C     C_3   0.662184 0.305831 0.597225 0.551819
C74   C     C_3   0.288821 0.783431 0.402368 0.561364
C75   C     C_3   0.839386 0.811531 0.402931 0.552758
C76   C     C_3   0.212643 0.280758 0.594676 0.558447
C77   C     C_3   0.162149 0.806313 0.596661 0.552486
C78   C     C_R   0.857109 0.347208 0.750009 0.499949
C79   C     C_3   0.788803 0.283772 0.402419 0.562246
C80   C     C_3   0.789292 0.874568 0.490305 -0.381125
C81   C     C_3   0.261485 0.218394 0.507356 -0.425860
C82   C     C_3   0.211385 0.873153 0.510488 -0.377504
C83   C     C_3   0.740678 0.217552 0.488269 -0.431981
C84   C     C_3   0.290151 0.374932 0.489242 -0.382418
C85   C     C_3   0.761716 0.717817 0.507726 -0.428718
C86   C     C_3   0.711044 0.372990 0.511406 -0.377655
C87   C     C_3   0.240327 0.717554 0.488550 -0.433431
C88   C     C_3   0.730067 0.835122 0.501870 -0.149867
C89   C     C_3   0.280805 0.274287 0.411755 0.253579
C90   C     C_3   0.321700 0.255498 0.496258 -0.155518
C91   C     C_3   0.271168 0.834444 0.496870 -0.158772
C92   C     C_3   0.679780 0.254497 0.501889 -0.159655
C93   C     C_3   0.230627 0.336166 0.501067 -0.146953
C94   C     C_3   0.821700 0.755585 0.496792 -0.156736
C95   C     C_3   0.771129 0.334534 0.497107 -0.159334
C96   C     C_3   0.179715 0.754728 0.501533 -0.153558
H1    H     H_    0.561263 0.090030 0.152763 0.176560
H2    H     H_    0.248239 0.153871 0.516290 0.211004
H3    H     H_    0.199930 0.937802 0.521227 0.215562
H4    H     H_    0.754169 0.153400 0.477243 0.210614
H5    H     H_    0.301724 0.439907 0.479858 0.211371
H6    H     H_    0.748877 0.653179 0.516375 0.211036
H7    H     H_    0.699314 0.437572 0.522632 0.215584
H8    H     H_    0.253558 0.653332 0.477988 0.209523
H9    H     H_    0.276658 0.020721 0.805559 0.320812
H10   H     H_    0.736621 0.891049 0.171134 0.345457
H11   H     H_    0.725542 0.030965 0.188844 0.325534
H12   H     H_    0.486311 0.829883 0.743193 0.170312
H13   H     H_    0.265075 0.868213 0.816336 0.345688
H14   H     H_    0.776772 0.520448 0.805524 0.321159
H15   H     H_    0.236896 0.394583 0.167164 0.367785
H16   H     H_    0.267015 0.578099 0.064737 0.333228
H17   H     H_    0.765094 0.367909 0.816551 0.344779
H18   H     H_    0.432817 0.350853 0.323948 0.334227
H19   H     H_    0.622104 0.731024 0.673763 0.329464
H20   H     H_    0.568981 0.342445 0.677386 0.338574
H21   H     H_    0.379301 0.737580 0.321694 0.326484
H22   H     H_    0.932084 0.852002 0.325087 0.334713
H23   H     H_    0.438880 0.077088 0.848071 0.184586
H24   H     H_    0.122114 0.232456 0.673578 0.329861
H25   H     H_    0.069160 0.843409 0.676133 0.338588
H26   H     H_    0.879496 0.238300 0.320934 0.326791
H27   H     H_    0.492397 0.716324 0.638122 0.323278
H28   H     H_    0.664203 0.056356 0.978993 0.336939
H29   H     H_    0.628977 0.795937 0.039852 0.355480
H30   H     H_    0.295469 0.007348 0.023788 0.352709
H31   H     H_    0.991620 0.214922 0.642237 0.324306
H32   H     H_    0.164820 0.551936 0.977196 0.338472
H33   H     H_    0.130614 0.297601 0.037261 0.355419
H34   H     H_    0.523420 0.841794 0.228990 0.172650
H35   H     H_    0.795988 0.507026 0.023441 0.351998
H36   H     H_    0.062090 0.587598 0.151585 0.174330
H37   H     H_    0.986107 0.330681 0.744493 0.171418
H38   H     H_    0.938704 0.576707 0.848252 0.184487
H39   H     H_    0.023893 0.342272 0.227848 0.175581
H40   H     H_    0.800394 0.939650 0.481247 0.212582
I1    I     I_    0.563631 0.145818 0.754162 -0.209224
I2    I     I_    0.210595 0.940776 0.731786 -0.226496
I3    I     I_    0.233123 0.159403 0.752542 -0.154438
I4    I     I_    0.788767 0.946959 0.267503 -0.226053
I5    I     I_    0.268518 0.664523 0.247504 -0.183698
I6    I     I_    0.710566 0.440583 0.732180 -0.229815
I7    I     I_    0.733249 0.659331 0.752755 -0.155786
I8    I     I_    0.288035 0.448209 0.265754 -0.174823
I9    I     I_    0.288404 0.226407 0.278543 -0.137747
I10   I     I_    0.766914 0.874539 0.711955 -0.148695
I11   I     I_    0.722121 0.212160 0.708191 -0.128910
I12   I     I_    0.422228 0.931820 0.245275 -0.236265
I13   I     I_    0.232215 0.882719 0.290814 -0.133646
I14   I     I_    0.788807 0.725018 0.278971 -0.132632
I15   I     I_    0.267564 0.374421 0.711146 -0.144348
I16   I     I_    0.221388 0.712519 0.708780 -0.118168
I17   I     I_    0.731317 0.383314 0.292532 -0.132188
I18   I     I_    0.353949 0.537872 0.810030 -0.116295
I19   I     I_    0.755444 0.286688 0.046709 -0.249198
I20   I     I_    0.644945 0.644072 0.293583 -0.181560
I21   I     I_    0.313531 0.294679 0.924805 -0.197344
I22   I     I_    0.851912 0.038338 0.827291 -0.060403
I23   I     I_    0.437837 0.154355 0.244465 -0.212429
I24   I     I_    0.256068 0.782586 0.043947 -0.269441
I25   I     I_    0.144940 0.145273 0.292639 -0.188990
I26   I     I_    0.812078 0.794384 0.926398 -0.194343
I27   I     I_    0.577088 0.922093 0.756188 -0.215615
I28   I     I_    0.062963 0.646911 0.754412 -0.207155
I29   I     I_    0.921948 0.432837 0.245750 -0.237751
I30   I     I_    0.939796 0.656080 0.243476 -0.208488
I31   I     I_    0.077567 0.423440 0.755643 -0.214964
I32   I     I_    0.768774 0.164507 0.247704 -0.188835
N1    N     N_R   0.389620 0.081040 0.705440 -0.121257
N2    N     N_R   0.417680 0.920160 0.443370 -0.089980
N3    N     N_R   0.417680 0.079840 0.443370 -0.088016
N4    N     N_R   0.582320 0.920160 0.556630 -0.096824
N5    N     N_R   0.082320 0.579840 0.556630 -0.094086
N6    N     N_R   0.917680 0.420160 0.443370 -0.091171
N7    N     N_R   0.917680 0.579840 0.443370 -0.090058
N8    N     N_R   0.082320 0.420160 0.556630 -0.102627
N9    N     N_R   0.627920 0.078930 0.443400 -0.104373
N10   N     N_R   0.372080 0.921070 0.556600 -0.098554
N11   N     N_R   0.372080 0.078930 0.556600 -0.107686
N12   N     N_R   0.610380 0.918960 0.294560 -0.113436
N13   N     N_R   0.627920 0.921070 0.443400 -0.102591
N14   N     N_R   0.127920 0.578930 0.443400 -0.093433
N15   N     N_R   0.872080 0.421070 0.556600 -0.098600
N16   N     N_R   0.872080 0.578930 0.556600 -0.107968
N17   N     N_R   0.127920 0.421070 0.443400 -0.100071
N18   N     N_R   0.555090 0.077730 0.294590 -0.068142
N19   N     N_R   0.444910 0.922270 0.705410 -0.064280
N20   N     N_R   0.444910 0.077730 0.705410 -0.069441
N21   N     N_R   0.555090 0.922270 0.294590 -0.059678
N22   N     N_R   0.055090 0.577730 0.294590 -0.078082
N23   N     N_R   0.610380 0.081040 0.294560 -0.117230
N24   N     N_R   0.944910 0.422270 0.705410 -0.066227
N25   N     N_R   0.944910 0.577730 0.705410 -0.071081
N26   N     N_R   0.055090 0.422270 0.294590 -0.064723
N27   N     N_R   0.389620 0.918960 0.705440 -0.115616
N28   N     N_R   0.889620 0.581040 0.705440 -0.122183
N29   N     N_R   0.110380 0.418960 0.294560 -0.093872
N30   N     N_R   0.110380 0.581040 0.294560 -0.082424
N31   N     N_R   0.889620 0.418960 0.705440 -0.114682
N32   N     N_R   0.582320 0.079840 0.556630 -0.087686
Ni1   Ni    Ni4+2 0.382970 0.000000 0.629840 0.228646
Ni2   Ni    Ni4+2 0.617030 0.000000 0.370160 0.226625
Ni3   Ni    Ni4+2 0.882970 0.500000 0.629840 0.224958
Ni4   Ni    Ni4+2 0.117030 0.500000 0.370160 0.281453
Ni5   Ni    Ni4+2 0.514540 0.000000 0.629840 0.240996
Ni6   Ni    Ni4+2 0.485460 0.000000 0.370160 0.240146
Ni7   Ni    Ni4+2 0.014540 0.500000 0.629840 0.237998
Ni8   Ni    Ni4+2 0.985460 0.500000 0.370160 0.237129
O1    O     O_3   0.268787 0.056670 0.862048 -0.692171
O2    O     O_3   0.645783 0.758540 0.696234 -0.656348
O3    O     O_3   0.595765 0.323202 0.698877 -0.648667
O4    O     O_3   0.355288 0.766495 0.300522 -0.658633
O5    O     O_3   0.906050 0.833027 0.302261 -0.649856
O6    O     O_3   0.145964 0.259894 0.695795 -0.656025
O7    O     O_3   0.095729 0.824119 0.698004 -0.648143
O8    O     O_3   0.855273 0.267343 0.300243 -0.657075
O9    O     O_3   0.456020 0.675422 0.690805 -0.697814
O10   O     O_3   0.704024 0.094614 0.931605 -0.688723
O11   O     O_3   0.655215 0.749827 0.034488 -0.671709
O12   O     O_3   0.712117 0.838890 0.201142 -0.728462
O13   O     O_3   0.265108 0.053188 0.068033 -0.669515
O14   O     O_3   0.955071 0.174756 0.696814 -0.697386
O15   O     O_3   0.203974 0.590967 0.929322 -0.673140
O16   O     O_3   0.156811 0.251435 0.031911 -0.671399
O17   O     O_3   0.765371 0.552630 0.068015 -0.670762
O18   O     O_3   0.731876 0.070686 0.135605 -0.718262
O19   O     O_3   0.297236 0.823740 0.773340 -0.726562
O20   O     O_3   0.768836 0.556398 0.862063 -0.692911
O21   O     O_3   0.213694 0.341639 0.196699 -0.729934
O22   O     O_3   0.230256 0.563467 0.145518 -0.734305
O23   O     O_3   0.797279 0.323406 0.773838 -0.732649
O24   O     O_3   0.406586 0.332294 0.301304 -0.652855

loop_
_geom_bond_atom_site_label_1
_geom_bond_atom_site_label_2
_ccdc_geom_bond_type
C34   N27   A    
C9    O10   S    
C31   C66   A    
H10   O12   S    
C18   I19   S    
C3    I11   S    
N32   Ni5   S    
N25   Ni7   S    
C82   H3    S    
C33   I30   S    
C64   C90   S    
C67   N30   A    
C48   H34   S    
C11   O13   S    
C23   N23   A    
C72   C85   S    
H13   O19   S    
H30   O13   S    
H9    O1    S    
N8    N17   A    
C29   I23   S    
C32   C68   A    
C33   N7    A    
C89   I9    S    
C4    I13   S    
C77   O7    S    
C27   I1    S    
C49   C60   A    
C22   I24   S    
N2    N10   A    
N14   Ni4   S    
C35   N8    A    
C30   I27   S    
N8    Ni7   S    
N4    Ni5   S    
C52   C59   A    
N2    Ni6   S    
H20   O3    S    
N12   Ni2   S    
N12   N21   A    
H18   O24   S    
C51   H38   S    
C24   I22   S    
N26   N29   A    
C81   H2    S    
C43   N17   A    
H24   O6    S    
H11   O18   S    
C36   I32   S    
H16   O22   S    
N29   Ni4   S    
C44   H1    S    
N24   N31   A    
N18   N23   A    
C1    C53   A    
H31   O14   S    
C72   C88   S    
C4    C96   S    
C5    C88   S    
N4    N13   A    
C7    C87   S    
N13   Ni2   S    
C67   O22   S    
N9    N32   A    
C62   C92   S    
C8    C79   S    
C35   I31   S    
C71   O24   S    
C19   C22   S    
C8    C92   S    
N23   Ni2   S    
C46   N19   A    
C50   N24   A    
C75   C80   S    
C10   C19   D    
C4    C74   S    
C11   C53   S    
C33   C69   A    
C47   C53   A    
C5    C85   S    
C45   N28   A    
C47   H23   S    
H27   O9    S    
C29   C64   A    
C81   C89   S    
N16   Ni3   S    
C40   C66   A    
C32   I29   S    
N31   Ni3   S    
C84   H5    S    
C39   C65   A    
N3    N11   A    
C43   I8    S    
N7    Ni8   S    
H33   O16   S    
C2    C72   S    
C86   H7    S    
H32   O15   S    
C46   H12   S    
C6    I15   S    
C37   C63   A    
H17   O23   S    
C41   C68   A    
C38   C64   A    
N21   Ni6   S    
C45   C58   A    
C49   H36   S    
C72   O2    S    
N20   Ni5   S    
C28   I12   S    
C68   C95   S    
C6    C84   S    
N18   Ni6   S    
C1    O1    S    
C30   C65   A    
N11   Ni1   S    
C14   O15   S    
C2    C94   S    
C70   C93   S    
C52   N26   A    
C60   C67   A    
C69   C94   S    
C51   N25   A    
N30   Ni4   S    
C19   I18   S    
C49   N22   A    
C42   N16   A    
C78   O23   S    
C6    C90   S    
C32   N6    A    
C11   C20   D    
C75   O5    S    
C42   C69   A    
C13   O11   S    
C82   C91   S    
C87   H8    S    
C74   O4    S    
C36   C62   A    
C45   O20   S    
C74   C91   S    
C71   C84   S    
C48   C54   A    
C79   C95   S    
C31   I28   S    
C83   C92   S    
C27   C62   A    
C76   C93   S    
C34   C57   A    
C85   C94   S    
H35   O17   S    
C71   C89   S    
C61   C78   A    
C38   I3    S    
N25   N28   A    
C7    C91   S    
C87   C96   S    
C10   C57   S    
C15   C61   S    
C13   C21   D    
N5    Ni7   S    
C51   C58   A    
C16   C58   S    
C29   N3    A    
N3    Ni6   S    
C23   C55   A    
C8    I17   S    
C73   C92   S    
C37   N10   A    
C48   N21   A    
C39   N13   A    
C17   C59   S    
C9    C55   S    
C81   C90   S    
H29   O11   S    
N22   Ni8   S    
C79   O8    S    
C12   N12   A    
C5    C75   S    
C43   C70   A    
C83   H4    S    
C35   C70   A    
H28   O10   S    
C3    C83   S    
C74   C87   S    
N24   Ni7   S    
C18   C24   S    
C78   N31   A    
C17   C26   D    
C63   C91   S    
H25   O7    S    
C23   O18   S    
C14   C60   S    
N22   N30   A    
C65   C88   S    
C66   C96   S    
C13   C54   S    
C31   N5    A    
C28   N2    A    
C16   C25   D    
C52   H39   S    
C21   C25   S    
C39   I4    S    
C15   C24   D    
C38   N11   A    
C77   C96   S    
H19   O2    S    
N19   N27   A    
C56   N29   A    
C73   O3    S    
H21   O4    S    
C27   N32   A    
N1    N20   A    
C50   H37   S    
C76   C81   S    
N5    N14   A    
N19   Ni5   S    
C40   N14   A    
C6    C76   S    
N27   Ni1   S    
C2    I10   S    
N26   Ni8   S    
C36   N9    A    
C26   I25   S    
C80   H40   S    
C56   C59   A    
C7    C77   S    
C20   I21   S    
C30   N4    A    
N28   Ni3   S    
C14   C22   D    
C15   O14   S    
C34   O19   S    
N15   Ni3   S    
C16   O17   S    
C46   C57   A    
C17   O16   S    
H14   O20   S    
C79   C83   S    
C44   C55   A    
C71   C90   S    
C20   C26   S    
C77   C82   S    
H15   O21   S    
C1    N1    A    
C21   I20   S    
H26   O8    S    
C56   O21   S    
H22   O5    S    
C8    C86   S    
C84   C93   S    
C89   C93   S    
C3    C73   S    
C73   C86   S    
C25   I26   S    
C2    C80   S    
C86   C95   S    
C5    I14   S    
N1    Ni1   S    
C7    I16   S    
N6    Ni8   S    
C28   C63   A    
C76   O6    S    
C9    C18   D    
C41   I6    S    
C4    C82   S    
C75   C94   S    
C80   C88   S    
N10   Ni1   S    
N17   Ni4   S    
C42   I7    S    
C50   C61   A    
N9    Ni2   S    
C41   N15   A    
C3    C95   S    
C47   N20   A    
C40   I5    S    
N6    N15   A    
C12   O12   S    
C12   C54   A    
C85   H6    S    
C10   O9    S    
C44   N18   A    
N7    N16   A    
C37   I2    S    
