data_mof_unit_5196.cif
_audit_creation_date              2012-12-10T18:06:44-0500
_audit_creation_method            fapswitch 2.2
_symmetry_space_group_name_H-M    P1
_symmetry_Int_Tables_number       1
_space_group_crystal_system       triclinic
_cell_length_a                    12.601939
_cell_length_b                    13.28059
_cell_length_c                    15.344418
_cell_angle_alpha                 84.590964
_cell_angle_beta                  98.997146
_cell_angle_gamma                 95.441026
_cell_volume                      2516.78040547

loop_
_atom_site_label
_atom_site_type_symbol
_atom_type_description
_atom_site_fract_x
_atom_site_fract_y
_atom_site_fract_z
_atom_type_partial_charge
C1    C     C_R   0.442691 0.309070 0.506065 0.845887
C2    C     C_R   0.458882 0.595083 0.097439 0.091118
C3    C     C_R   0.349001 0.603501 0.061523 0.180314
C4    C     C_R   0.537566 0.597900 0.040369 0.068843
C5    C     C_R   0.502139 0.592033 0.948794 0.088780
C6    C     C_R   0.394494 0.611674 0.914325 -0.235756
C7    C     C_R   0.319427 0.618769 0.970285 -0.246880
C8    C     C_R   0.649446 0.600061 0.071807 -0.244860
C9    C     C_R   0.722170 0.581787 0.016890 -0.219931
C10   C     C_R   0.685120 0.558217 0.930219 0.116393
C11   C     C_R   0.574725 0.563185 0.895609 0.095612
C12   C     C_R   0.436778 0.518270 0.335720 0.841998
C13   C     C_R   0.756621 0.527498 0.878387 -0.322339
C14   C     C_R   0.719206 0.498485 0.792712 0.467729
C15   C     C_R   0.538434 0.532132 0.810937 -0.343203
C16   C     C_R   0.675040 0.945067 0.400389 -0.204108
C17   C     C_R   0.570360 0.799531 0.459443 -0.163733
C18   C     C_R   0.330781 0.163094 0.563443 -0.185647
C19   C     C_R   0.311917 0.059301 0.582095 -0.188544
C20   C     C_R   0.369542 0.992848 0.546968 -0.131473
C21   C     C_R   0.441106 0.029225 0.486282 0.104203
C22   C     C_R   0.455497 0.134044 0.463771 0.045091
C23   C     C_R   0.552246 0.691347 0.484648 0.872489
C24   C     C_R   0.506581 0.965518 0.453538 -0.041544
C25   C     C_R   0.595060 0.007209 0.412022 0.092657
C26   C     C_R   0.598072 0.108808 0.379959 -0.198475
C27   C     C_R   0.521985 0.169151 0.399860 -0.171660
C28   C     C_R   0.485345 0.861166 0.459068 0.384841
C29   C     C_R   0.665991 0.842144 0.429896 -0.272467
C30   C     C_R   0.406318 0.201152 0.507826 -0.115092
C31   C     C_R   0.137346 0.642298 0.624002 -0.317487
C32   C     C_R   0.762090 0.383798 0.391868 0.634620
C33   C     C_R   0.859291 0.345331 0.383683 -0.364230
C34   C     C_R   0.565698 0.490047 0.664554 0.887178
C35   C     C_R   0.954422 0.385339 0.429578 -0.268058
C36   C     C_R   0.953805 0.464180 0.484593 0.017147
C37   C     C_R   0.852986 0.491871 0.500026 0.102500
C38   C     C_R   0.049335 0.515845 0.524821 0.010465
C39   C     C_R   0.043391 0.590042 0.584317 0.160318
C40   C     C_R   0.943757 0.612196 0.602439 -0.246408
C41   C     C_R   0.849851 0.564420 0.560074 -0.099057
C42   C     C_R   0.151160 0.499319 0.505782 -0.082204
C43   C     C_R   0.235705 0.621654 0.603056 0.047849
C44   C     C_R   0.404628 0.550061 0.242192 -0.068601
C45   C     C_R   0.609194 0.503533 0.757906 -0.171736
C46   C     C_R   0.269508 0.591901 0.117099 -0.212337
C47   C     C_R   0.296960 0.563554 0.206969 -0.206113
C48   C     C_R   0.484800 0.572160 0.188607 -0.274264
H1    H     H_    0.236592 0.629705 0.941885 0.145145
H2    H     H_    0.841499 0.525259 0.904474 0.145479
H3    H     H_    0.730417 0.795368 0.425179 0.179241
H4    H     H_    0.657199 0.140580 0.338624 0.165741
H5    H     H_    0.745121 0.976432 0.371144 0.146018
H6    H     H_    0.291044 0.213636 0.596886 0.161016
H7    H     H_    0.360891 0.914161 0.571774 0.182805
H8    H     H_    0.257207 0.030518 0.628144 0.143632
H9    H     H_    0.516131 0.244042 0.367438 0.223884
H10   H     H_    0.309525 0.661087 0.633044 0.136527
H11   H     H_    0.453630 0.527750 0.785607 0.183718
H12   H     H_    0.938206 0.668230 0.648198 0.156098
H13   H     H_    0.134639 0.698785 0.670010 0.140831
H14   H     H_    0.163624 0.447159 0.459479 0.129655
H15   H     H_    0.026746 0.352935 0.420496 0.160841
H16   H     H_    0.861892 0.284708 0.341866 0.149504
H17   H     H_    0.775965 0.586110 0.575430 0.220525
H18   H     H_    0.807021 0.581491 0.043637 0.139794
H19   H     H_    0.185583 0.599634 0.090330 0.131286
H20   H     H_    0.234027 0.550565 0.248364 0.156648
H21   H     H_    0.566827 0.564605 0.218715 0.163526
H22   H     H_    0.366199 0.621702 0.844180 0.144356
H23   H     H_    0.683027 0.616348 0.138541 0.136633
N1    N     N_R   0.239390 0.551900 0.544730 -0.106828
N2    N     N_R   0.759950 0.448600 0.455730 -0.165592
O1    O     O_R   0.374950 0.371210 0.521360 -0.621048
O2    O     O_R   0.542050 0.338030 0.492790 -0.578869
O3    O     O_R   0.368720 0.526070 0.390200 -0.627941
O4    O     O_R   0.535820 0.492890 0.361630 -0.577028
O5    O     O_R   0.457950 0.661970 0.507210 -0.555626
O6    O     O_R   0.625050 0.628790 0.478640 -0.660594
O7    O     O_R   0.464180 0.507110 0.638370 -0.626293
O8    O     O_R   0.631280 0.473930 0.609800 -0.583882
Zn1   Zn    Zn3+2 0.388420 0.522150 0.519080 0.942148
Zn2   Zn    Zn3+2 0.611580 0.477850 0.480920 0.967605
O9    O     O_3   0.379469 0.820282 0.455839 -0.614589
C49   C     C_3   0.332713 0.816236 0.366205 0.137478
H24   H     H_    0.380677 0.772892 0.329644 0.135829
H25   H     H_    0.326149 0.894232 0.333177 0.131933
C50   C     C_3   0.220026 0.762814 0.361544 -0.802732
H26   H     H_    0.181338 0.761898 0.291415 0.194006
H27   H     H_    0.224510 0.683391 0.390714 0.269477
H28   H     H_    0.170135 0.803008 0.398484 0.250619
O10   O     O_3   0.666879 0.350406 0.341460 -0.614356
C51   C     C_3   0.674537 0.365935 0.249935 0.063823
H29   H     H_    0.735449 0.320256 0.231045 0.128040
H30   H     H_    0.695673 0.447435 0.231183 0.138708
C52   C     C_3   0.567018 0.332335 0.196248 -0.840026
H31   H     H_    0.499837 0.365030 0.219576 0.265127
H32   H     H_    0.567530 0.357467 0.125182 0.225814
H33   H     H_    0.553146 0.248343 0.203296 0.234419
O11   O     O_3   0.791225 0.471055 0.741632 -0.606619
C53   C     C_3   0.817732 0.371127 0.770174 0.104746
H34   H     H_    0.743926 0.318025 0.772536 0.130052
H35   H     H_    0.867836 0.368951 0.836740 0.130512
C54   C     C_3   0.882421 0.334225 0.705397 -0.785545
H36   H     H_    0.955719 0.386450 0.699770 0.258008
H37   H     H_    0.907189 0.257106 0.728984 0.195502
H38   H     H_    0.832463 0.330835 0.639219 0.260995

loop_
_geom_bond_atom_site_label_1
_geom_bond_atom_site_label_2
_ccdc_geom_bond_type
C19   H8    S    
C43   N1    A    
C40   H12   S    
C28   O9    S    
C17   C29   A    
C31   H13   S    
C35   C36   A    
C48   H21   S    
C4    C8    A    
C54   H37   S    
C49   H24   S    
C26   C27   A    
C51   H29   S    
C31   C43   A    
C5    C6    A    
C1    O1    A    
C1    C30   S    
C36   C37   A    
C5    C11   A    
C3    C7    A    
C38   C39   A    
O4    Zn2   S    
C52   H33   S    
C18   C19   A    
C16   H5    S    
O11   C53   S    
C43   H10   S    
C34   O7    A    
C9    H18   S    
C11   C15   A    
C19   C20   A    
C8    C9    A    
C52   H32   S    
C18   C30   A    
C34   O8    A    
C9    C10   A    
C42   H14   S    
C44   C47   A    
C53   H35   S    
C21   C22   A    
C12   O4    A    
O1    Zn1   S    
C20   H7    S    
C54   H36   S    
O8    Zn2   S    
C14   C45   A    
C49   H25   S    
C1    O2    A    
C53   H34   S    
O9    C49   S    
C7    H1    S    
O7    Zn1   S    
C27   H9    S    
O3    Zn1   S    
C32   N2    A    
C41   H17   S    
C2    C48   A    
C16   C29   A    
C2    C4    A    
C26   H4    S    
O5    Zn1   S    
C50   H28   S    
C52   H31   S    
C20   C21   A    
C42   N1    A    
C34   C45   S    
C17   C23   S    
C24   C25   A    
C40   C41   A    
C50   H27   S    
C51   C52   S    
C22   C27   A    
C12   O3    A    
C15   C45   A    
C47   H20   S    
C39   C40   A    
C29   H3    S    
C49   C50   S    
C16   C25   A    
C6    H22   S    
C37   N2    A    
C46   C47   A    
C8    H23   S    
C22   C30   A    
C17   C28   A    
C15   H11   S    
C24   C28   A    
C4    C5    A    
C10   C13   A    
C14   O11   S    
C6    C7    A    
C53   C54   S    
C3    C46   A    
C32   C33   A    
C36   C38   A    
C2    C3    A    
C25   C26   A    
C46   H19   S    
C12   C44   S    
O6    Zn2   S    
O2    Zn2   S    
C32   O10   S    
C33   H16   S    
O10   C51   S    
C33   C35   A    
C31   C39   A    
C23   O5    A    
C37   C41   A    
C10   C11   A    
C18   H6    S    
C13   H2    S    
C38   C42   A    
C50   H26   S    
C51   H30   S    
C21   C24   A    
C35   H15   S    
C23   O6    A    
C13   C14   A    
N2    Zn2   S    
C54   H38   S    
N1    Zn1   S    
C44   C48   A    
