data_mof_unit_22908.cif
_audit_creation_date              2013-03-05T15:56:35-0500
_audit_creation_method            fapswitch 2.2
_symmetry_space_group_name_H-M    P1
_symmetry_Int_Tables_number       1
_space_group_crystal_system       triclinic
_cell_length_a                    6.997362
_cell_length_b                    14.81133
_cell_length_c                    16.004648
_cell_angle_alpha                 90.371674
_cell_angle_beta                  89.021393
_cell_angle_gamma                 89.644945
_cell_volume                      1658.41568685

loop_
_atom_site_label
_atom_site_type_symbol
_atom_site_description
_atom_site_fract_x
_atom_site_fract_y
_atom_site_fract_z
_atom_type_partial_charge
O1    O     O_R   0.361600 0.167310 0.164620 -0.567395
O2    O     O_R   0.638400 0.832690 0.835380 -0.573001
O3    O     O_R   0.691080 0.157570 0.338750 -0.573386
O4    O     O_R   0.308920 0.842430 0.661250 -0.578001
O5    O     O_R   0.861410 0.336420 0.339360 -0.580251
O6    O     O_R   0.138590 0.663580 0.660640 -0.578274
C1    C     C_R   0.521211 0.134272 0.366391 1.036614
C2    C     C_R   0.478159 0.865031 0.632995 1.059751
O7    O     O_R   0.691320 0.156280 0.165240 -0.558717
O8    O     O_R   0.308680 0.843720 0.834760 -0.583163
O9    O     O_R   0.861640 0.335130 0.164600 -0.596925
O10   O     O_R   0.138360 0.664870 0.835400 -0.597870
C3    C     C_R   0.522652 0.133261 0.136262 0.987117
C4    C     C_R   0.476569 0.864954 0.864212 1.088687
O11   O     O_R   0.361370 0.168600 0.339370 -0.589625
O12   O     O_R   0.638630 0.831400 0.660630 -0.589363
O13   O     O_3   0.527990 0.310540 0.251980 -0.268682
O14   O     O_3   0.472010 0.689460 0.748020 -0.279031
V1    V     V_3+5 0.802830 0.240980 0.251990 1.294812
V2    V     V_3+5 0.197170 0.759020 0.748010 1.282128
O15   O     O_R   0.191360 0.346160 0.165220 -0.573568
O16   O     O_R   0.808640 0.653840 0.834780 -0.560052
C5    C     C_R   0.023484 0.368769 0.136538 1.054303
C6    C     C_R   0.977277 0.631154 0.863111 1.060419
O17   O     O_R   0.191130 0.347440 0.338740 -0.596244
O18   O     O_R   0.808870 0.652560 0.661260 -0.607452
C7    C     C_R   0.020176 0.367732 0.368282 1.082140
C8    C     C_R   0.979751 0.632169 0.631832 1.070492
V3    V     V_3+5 0.302840 0.262750 0.251990 1.277335
V4    V     V_3+5 0.697160 0.737250 0.748010 1.271631
O19   O     O_3   0.027820 0.193180 0.251990 -0.244845
O20   O     O_3   0.972180 0.806820 0.748010 -0.273173
C9    C     C_3   0.919286 0.424882 0.529665 0.175601
C10   C     C_3   0.080632 0.574657 0.470748 0.162532
C11   C     C_3   0.094799 0.471281 0.566939 0.108694
C12   C     C_3   0.904655 0.528268 0.433581 0.100336
C13   C     C_3   0.995762 0.564620 0.561116 -0.563793
C14   C     C_3   0.003816 0.434963 0.439321 -0.560830
C15   C     C_3   0.819902 0.517872 0.522994 0.430323
C16   C     C_3   0.179662 0.481518 0.477555 0.440873
C17   C     C_R   0.824096 0.519717 0.965021 0.695039
C18   C     C_R   0.182096 0.471087 0.026406 0.685332
C19   C     C_R   0.838535 0.465347 0.036575 -0.271958
C20   C     C_R   0.166262 0.537201 0.963971 -0.269279
H1    H     H_    0.710177 0.443132 0.067641 0.229817
H2    H     H_    0.295491 0.566247 0.938350 0.231858
C21   C     C_R   0.015951 0.436679 0.066686 -0.394319
C22   C     C_R   0.988262 0.562206 0.931499 -0.389657
C23   C     C_R   0.669411 0.009565 0.452935 0.428109
C24   C     C_R   0.325251 0.984596 0.542117 0.434835
C25   C     C_R   0.659517 0.947883 0.519349 0.418966
C26   C     C_R   0.335730 0.047358 0.476569 0.433591
C27   C     C_R   0.488025 0.934149 0.564847 -0.551358
C28   C     C_R   0.508961 0.063023 0.432646 -0.564332
C29   C     C_R   0.632459 0.986215 0.064004 0.294250
C30   C     C_R   0.363360 0.006992 0.937384 0.319867
C31   C     C_R   0.620179 0.921326 0.998842 0.301375
C32   C     C_R   0.370116 0.071026 0.003077 0.284106
C33   C     C_R   0.485901 0.931679 0.934780 -0.531917
C34   C     C_R   0.509819 0.063292 0.066852 -0.507778
N1    N     N_R   0.199812 0.440051 0.639434 0.241983
O21   O     O_R   0.169322 0.360203 0.669968 -0.358525
O22   O     O_R   0.332250 0.490192 0.671242 -0.372316
N2    N     N_R   0.799464 0.559600 0.361188 0.251830
O23   O     O_R   0.828929 0.639768 0.331169 -0.330653
O24   O     O_R   0.667056 0.509465 0.329320 -0.318092
N3    N     N_R   0.827510 0.346698 0.567433 0.244631
O25   O     O_R   0.767707 0.351009 0.644768 -0.326993
O26   O     O_R   0.783264 0.277193 0.522035 -0.510546
N4    N     N_R   0.172799 0.652683 0.432690 0.239715
O27   O     O_R   0.232206 0.647967 0.355325 -0.283289
O28   O     O_R   0.217277 0.722528 0.477667 -0.502996
O29   O     O_3   0.631960 0.533409 0.552014 -0.592869
C35   C     C_3   0.566006 0.617343 0.523473 0.204121
H3    H     H_    0.521428 0.612270 0.457858 0.190348
H4    H     H_    0.672912 0.671139 0.527031 -0.005005
H5    H     H_    0.443461 0.638172 0.563715 0.168800
O30   O     O_3   0.367428 0.463895 0.449283 -0.590969
C36   C     C_3   0.428126 0.379034 0.478069 0.211444
H6    H     H_    0.545768 0.355063 0.436429 0.163938
H7    H     H_    0.315918 0.327162 0.477324 -0.013135
H8    H     H_    0.478161 0.384452 0.542853 0.194461
O31   O     O_3   0.647996 0.529982 0.928654 -0.614998
C37   C     C_3   0.640145 0.470995 0.858817 -0.073324
H9    H     H_    0.672958 0.399918 0.875807 0.116063
H10   H     H_    0.739500 0.491647 0.807664 0.148110
H11   H     H_    0.493544 0.473053 0.833644 0.190719
O32   O     O_3   0.362327 0.440273 0.045612 -0.606228
C38   C     C_3   0.394576 0.358517 0.001577 -0.105587
H12   H     H_    0.352432 0.362251 0.934845 0.148389
H13   H     H_    0.318556 0.303477 0.033035 0.174258
H14   H     H_    0.547389 0.339436 0.002917 0.128309
O33   O     O_3   0.841495 0.018085 0.410454 -0.564373
C39   C     C_3   0.833357 0.970206 0.334193 0.123084
H15   H     H_    0.980383 0.963831 0.307704 0.181819
H16   H     H_    0.745288 0.006990 0.288897 0.125054
H17   H     H_    0.774139 0.901184 0.341005 0.082286
O34   O     O_3   0.148147 0.966931 0.577200 -0.555745
C40   C     C_3   0.115773 0.020101 0.649626 0.094775
H18   H     H_    0.130198 0.977364 0.705565 0.187706
H19   H     H_    0.965368 0.044313 0.650075 0.141930
H20   H     H_    0.210091 0.080225 0.654702 0.093105
O35   O     O_3   0.822823 0.902979 0.542092 -0.561142
C41   C     C_3   0.854589 0.827732 0.489603 0.131280
H21   H     H_    0.970086 0.843239 0.443799 0.182579
H22   H     H_    0.725528 0.803369 0.456399 0.035976
H23   H     H_    0.905760 0.772400 0.529167 0.130161
O36   O     O_3   0.169974 0.088648 0.451369 -0.553110
C42   C     C_3   0.131682 0.165112 0.501649 0.104146
H24   H     H_    0.254463 0.189487 0.539137 0.038591
H25   H     H_    0.009390 0.150673 0.543979 0.172495
H26   H     H_    0.087803 0.220101 0.459951 0.132956
N5    N     N_R   0.755169 0.966343 0.132051 0.223539
O37   O     O_R   0.732093 0.890535 0.171539 -0.377855
O38   O     O_R   0.917528 0.007851 0.137755 -0.334748
N6    N     N_R   0.242580 0.023947 0.868250 0.248188
O39   O     O_R   0.310695 0.070639 0.806168 -0.422652
O40   O     O_R   0.059174 0.011413 0.875522 -0.344180
N7    N     N_R   0.742679 0.843069 0.999730 0.270234
O41   O     O_R   0.927057 0.852175 0.004322 -0.314046
O42   O     O_R   0.669428 0.762520 0.000227 -0.353120
N8    N     N_R   0.234772 0.144366 0.002071 0.222985
O43   O     O_R   0.217261 0.191738 0.934387 -0.383978
O44   O     O_R   0.094459 0.146090 0.056312 -0.336229

loop_
_geom_bond_atom_site_label_1
_geom_bond_atom_site_label_2
_geom_bond_distance
_ccdc_geom_bond_type
V4    O20   2.188542 S    
O33   C39   1.409777 S    
C10   C13   1.562409 S    
O13   V3    1.731156 S    
O29   C35   1.405196 S    
C37   H11   1.108796 S    
O4    C2    1.306725 A    
V1    O19   1.722196 S    
C41   H22   1.116303 S    
C3    C34   1.518472 S    
O36   C42   1.406780 S    
C4    C33   1.498461 S    
O9    V1    2.020619 S    
C9    C15   1.544195 S    
C35   H4    1.098168 S    
C10   C16   1.545241 S    
O16   C6    1.313878 A    
C11   C13   1.546673 S    
C37   H10   1.110665 S    
O3    C1    1.310240 A    
C42   H25   1.105133 S    
C31   C33   1.410927 A    
C7    C14   1.508912 S    
C25   O35   1.374244 S    
C23   C28   1.413388 A    
C17   O31   1.379722 S    
N6    O39   1.299804 A    
O9    C5    1.313386 A    
N1    O22   1.299712 A    
O7    C3    1.321326 A    
C9    C11   1.538376 S    
O5    C7    1.297961 A    
O7    V1    2.033926 S    
O6    C8    1.298264 A    
O31   C37   1.416211 S    
C20   H2    1.079514 S    
C23   C25   1.407164 A    
C35   H5    1.104797 S    
C24   C26   1.407451 A    
O3    V1    2.015677 S    
N4    O27   1.300678 A    
O14   V4    1.731157 S    
C38   H13   1.096619 S    
C10   N4    1.458587 S    
C10   C12   1.540255 S    
C31   N7    1.437625 S    
C1    O11   1.307224 A    
C2    O12   1.310526 A    
C29   C34   1.423945 A    
C17   C19   1.408919 A    
N1    O21   1.300033 A    
C18   C20   1.408836 A    
C41   H21   1.107953 S    
C26   C28   1.412033 A    
O11   V3    2.026298 S    
N7    O42   1.301413 A    
O17   V3    2.010052 S    
C32   N8    1.437050 S    
C24   C27   1.412469 A    
C24   O34   1.379005 S    
C35   H3    1.102809 S    
N3    O25   1.300794 A    
C6    C22   1.504380 S    
C5    C21   1.510059 S    
C37   H9    1.112557 S    
O8    C4    1.312547 A    
C42   H26   1.101796 S    
O8    V2    2.033925 S    
C36   H7    1.102077 S    
O30   C36   1.407140 S    
C29   N5    1.429316 S    
C39   H17   1.110784 S    
O15   V3    2.027464 S    
C25   C27   1.409505 A    
N2    O24   1.299891 A    
C40   H18   1.105460 S    
O10   V2    2.020621 S    
O1    V3    2.017455 S    
C30   N6    1.426358 S    
C11   N1    1.460133 S    
C38   H14   1.104912 S    
C39   H16   1.103795 S    
C19   H1    1.073646 S    
N6    O40   1.301210 A    
C40   H19   1.109647 S    
O18   V4    2.010051 S    
C29   C31   1.417678 A    
C16   O30   1.404644 S    
O1    C3    1.304926 A    
O12   V4    2.026296 S    
N8    O44   1.299436 A    
C9    N3    1.457339 S    
N5    O37   1.301594 A    
V2    O20   1.722196 S    
O16   V4    2.027467 S    
C12   C15   1.548632 S    
C2    C27   1.501725 S    
C36   H8    1.102599 S    
N7    O41   1.301292 A    
O5    V1    2.030443 S    
O17   C7    1.311191 A    
O6    V2    2.030443 S    
O10   C6    1.307412 A    
O18   C8    1.310425 A    
C9    C14   1.561252 S    
C30   C33   1.402724 A    
O2    V4    2.017458 S    
C23   O33   1.379553 S    
N2    O23   1.300118 A    
O15   C5    1.310840 A    
C11   C16   1.548231 S    
C38   H12   1.114469 S    
C13   C15   1.548120 S    
C42   H24   1.116735 S    
C14   C16   1.547479 S    
C19   C21   1.403665 A    
C8    C13   1.507992 S    
C12   C14   1.546513 S    
O13   V1    2.176108 S    
C17   C22   1.412715 A    
C30   C32   1.412972 A    
O14   V2    2.176110 S    
C18   C21   1.418767 A    
C15   O29   1.404343 S    
C39   H15   1.109252 S    
O2    C4    1.302375 A    
C36   H6    1.105616 S    
O4    V2    2.015674 S    
C40   H20   1.115065 S    
C18   O32   1.378836 S    
O32   C38   1.412106 S    
C26   O36   1.375622 S    
V3    O19   2.188545 S    
O34   C40   1.411415 S    
O35   C41   1.405574 S    
N4    O28   1.298921 A    
C1    C28   1.502641 S    
N3    O26   1.298263 A    
N8    O43   1.301568 A    
C12   N2    1.459936 S    
C32   C34   1.429953 A    
C41   H23   1.100748 S    
C20   C22   1.406242 A    
N5    O38   1.299409 A    
