data_mof_unit_40502.cif
_audit_creation_date              2012-12-11T14:00:05-0500
_audit_creation_method            fapswitch 2.2
_symmetry_space_group_name_H-M    P1
_symmetry_Int_Tables_number       1
_space_group_crystal_system       triclinic
_cell_length_a                    11.320913
_cell_length_b                    11.316813
_cell_length_c                    18.689847
_cell_angle_alpha                 89.785553
_cell_angle_beta                  89.62051
_cell_angle_gamma                 119.649563
_cell_volume                      2080.85140537

loop_
_atom_site_label
_atom_site_type_symbol
_atom_type_description
_atom_site_fract_x
_atom_site_fract_y
_atom_site_fract_z
_atom_type_partial_charge
C1    C     C_R   0.542880 0.478346 0.852912 0.544095
C2    C     C_R   0.455427 0.571746 0.360527 0.516139
C3    C     C_R   0.126996 0.547089 0.360440 0.544564
C4    C     C_R   0.461111 0.945048 0.346550 0.512178
C5    C     C_2   0.886404 0.436220 0.564155 0.274904
C6    C     C_2   0.465691 0.512901 0.598428 0.299125
C7    C     C_2   0.528615 0.041519 0.571050 0.259396
C8    C     C_2   0.517449 0.035394 0.407058 0.282164
C9    C     C_2   0.468445 0.532926 0.433397 0.287758
C10   C     C_2   0.086731 0.534372 0.435916 0.272348
C11   C     C_2   0.012735 0.407982 0.463381 -0.118379
C12   C     C_R   0.521131 0.064121 0.852894 0.563443
C13   C     C_2   0.494550 0.627713 0.482486 -0.130829
C14   C     C_2   0.423328 0.020500 0.455773 -0.139422
C15   C     C_2   0.446682 0.063529 0.528759 -0.107200
C16   C     C_2   0.538739 0.616370 0.553891 -0.141986
C17   C     C_2   0.941289 0.369805 0.531030 -0.094320
C18   C     C_2   0.002953 0.500280 0.921314 -0.114481
C19   C     C_2   0.497659 0.500597 0.921794 -0.111877
C20   C     C_2   0.497810 0.996114 0.921731 -0.113362
C21   C     C_2   0.502016 0.003446 0.078154 -0.112798
C22   C     C_2   0.503192 0.499555 0.078375 -0.114106
C23   C     C_R   0.935206 0.456384 0.852888 0.556446
C24   C     C_2   0.998346 0.499764 0.078287 -0.112863
C25   C     C_2   0.019722 0.606197 0.037179 -0.165033
C26   C     C_2   0.397736 0.410603 0.039184 -0.166711
C27   C     C_2   0.587812 0.982044 0.037602 -0.164534
C28   C     C_2   0.603943 0.014352 0.961339 -0.165080
C29   C     C_2   0.413873 0.393956 0.963011 -0.165268
C30   C     C_2   0.985840 0.589158 0.961243 -0.163140
C31   C     C_3   0.223024 0.674733 0.525685 -0.013997
C32   C     C_3   0.171034 0.676060 0.601361 -0.234444
C33   C     C_3   0.281331 0.753593 0.655610 -0.491287
C34   C     C_R   0.479070 0.543616 0.147101 0.565095
C35   C     C_3   0.446332 0.321578 0.398226 0.019778
C36   C     C_3   0.298525 0.214435 0.382420 -0.231568
C37   C     C_3   0.284457 0.157894 0.306923 -0.444511
C38   C     C_3   0.741970 0.140702 0.358139 0.032008
C39   C     C_3   0.789514 0.033298 0.357409 -0.211875
C40   C     C_3   0.939327 0.088840 0.373276 -0.487210
C41   C     C_3   0.672297 0.946487 0.572412 0.018484
C42   C     C_3   0.818406 0.015092 0.599466 -0.272466
C43   C     C_3   0.853441 0.915277 0.635554 -0.478830
C44   C     C_3   0.242898 0.412159 0.640063 -0.017917
C45   C     C_R   0.064972 0.521906 0.147027 0.566128
C46   C     C_3   0.219776 0.307733 0.699521 -0.270905
C47   C     C_3   0.093521 0.267505 0.744162 -0.452194
C48   C     C_3   0.767550 0.490503 0.484365 0.018940
C49   C     C_3   0.805672 0.578725 0.416596 -0.216972
C50   C     C_3   0.863259 0.729481 0.432143 -0.357627
C51   C     C_R   0.457126 0.935914 0.147107 0.550764
C52   C     C_R   0.538148 0.482691 0.653002 0.541504
C53   C     C_R   0.527034 0.074315 0.645586 0.528421
C54   C     C_R   0.863732 0.415724 0.641276 0.568786
Cr1   Cr    Cr6+3 0.464030 0.233680 0.750360 0.983516
Cr2   Cr    Cr6+3 0.766320 0.230350 0.750360 0.965616
Cr3   Cr    Cr6+3 0.769650 0.535970 0.750360 1.005597
Cr4   Cr    Cr6+3 0.233680 0.464030 0.249640 0.967567
Cr5   Cr    Cr6+3 0.230350 0.766320 0.249640 1.001548
Cr6   Cr    Cr6+3 0.535970 0.769650 0.249640 0.971583
H1    H     H_    0.007538 0.323002 0.435641 0.112542
H2    H     H_    0.705621 0.058003 0.938515 0.155061
H3    H     H_    0.359128 0.291754 0.941541 0.154209
H4    H     H_    0.942488 0.647866 0.938884 0.154671
H5    H     H_    0.948310 0.397316 0.056893 0.107964
H6    H     H_    0.604982 0.554591 0.055395 0.109328
H7    H     H_    0.449138 0.053274 0.056099 0.107736
H8    H     H_    0.395753 0.948370 0.944478 0.107568
H9    H     H_    0.549018 0.602982 0.943267 0.109066
H10   H     H_    0.050422 0.445202 0.943500 0.106708
H11   H     H_    0.312927 0.774334 0.513505 0.140379
H12   H     H_    0.505133 0.724746 0.466190 0.053003
H13   H     H_    0.258392 0.598827 0.524506 0.133569
H14   H     H_    0.100279 0.717644 0.600551 0.227380
H15   H     H_    0.117455 0.571025 0.621089 0.166207
H16   H     H_    0.377071 0.755161 0.641182 0.122040
H17   H     H_    0.247813 0.706361 0.709526 0.148433
H18   H     H_    0.295576 0.856364 0.659153 0.178813
H19   H     H_    0.501353 0.269331 0.416050 0.142074
H20   H     H_    0.503465 0.377289 0.349338 0.133383
H21   H     H_    0.262214 0.130747 0.422315 0.140807
H22   H     H_    0.231000 0.258947 0.388267 0.196397
H23   H     H_    0.315265 0.959674 0.444974 0.123923
H24   H     H_    0.367133 0.135100 0.294990 0.161631
H25   H     H_    0.290019 0.233201 0.266877 0.169048
H26   H     H_    0.185109 0.063353 0.301620 0.135643
H27   H     H_    0.830474 0.244393 0.360205 0.160142
H28   H     H_    0.693521 0.141262 0.306569 0.093742
H29   H     H_    0.729515 0.950164 0.396492 0.200947
H30   H     H_    0.771956 0.987992 0.303153 0.148305
H31   H     H_    0.003103 0.179695 0.339755 0.172493
H32   H     H_    0.968325 0.011381 0.359834 0.119157
H33   H     H_    0.958895 0.110951 0.431000 0.149019
H34   H     H_    0.369641 0.083933 0.551046 0.126386
H35   H     H_    0.669091 0.881660 0.528122 0.137710
H36   H     H_    0.600180 0.882664 0.615347 0.104685
H37   H     H_    0.889916 0.063919 0.553922 0.151678
H38   H     H_    0.832693 0.093759 0.638341 0.205054
H39   H     H_    0.777332 0.855551 0.677802 0.165987
H40   H     H_    0.954892 0.972337 0.660705 0.132836
H41   H     H_    0.858523 0.845879 0.595434 0.164558
H42   H     H_    0.143765 0.381314 0.615297 0.167189
H43   H     H_    0.278075 0.513072 0.664786 0.100330
H44   H     H_    0.215425 0.215054 0.676731 0.192070
H45   H     H_    0.644041 0.685531 0.565484 0.086998
H46   H     H_    0.302136 0.356512 0.738918 0.185979
H47   H     H_    0.093305 0.361257 0.760463 0.199815
H48   H     H_    0.094787 0.211739 0.792943 0.125491
H49   H     H_    0.001866 0.199553 0.713799 0.168396
H50   H     H_    0.681861 0.492150 0.512068 0.178152
H51   H     H_    0.731259 0.383697 0.467113 0.138413
H52   H     H_    0.880647 0.564927 0.384851 0.184584
H53   H     H_    0.715033 0.544217 0.382685 0.125997
H54   H     H_    0.787675 0.746844 0.461212 0.127423
H55   H     H_    0.887896 0.785488 0.380530 0.123316
H56   H     H_    0.937737 0.281742 0.555539 0.110094
H57   H     H_    0.957709 0.769892 0.463945 0.213394
H58   H     H_    0.066168 0.708435 0.058631 0.154075
H59   H     H_    0.296482 0.351747 0.062303 0.153910
H60   H     H_    0.644127 0.935908 0.059669 0.154778
O1    O     O_R   0.434100 0.092480 0.829780 -0.516493
O2    O     O_R   0.362730 0.477510 0.175360 -0.500511
O3    O     O_R   0.114780 0.637270 0.175360 -0.492529
O4    O     O_R   0.522490 0.885220 0.175360 -0.503002
O5    O     O_R   0.432250 0.092620 0.670380 -0.557720
O6    O     O_R   0.907380 0.339630 0.670380 -0.604393
O7    O     O_R   0.660370 0.567750 0.670380 -0.553879
O8    O     O_R   0.092620 0.432250 0.329620 -0.584503
O9    O     O_R   0.339630 0.907380 0.329620 -0.551253
O10   O     O_R   0.567750 0.660370 0.329620 -0.546716
O11   O     O_R   0.475790 0.362860 0.676880 -0.498741
O12   O     O_R   0.907520 0.341620 0.829780 -0.534826
O13   O     O_R   0.637140 0.112930 0.676880 -0.512408
O14   O     O_R   0.887070 0.524210 0.676880 -0.485239
O15   O     O_R   0.362860 0.475790 0.323120 -0.528383
O16   O     O_R   0.112930 0.637140 0.323120 -0.482613
O17   O     O_R   0.524210 0.887070 0.323120 -0.536257
O18   O     O_3   0.666667 0.333333 0.749450 -0.266130
O19   O     O_3   0.333333 0.666667 0.250550 -0.270686
O20   O     O_3   0.120769 0.651011 0.474938 -0.545500
O21   O     O_3   0.450624 0.406192 0.454769 -0.561076
O22   O     O_3   0.656838 0.123664 0.418091 -0.545620
O23   O     O_R   0.658380 0.565900 0.829780 -0.520241
O24   O     O_3   0.643287 0.043471 0.541894 -0.522838
O25   O     O_3   0.330993 0.417096 0.583972 -0.535732
O26   O     O_3   0.878809 0.542243 0.531532 -0.540810
O27   O     O_R   0.092480 0.434100 0.170220 -0.517383
O28   O     O_R   0.341620 0.907520 0.170220 -0.522839
O29   O     O_R   0.565900 0.658380 0.170220 -0.512561
O30   O     O_R   0.477510 0.362730 0.824640 -0.517338
O31   O     O_R   0.637270 0.114780 0.824640 -0.496403
O32   O     O_R   0.885220 0.522490 0.824640 -0.490764

loop_
_geom_bond_atom_site_label_1
_geom_bond_atom_site_label_2
_ccdc_geom_bond_type
Cr4   O19   S    
C18   H10   S    
C49   H53   S    
C23   O32   A    
C29   H3    S    
Cr4   O8    S    
C30   H4    S    
C50   H57   S    
C41   C42   S    
Cr5   O16   S    
C48   H50   S    
C35   C36   S    
C40   H33   S    
C4    C8    S    
C25   H58   S    
C15   H34   S    
Cr1   O1    S    
Cr2   O13   S    
C27   H60   S    
C45   O3    A    
C54   O6    A    
Cr1   O18   S    
C43   H40   S    
C24   C45   S    
C37   H25   S    
C36   C37   S    
C43   H39   S    
C50   H55   S    
C42   H38   S    
C32   H14   S    
C38   C39   S    
C33   H18   S    
C31   H13   S    
C41   H36   S    
C5    C17   D    
C54   O14   A    
Cr3   O32   S    
C35   H20   S    
C3    O16   A    
C35   H19   S    
Cr6   O4    S    
C9    C13   D    
C22   H6    S    
C4    O17   A    
C52   O7    A    
Cr5   O9    S    
C12   O1    A    
Cr1   O5    S    
C36   H22   S    
C48   O26   S    
Cr3   O18   S    
C37   H24   S    
C18   C30   D    
Cr2   O6    S    
C39   H30   S    
Cr6   O17   S    
Cr5   O28   S    
C7    C15   D    
C21   C27   D    
C34   O2    A    
C45   O27   A    
C21   H7    S    
C51   O4    A    
C38   O22   S    
C12   O31   A    
C10   O20   S    
C14   H23   S    
C32   H15   S    
C7    O24   S    
C34   O29   A    
C44   C46   S    
Cr5   O3    S    
C22   C34   S    
Cr4   O2    S    
C1    C19   S    
Cr3   O23   S    
C18   C23   S    
C37   H26   S    
C53   O13   A    
C24   C25   D    
C41   O24   S    
C42   H37   S    
Cr6   O10   S    
C39   C40   S    
C6    O25   S    
C44   H42   S    
C3    O8    A    
C20   C28   D    
C47   H49   S    
C46   H44   S    
C40   H32   S    
C38   H28   S    
C50   H54   S    
C43   H41   S    
C1    O23   A    
Cr2   O18   S    
C5    C54   S    
C33   H16   S    
C31   C32   S    
Cr5   O19   S    
C36   H21   S    
C12   C20   S    
C44   O25   S    
C1    O30   A    
C26   H59   S    
Cr2   O31   S    
Cr2   O12   S    
C53   O5    A    
C16   H45   S    
C35   O21   S    
C49   H52   S    
C24   H5    S    
C48   C49   S    
C49   C50   S    
Cr1   O11   S    
Cr3   O14   S    
C19   H9    S    
C42   C43   S    
C7    C53   S    
C19   C29   D    
C21   C51   S    
Cr1   O30   S    
C25   C30   S    
C46   C47   S    
C11   C17   S    
C8    C14   D    
C5    O26   S    
Cr4   O27   S    
C52   O11   A    
C20   H8    S    
C11   H1    S    
Cr3   O7    S    
C4    O9    A    
C13   H12   S    
Cr4   O15   S    
C47   H47   S    
C2    O15   A    
C38   H27   S    
C32   C33   S    
C44   H43   S    
C3    C10   S    
C33   H17   S    
C41   H35   S    
C51   O28   A    
C46   H46   S    
C31   H11   S    
C2    O10   A    
C23   O12   A    
Cr6   O29   S    
C40   H31   S    
C9    O21   S    
C10   C11   D    
Cr6   O19   S    
C6    C16   D    
C48   H51   S    
C26   C29   S    
C47   H48   S    
C22   C26   D    
C13   C16   S    
C27   C28   S    
C14   C15   S    
C8    O22   S    
C6    C52   S    
C31   O20   S    
C2    C9    S    
C39   H29   S    
C17   H56   S    
C28   H2    S    
