data_mof_unit_24667.cif
_audit_creation_date              2012-12-10T17:49:43-0500
_audit_creation_method            fapswitch 2.2
_symmetry_space_group_name_H-M    P1
_symmetry_Int_Tables_number       1
_space_group_crystal_system       triclinic
_cell_length_a                    10.519123
_cell_length_b                    10.630977
_cell_length_c                    9.94388
_cell_angle_alpha                 89.841166
_cell_angle_beta                  90.125807
_cell_angle_gamma                 91.487058
_cell_volume                      1111.62843691

loop_
_atom_site_label
_atom_site_type_symbol
_atom_type_description
_atom_site_fract_x
_atom_site_fract_y
_atom_site_fract_z
_atom_type_partial_charge
C1    C     C_R   0.504214 0.260808 0.500250 0.866533
C2    C     C_R   0.611366 0.068286 0.570986 0.086124
C3    C     C_R   0.513470 0.128619 0.500282 -0.064413
C4    C     C_R   0.257741 0.500690 0.499597 0.948089
C5    C     C_R   0.421844 0.062419 0.426000 -0.156093
C6    C     C_R   0.421786 0.933991 0.425696 -0.187914
C7    C     C_R   0.513893 0.871870 0.498930 -0.060833
C8    C     C_R   0.335924 0.333457 0.140226 -0.084089
C9    C     C_R   0.257793 0.248592 0.070693 -0.147680
C10   C     C_R   0.259007 0.247115 0.931601 -0.165637
C11   C     C_R   0.337000 0.331766 0.860946 -0.129064
C12   C     C_3   0.959628 0.610641 0.448790 -0.306203
C13   C     C_R   0.419476 0.417467 0.928005 0.159658
C14   C     C_R   0.419265 0.417835 0.072403 0.169212
C15   C     C_R   0.577328 0.578645 0.071310 -0.076100
C16   C     C_R   0.504156 0.739331 0.499772 0.856893
C17   C     C_R   0.577237 0.578685 0.928397 -0.043780
C18   C     C_R   0.742251 0.500063 0.500283 0.898879
C19   C     C_3   0.038954 0.391634 0.549392 -0.157138
C20   C     C_3   0.954329 0.403351 0.423444 -0.314515
C21   C     C_3   0.876915 0.499915 0.500671 -0.201280
C22   C     C_3   0.959938 0.486696 0.625677 0.675737
C23   C     C_3   0.039361 0.513966 0.373798 0.758804
C24   C     C_3   0.044783 0.597215 0.575497 -0.276575
C25   C     C_2   0.085119 0.270620 0.605400 0.410510
C26   C     C_3   0.122868 0.500833 0.498644 -0.227002
C27   C     C_R   0.709637 0.135339 0.639669 -0.273079
C28   C     C_R   0.804676 0.071443 0.707414 -0.203402
C29   C     C_R   0.806297 0.940691 0.704285 0.693464
C30   C     C_R   0.711678 0.873242 0.634964 -0.299720
C31   C     C_R   0.611991 0.936373 0.569473 0.012250
F1    F     F_    0.900586 0.878944 0.767536 -0.657779
F2    F     F_    0.915552 0.471538 0.755716 -0.639075
F3    F     F_    0.083920 0.528406 0.243777 -0.629592
H1    H     H_    0.914054 0.325137 0.361550 0.190030
H2    H     H_    0.084985 0.675084 0.637903 0.221001
H3    H     H_    0.922824 0.699414 0.406559 0.183852
H4    H     H_    0.348328 0.110402 0.370828 0.173987
H5    H     H_    0.715217 0.236950 0.640770 0.194996
H6    H     H_    0.877845 0.123621 0.761617 0.168969
H7    H     H_    0.062466 0.244594 0.707918 0.083389
H8    H     H_    0.718582 0.772006 0.631929 0.174715
H9    H     H_    0.347959 0.882644 0.370789 0.169269
H10   H     H_    0.640649 0.643000 0.124692 0.160814
H11   H     H_    0.328309 0.329934 0.246785 0.204036
H12   H     H_    0.195754 0.183681 0.125270 0.166404
H13   H     H_    0.198783 0.179964 0.878289 0.165266
H14   H     H_    0.330009 0.327317 0.754295 0.210248
H15   H     H_    0.640467 0.643083 0.874833 0.172835
N1    N     N_R   0.498800 0.498800 0.142780 -0.128737
N2    N     N_R   0.498760 0.498720 0.857170 -0.129382
O1    O     O_R   0.500000 0.316780 0.614690 -0.640577
O2    O     O_R   0.499990 0.316750 0.385360 -0.647352
O3    O     O_R   0.313960 0.499980 0.614650 -0.638597
O4    O     O_R   0.313940 0.499960 0.385310 -0.596661
O5    O     O_R   0.500010 0.683250 0.614640 -0.619419
O6    O     O_R   0.500000 0.683220 0.385310 -0.617017
O7    O     O_R   0.686060 0.500040 0.614690 -0.588058
O8    O     O_R   0.686040 0.500020 0.385350 -0.613905
O9    O     O_2   0.148248 0.201325 0.536175 -0.598325
Zn1   Zn    Zn3+2 0.500010 0.500020 0.653130 0.970687
Zn2   Zn    Zn3+2 0.499990 0.499980 0.346870 0.972343

loop_
_geom_bond_atom_site_label_1
_geom_bond_atom_site_label_2
_ccdc_geom_bond_type
O1    Zn1   S    
C8    C9    A    
C4    C26   S    
C16   O5    A    
C6    C7    A    
O3    Zn1   S    
C29   C30   A    
C9    C10   A    
C12   C24   S    
C19   C20   S    
N2    Zn1   S    
C20   C23   S    
C30   C31   A    
C16   O6    A    
C2    C27   A    
C17   N2    A    
O7    Zn1   S    
C2    C3    A    
O6    Zn2   S    
C14   N1    A    
C13   C14   A    
C11   C13   A    
C12   C23   S    
C11   H14   S    
C24   H2    S    
C15   N1    A    
C19   C25   S    
C27   C28   A    
C28   C29   A    
C25   O9    D    
C24   C26   S    
C15   H10   S    
C29   F1    S    
C6    H9    S    
C4    O4    A    
C13   N2    A    
C5    C6    A    
N1    Zn2   S    
C1    O1    A    
C22   C24   S    
C10   H13   S    
C7    C31   A    
C10   C11   A    
C28   H6    S    
C17   H15   S    
C18   C21   S    
O4    Zn2   S    
C3    C5    A    
C18   O8    A    
C9    H12   S    
C19   C22   S    
C5    H4    S    
C20   C21   S    
O2    Zn2   S    
C23   C26   S    
C25   H7    S    
C12   H3    S    
C15   C17   A    
C19   C26   S    
C1    O2    A    
O5    Zn1   S    
C7    C16   S    
C23   F3    S    
C8    C14   A    
O8    Zn2   S    
C4    O3    A    
C21   C22   S    
C20   H1    S    
C12   C21   S    
C18   O7    A    
C30   H8    S    
C8    H11   S    
C27   H5    S    
C2    C31   A    
C1    C3    S    
C22   F2    S    
