data_mof_unit_45113.cif
_audit_creation_date              2012-12-10T17:57:53-0500
_audit_creation_method            fapswitch 2.2
_symmetry_space_group_name_H-M    P1
_symmetry_Int_Tables_number       1
_space_group_crystal_system       triclinic
_cell_length_a                    10.922924
_cell_length_b                    9.648601
_cell_length_c                    14.982945
_cell_angle_alpha                 89.69026
_cell_angle_beta                  93.021484
_cell_angle_gamma                 89.012827
_cell_volume                      1576.60586508

loop_
_atom_site_label
_atom_site_type_symbol
_atom_type_description
_atom_site_fract_x
_atom_site_fract_y
_atom_site_fract_z
_atom_type_partial_charge
C1    C     C_R   0.262930 0.501356 0.506924 0.769155
C2    C     C_R   0.737065 0.498646 0.493062 0.769179
C3    C     C_R   0.274712 0.511222 0.032903 -0.143181
C4    C     C_R   0.725300 0.488756 0.967098 -0.143190
C5    C     C_R   0.066664 0.376891 0.522891 -0.021244
C6    C     C_R   0.933318 0.623121 0.477057 -0.021300
C7    C     C_R   0.940349 0.370800 0.500619 -0.072995
C8    C     C_R   0.059634 0.629216 0.499304 -0.073015
C9    C     C_R   0.871984 0.496046 0.485691 -0.236365
C10   C     C_R   0.128001 0.503965 0.514262 -0.236333
C11   C     C_R   0.441625 0.075724 0.431601 0.030942
C12   C     C_R   0.558372 0.924276 0.568399 0.030953
C13   C     C_R   0.557072 0.072182 0.568953 0.033432
C14   C     C_R   0.442935 0.927819 0.431044 0.033376
C15   C     C_R   0.498455 0.500374 0.329385 0.774298
C16   C     C_R   0.501546 0.499626 0.670614 0.774314
C17   C     C_R   0.618384 0.501017 0.817598 -0.103938
C18   C     C_R   0.381622 0.498963 0.182401 -0.103934
C19   C     C_R   0.505711 0.498602 0.767138 -0.091269
C20   C     C_R   0.494293 0.501396 0.232862 -0.091275
C21   C     C_R   0.394156 0.500547 0.807843 -0.194588
C22   C     C_R   0.605853 0.499456 0.192158 -0.194608
C23   C     C_R   0.391358 0.503463 0.900263 0.118421
C24   C     C_R   0.608653 0.496532 0.099738 0.118429
C25   C     C_R   0.502096 0.500433 0.953044 0.046651
C26   C     C_R   0.497916 0.499560 0.046957 0.046647
C27   C     C_R   0.616692 0.497881 0.912117 0.089304
C28   C     C_R   0.383318 0.502104 0.087883 0.089304
C29   C     C_R   0.278886 0.510051 0.940391 -0.200757
C30   C     C_R   0.721127 0.489934 0.059610 -0.200754
Cu1   Cu    Cu3+1 0.500000 0.640660 0.500000 1.010924
Cu2   Cu    Cu3+1 0.500000 0.359340 0.500000 1.010912
H1    H     H_    0.309090 0.501404 0.766888 0.123586
H2    H     H_    0.690920 0.498602 0.233113 0.123572
H3    H     H_    0.193572 0.515401 0.900005 0.164903
H4    H     H_    0.806442 0.484582 0.099998 0.164898
H5    H     H_    0.185412 0.521638 0.059976 0.197761
H6    H     H_    0.814602 0.478329 0.940027 0.197757
N1    N     N_R   0.500000 0.852070 0.500000 -0.254327
N2    N     N_R   0.500000 0.147930 0.500000 -0.254337
O1    O     O_R   0.319640 0.618740 0.499990 -0.579053
O2    O     O_R   0.680360 0.381260 0.500010 -0.579065
O3    O     O_R   0.680360 0.618740 0.500010 -0.555812
O4    O     O_R   0.319640 0.381260 0.499990 -0.555841
O5    O     O_R   0.499970 0.618800 0.370260 -0.581519
O6    O     O_R   0.500030 0.381200 0.629740 -0.581538
O7    O     O_R   0.500030 0.618800 0.629740 -0.572858
O8    O     O_R   0.499970 0.381200 0.370260 -0.572870
C31   C     C_2   0.734184 0.510216 0.769550 0.360725
H7    H     H_    0.742576 0.457647 0.706334 0.119611
O9    O     O_2   0.817912 0.583595 0.796752 -0.533218
C32   C     C_2   0.265819 0.489721 0.230443 0.360717
H8    H     H_    0.257409 0.542260 0.293661 0.119647
O10   O     O_2   0.182109 0.416332 0.203232 -0.533255
C33   C     C_2   0.133975 0.253729 0.562318 0.545004
H9    H     H_    0.187495 0.264388 0.624972 0.031916
O11   O     O_2   0.137269 0.143610 0.522805 -0.444347
C34   C     C_2   0.866001 0.746281 0.437649 0.545102
H10   H     H_    0.812501 0.735647 0.374996 0.031910
O12   O     O_2   0.862698 0.856372 0.477174 -0.444332
C35   C     C_2   0.882191 0.233837 0.485046 0.589569
H11   H     H_    0.821103 0.219478 0.426424 0.062352
O13   O     O_2   0.899022 0.137679 0.537743 -0.434854
C36   C     C_2   0.117765 0.766180 0.514830 0.589615
H12   H     H_    0.178856 0.780597 0.573437 0.062440
O14   O     O_2   0.100889 0.862278 0.462113 -0.435008
C37   C     C_2   0.373627 0.149367 0.357295 0.922220
O15   O     O_2   0.272503 0.200382 0.368158 -0.523802
O16   O     O_R   0.422647 0.152730 0.272981 -0.727662
H13   H     H_    0.365572 0.199736 0.226195 0.352532
C38   C     C_2   0.626360 0.850637 0.642710 0.922226
O17   O     O_2   0.727468 0.799590 0.631848 -0.523786
O18   O     O_R   0.577346 0.847313 0.727026 -0.727702
H14   H     H_    0.634417 0.800320 0.773815 0.352527
C39   C     C_2   0.615528 0.142103 0.647145 0.903998
O19   O     O_2   0.711616 0.202793 0.640656 -0.576227
O20   O     O_R   0.560939 0.136142 0.729387 -0.728148
H15   H     H_    0.609655 0.186486 0.778306 0.328943
C40   C     C_2   0.384522 0.857897 0.352836 0.903962
O21   O     O_2   0.288464 0.797120 0.359310 -0.576255
O22   O     O_R   0.439134 0.863919 0.270601 -0.728129
H16   H     H_    0.390445 0.813560 0.221672 0.328958

loop_
_geom_bond_atom_site_label_1
_geom_bond_atom_site_label_2
_ccdc_geom_bond_type
C33   H9    S    
O18   H14   S    
C6    C34   S    
C6    C9    A    
O22   H16   S    
C18   C32   S    
O20   H15   S    
Cu1   O3    S    
C23   C29   A    
C3    C28   A    
C19   C21   A    
C24   C26   A    
C11   C14   A    
C21   H1    S    
C34   O12   D    
C35   O13   D    
C3    C29   A    
C7    C35   S    
C13   N2    A    
C14   N1    A    
C13   C39   S    
C11   C37   S    
C31   O9    D    
C35   H11   S    
C23   C25   A    
Cu1   O7    S    
Cu2   O8    S    
O16   H13   S    
C15   O8    A    
C16   O7    A    
C32   O10   D    
C15   C20   S    
C22   H2    S    
C37   O15   D    
C17   C27   A    
C18   C28   A    
C16   O6    A    
C40   O22   S    
C6    C8    A    
C25   C26   A    
C37   O16   S    
C36   O14   D    
C39   O19   D    
C1    O4    A    
Cu1   Cu2   S    
C2    O3    A    
Cu2   O4    S    
C14   C40   S    
C39   O20   S    
C8    C36   S    
C1    O1    A    
C12   C38   S    
C20   C22   A    
C21   C23   A    
C22   C24   A    
C15   O5    A    
C17   C31   S    
C4    C27   A    
C32   H8    S    
C5    C7    A    
C7    C9    A    
Cu1   O1    S    
Cu2   O6    S    
C5    C33   S    
C1    C10   S    
C4    H6    S    
C25   C27   A    
C29   H3    S    
C26   C28   A    
C30   H4    S    
C36   H12   S    
C12   N1    A    
C33   O11   D    
C34   H10   S    
C5    C10   A    
C2    O2    A    
C16   C19   S    
C17   C19   A    
Cu1   N1    S    
C18   C20   A    
Cu2   N2    S    
C11   N2    A    
C24   C30   A    
C40   O21   D    
C38   O17   D    
C12   C13   A    
C3    H5    S    
C8    C10   A    
C31   H7    S    
Cu1   O5    S    
C38   O18   S    
Cu2   O2    S    
C2    C9    S    
C4    C30   A    
