data_mof_unit_60571.cif
_audit_creation_date              2013-03-05T15:44:07-0500
_audit_creation_method            fapswitch 2.2
_symmetry_space_group_name_H-M    P1
_symmetry_Int_Tables_number       1
_space_group_crystal_system       triclinic
_cell_length_a                    14.158935
_cell_length_b                    10.710256
_cell_length_c                    10.019719
_cell_angle_alpha                 90.651164
_cell_angle_beta                  90.002829
_cell_angle_gamma                 90.10926
_cell_volume                      1519.3475963

loop_
_atom_site_label
_atom_site_type_symbol
_atom_site_description
_atom_site_fract_x
_atom_site_fract_y
_atom_site_fract_z
_atom_type_partial_charge
O1    O     O_R   0.499990 0.319060 0.613040 -0.593538
O2    O     O_R   0.500010 0.319100 0.386900 -0.617069
C1    C     C_R   0.498185 0.262334 0.498989 0.918570
O3    O     O_R   0.373700 0.499980 0.613090 -0.594809
O4    O     O_R   0.373730 0.500020 0.386960 -0.588158
C2    C     C_R   0.329154 0.500031 0.500012 0.888067
Zn1   Zn    Zn3+2 0.499980 0.499970 0.650990 0.989571
Zn2   Zn    Zn3+2 0.500020 0.500030 0.349010 0.951085
O5    O     O_R   0.499990 0.680900 0.613100 -0.557632
O6    O     O_R   0.500010 0.680940 0.386960 -0.628487
O7    O     O_R   0.626270 0.499980 0.613040 -0.585780
O8    O     O_R   0.626300 0.500020 0.386910 -0.591950
C3    C     C_R   0.506637 0.737620 0.500837 0.824879
C4    C     C_R   0.670847 0.499970 0.499989 0.897840
C5    C     C_1   0.227688 0.500062 0.499987 -0.192334
C6    C     C_1   0.142461 0.500097 0.499987 0.001427
C7    C     C_1   0.042602 0.500134 0.500002 0.021860
C8    C     C_1   0.957381 0.500146 0.500016 0.025263
C9    C     C_1   0.857525 0.500126 0.500026 0.013016
C10   C     C_1   0.772301 0.500069 0.500020 -0.172242
C11   C     C_2   0.522408 0.932275 0.389375 -0.282763
C12   C     C_2   0.533766 0.867134 0.502048 0.146478
H1    H     H_    0.499630 0.888037 0.296641 0.172127
C13   C     C_2   0.526090 0.066827 0.390072 -0.104223
C14   C     C_2   0.493073 0.129935 0.495700 -0.258906
H2    H     H_    0.551482 0.113539 0.301235 0.178975
H3    H     H_    0.462761 0.084002 0.581817 0.172627
C15   C     C_2   0.550588 0.576422 0.925837 -0.082679
N1    N     N_2   0.500930 0.501330 0.852150 -0.185540
H4    H     H_    0.597424 0.641838 0.876956 0.191634
H5    H     H_    0.452648 0.444040 0.897168 0.165028
C16   C     C_2   0.546153 0.581190 0.075950 -0.116229
N2    N     N_2   0.500950 0.501360 0.147810 -0.185105
H6    H     H_    0.584834 0.655384 0.126454 0.169113
H7    H     H_    0.468636 0.426966 0.101240 0.165958
N3    N     N_R   0.581368 0.918611 0.617970 0.208117
O9    O     O_R   0.553604 0.890308 0.737745 -0.396306
O10   O     O_R   0.656919 0.986668 0.603799 -0.367885

loop_
_geom_bond_atom_site_label_1
_geom_bond_atom_site_label_2
_geom_bond_distance
_ccdc_geom_bond_type
O4    Zn2   1.828135 S    
Zn1   N1    2.015498 S    
C14   H3    1.086117 S    
C12   N3    1.446141 S    
C9    C10   1.206672 T    
C1    C14   1.419739 S    
Zn2   O8    1.827854 S    
C16   N2    1.292693 D    
C15   H4    1.084698 S    
C7    C8    1.206635 T    
N1    H5    1.025675 S    
C11   C12   1.343673 D    
Zn1   O7    1.828134 S    
O3    Zn1   1.827856 S    
N3    O10   1.301985 A    
C15   N1    1.292518 D    
N2    H7    1.025702 S    
O8    C4    1.296730 A    
C3    C12   1.438534 S    
O2    C1    1.283409 A    
Zn2   N2    2.016222 S    
C11   H1    1.086842 S    
O4    C2    1.296738 A    
O7    C4    1.296736 A    
C5    C6    1.206721 T    
C4    C10   1.436486 S    
C15   C16   1.505686 S    
C13   C14   1.334363 D    
O3    C2    1.296718 A    
C8    C9    1.413864 S    
C11   C13   1.441864 S    
Zn1   O5    1.978875 S    
O5    C3    1.287830 A    
N3    O9    1.301751 A    
C2    C5    1.436654 S    
O1    Zn1   1.970307 S    
Zn2   O6    1.970307 S    
O2    Zn2   1.978875 S    
C13   H2    1.086894 S    
C6    C7    1.413896 S    
O1    C1    1.288337 A    
O6    C3    1.289674 A    
C16   H6    1.084731 S    
