data_mof_unit_24846.cif
_audit_creation_date              2012-12-10T18:49:02-0500
_audit_creation_method            fapswitch 2.2
_symmetry_space_group_name_H-M    P1
_symmetry_Int_Tables_number       1
_space_group_crystal_system       triclinic
_cell_length_a                    10.643708
_cell_length_b                    9.935481
_cell_length_c                    14.142055
_cell_angle_alpha                 89.939712
_cell_angle_beta                  90.897366
_cell_angle_gamma                 90.151817
_cell_volume                      1495.33795313

loop_
_atom_site_label
_atom_site_type_symbol
_atom_type_description
_atom_site_fract_x
_atom_site_fract_y
_atom_site_fract_z
_atom_type_partial_charge
C1    C     C_R   0.260805 0.499802 0.500313 0.881020
C2    C     C_1   0.500326 0.499975 0.957359 0.075960
C3    C     C_R   0.063865 0.470091 0.414667 -0.124797
C4    C     C_R   0.936135 0.529891 0.585342 -0.124776
C5    C     C_R   0.932943 0.471684 0.414847 -0.013958
C6    C     C_R   0.067059 0.528308 0.585159 -0.013962
C7    C     C_R   0.871985 0.500794 0.500000 -0.149114
C8    C     C_R   0.128016 0.499203 0.500004 -0.149132
C9    C     C_R   0.564083 0.072080 0.568831 0.000388
C10   C     C_R   0.435927 0.927928 0.431159 0.000269
C11   C     C_R   0.435743 0.072083 0.431361 -0.014623
C12   C     C_R   0.739196 0.500197 0.499688 0.881064
C13   C     C_R   0.564236 0.927925 0.568654 -0.014690
C14   C     C_2   0.135834 0.447225 0.325989 0.411710
C15   C     C_2   0.864163 0.552731 0.674023 0.411638
C16   C     C_2   0.859225 0.450719 0.325921 0.466472
C17   C     C_2   0.140784 0.549280 0.674080 0.466636
C18   C     C_2   0.637330 0.146600 0.641250 0.487124
C19   C     C_2   0.362759 0.853425 0.358679 0.486285
C20   C     C_2   0.360119 0.146704 0.360726 0.518159
C21   C     C_2   0.639770 0.853319 0.639356 0.517224
C22   C     C_R   0.499281 0.500042 0.329333 0.909385
C23   C     C_R   0.500718 0.499959 0.670667 0.909339
C24   C     C_1   0.498867 0.500100 0.227827 -0.069233
C25   C     C_1   0.501131 0.499900 0.772173 -0.069227
C26   C     C_1   0.499038 0.500079 0.142551 0.080070
C27   C     C_1   0.500960 0.499922 0.857448 0.080099
C28   C     C_1   0.499672 0.500025 0.042641 0.075951
H1    H     H_    0.227002 0.494106 0.317235 0.039023
H2    H     H_    0.772950 0.505928 0.682738 0.039026
H3    H     H_    0.869015 0.358571 0.285761 0.129097
H4    H     H_    0.131019 0.641446 0.714224 0.129034
H5    H     H_    0.710223 0.216121 0.620636 0.060690
H6    H     H_    0.290172 0.783516 0.379232 0.061223
H7    H     H_    0.280960 0.206255 0.382875 0.068021
H8    H     H_    0.718678 0.793359 0.617241 0.068411
N1    N     N_R   0.500000 0.857200 0.500000 -0.158979
N2    N     N_R   0.500000 0.142800 0.500000 -0.159017
O1    O     O_R   0.316770 0.614620 0.499990 -0.654713
O2    O     O_2   0.903303 0.626568 0.736814 -0.552464
O3    O     O_2   0.787728 0.537704 0.296754 -0.568635
O4    O     O_2   0.212262 0.462284 0.703257 -0.568604
O5    O     O_2   0.615432 0.132309 0.725122 -0.499601
O6    O     O_2   0.384382 0.868170 0.274805 -0.499716
O7    O     O_2   0.386732 0.143423 0.277131 -0.491188
O8    O     O_2   0.613354 0.857062 0.722983 -0.491220
O9    O     O_R   0.683230 0.385380 0.500010 -0.654666
O10   O     O_R   0.683230 0.614620 0.500010 -0.612725
O11   O     O_R   0.316770 0.385380 0.499990 -0.612689
O12   O     O_R   0.500000 0.614690 0.373720 -0.584416
O13   O     O_R   0.500000 0.385310 0.626280 -0.584107
O14   O     O_R   0.500000 0.614690 0.626280 -0.604368
O15   O     O_R   0.500000 0.385310 0.373720 -0.604050
O16   O     O_2   0.096749 0.373270 0.263255 -0.552473
Zn1   Zn    Zn3+2 0.500000 0.653120 0.500000 0.971777
Zn2   Zn    Zn3+2 0.500000 0.346880 0.500000 0.972045

loop_
_geom_bond_atom_site_label_1
_geom_bond_atom_site_label_2
_ccdc_geom_bond_type
O10   Zn1   S    
C2    C28   T    
C2    C27   S    
C25   C27   T    
O11   Zn2   S    
C13   N1    A    
C20   O7    D    
O14   Zn1   S    
C12   O10   A    
C10   C19   S    
C22   O12   A    
C4    C15   S    
C23   C25   S    
C13   C21   S    
C6    C17   S    
C21   H8    S    
C18   O5    D    
C16   H3    S    
C23   O14   A    
C3    C14   S    
C11   N2    A    
C10   N1    A    
C9    N2    A    
C14   O16   D    
C24   C26   T    
O13   Zn2   S    
C22   O15   A    
C12   O9    A    
C7    C12   S    
C11   C20   S    
C18   H5    S    
C22   C24   S    
C15   O2    D    
C3    C8    A    
C10   C11   A    
C1    O1    A    
C14   H1    S    
N1    Zn1   S    
C9    C18   S    
N2    Zn2   S    
C19   O6    D    
C15   H2    S    
C4    C6    A    
C21   O8    D    
O15   Zn2   S    
C5    C7    A    
C17   H4    S    
C9    C13   A    
C17   O4    D    
C5    C16   S    
C6    C8    A    
C4    C7    A    
C20   H7    S    
C26   C28   S    
C16   O3    D    
O1    Zn1   S    
C23   O13   A    
O12   Zn1   S    
C1    C8    S    
O9    Zn2   S    
C3    C5    A    
C19   H6    S    
C1    O11   A    
