data_mof_unit_8348.cif
_audit_creation_date              2012-10-26T20:16:41-0400
_audit_creation_method            fapswitch 2.2
_symmetry_space_group_name_H-M    P1
_symmetry_Int_Tables_number       1
_space_group_crystal_system       triclinic
_cell_length_a                    10.929956
_cell_length_b                    10.970462
_cell_length_c                    9.96123
_cell_angle_alpha                 99.464393
_cell_angle_beta                  99.010936
_cell_angle_gamma                 93.48689
_cell_volume                      1159.01541402

loop_
_atom_site_label
_atom_site_type_symbol
_atom_type_description
_atom_site_fract_x
_atom_site_fract_y
_atom_site_fract_z
_atom_type_partial_charge
C1    C     C_R   0.498813 0.261790 0.499131 0.574063
C2    C     C_R   0.727193 0.947558 0.807058 0.289050
C3    C     C_R   0.413275 0.071417 0.240581 0.115862
C4    C     C_R   0.597037 0.924128 0.758400 0.071410
C5    C     C_R   0.514880 0.111936 0.183115 0.302169
C6    C     C_R   0.518217 0.882001 0.846188 0.272835
C7    C     C_R   0.493012 0.151027 0.054256 0.231549
C8    C     C_R   0.571642 0.859909 0.977716 0.274855
C9    C     C_R   0.374817 0.126070 0.973172 -0.135489
C10   C     C_R   0.698566 0.889149 0.024814 -0.165938
C11   C     C_R   0.428173 0.912492 0.387904 0.220587
C12   C     C_R   0.496340 0.737225 0.501401 0.544849
C13   C     C_R   0.544229 0.084346 0.619568 0.179691
C14   C     C_R   0.487642 0.870694 0.505774 -0.063819
C15   C     C_R   0.494941 0.126467 0.498185 -0.018729
C16   C     C_R   0.262549 0.504897 0.498930 0.556996
C17   C     C_R   0.737611 0.495228 0.501262 0.586736
C18   C     C_R   0.542799 0.958225 0.624049 -0.067015
C19   C     C_R   0.440827 0.038268 0.379721 0.000331
C20   C     C_2   0.510239 0.510603 0.079102 0.016988
C21   C     C_2   0.489475 0.489679 0.920915 0.014767
C22   C     C_R   0.161663 0.535059 0.065080 -0.076809
C23   C     C_R   0.872757 0.490416 0.505665 0.016490
C24   C     C_R   0.836476 0.460191 0.934331 -0.077484
C25   C     C_R   0.119387 0.545167 0.190719 -0.035102
C26   C     C_R   0.877968 0.451161 0.808211 -0.027524
C27   C     C_R   0.076198 0.438745 0.236665 0.050673
C28   C     C_R   0.924494 0.558019 0.765088 0.043252
C29   C     C_R   0.068860 0.322513 0.150540 -0.087735
C30   C     C_R   0.935778 0.672862 0.854530 -0.090044
C31   C     C_R   0.101548 0.314485 0.019345 -0.119246
C32   C     C_R   0.903504 0.679327 0.985709 -0.121864
C33   C     C_R   0.150651 0.419944 0.977823 -0.135140
C34   C     C_R   0.127742 0.509636 0.495375 0.006746
C35   C     C_R   0.850460 0.574175 0.024059 -0.136750
C36   C     C_R   0.915490 0.436339 0.386323 0.064432
C37   C     C_R   0.085363 0.563598 0.615150 0.048504
C38   C     C_R   0.959302 0.545196 0.625398 -0.055455
C39   C     C_R   0.041366 0.453868 0.376309 -0.052969
C40   C     C_R   0.276557 0.073133 0.024295 -0.094052
C41   C     C_R   0.774833 0.934683 0.941569 -0.126658
C42   C     C_R   0.292071 0.052924 0.160427 0.252912
Cu1   Cu    Cu3+1 0.521120 0.521140 0.639640 0.988862
Cu2   Cu    Cu3+1 0.478880 0.478860 0.360360 0.982169
H1    H     H_    0.180029 0.411924 0.878223 0.106193
H2    H     H_    0.868963 0.361533 0.741154 0.143832
H3    H     H_    0.037890 0.238688 0.183946 0.131092
H4    H     H_    0.969243 0.757008 0.823635 0.127921
H5    H     H_    0.089348 0.226657 0.949690 0.123116
H6    H     H_    0.918834 0.765961 0.057817 0.122716
H7    H     H_    0.357867 0.150120 0.871249 0.109452
H8    H     H_    0.738568 0.876233 0.127501 0.153273
H9    H     H_    0.186319 0.051663 0.959279 0.143021
H10   H     H_    0.873094 0.957524 0.980843 0.148428
H11   H     H_    0.693923 0.112903 0.192930 0.327994
H12   H     H_    0.820865 0.581642 0.123484 0.112259
H13   H     H_    0.362329 0.892721 0.721919 0.316464
H14   H     H_    0.641157 0.264242 0.088087 0.345581
H15   H     H_    0.415964 0.788718 0.017144 0.387426
H16   H     H_    0.307595 0.772758 0.315442 0.321976
H17   H     H_    0.529563 0.204330 0.771872 0.363099
H18   H     H_    0.860006 0.267441 0.270045 0.231609
H19   H     H_    0.831256 0.388643 0.187005 0.217595
H20   H     H_    0.143864 0.732621 0.732949 0.243690
H21   H     H_    0.172002 0.609666 0.814483 0.232417
H22   H     H_    0.207333 0.021413 0.311036 0.321171
H23   H     H_    0.418243 0.418253 0.865051 0.134097
H24   H     H_    0.770975 0.972728 0.630317 0.339386
H25   H     H_    0.581197 0.582261 0.135020 0.172751
H26   H     H_    0.620091 0.619515 0.905206 0.222245
H27   H     H_    0.381309 0.379082 0.094798 0.216254
H28   H     H_    0.201967 0.617374 0.036612 0.132073
H29   H     H_    0.794121 0.378111 0.961340 0.151063
H30   H     H_    0.124174 0.635585 0.255078 0.098601
N1    N     N_2   0.447120 0.447110 0.150550 -0.352546
N2    N     N_2   0.552880 0.552890 0.849450 -0.338195
N3    N     N_3   0.830578 0.356685 0.279225 -0.599193
N4    N     N_3   0.171226 0.642501 0.722597 -0.571185
O1    O     O_R   0.517830 0.337490 0.617920 -0.494536
O2    O     O_3   0.390301 0.861379 0.807998 -0.714582
O3    O     O_3   0.584012 0.216256 0.007519 -0.724393
O4    O     O_3   0.502655 0.812242 0.064915 -0.661485
O5    O     O_3   0.358830 0.831929 0.277476 -0.643563
O6    O     O_3   0.599854 0.166192 0.735123 -0.620471
O7    O     O_3   0.187615 0.014170 0.209492 -0.710051
O8    O     O_3   0.810681 0.986122 0.728492 -0.689387
O9    O     O_R   0.482170 0.662510 0.382080 -0.466231
O10   O     O_R   0.482150 0.301790 0.382070 -0.495061
O11   O     O_R   0.517850 0.698210 0.617930 -0.493691
O12   O     O_R   0.337480 0.517860 0.617920 -0.464517
O13   O     O_R   0.662520 0.482140 0.382080 -0.467188
O14   O     O_R   0.301810 0.482160 0.382070 -0.514234
O15   O     O_R   0.698190 0.517840 0.617930 -0.500942
O16   O     O_3   0.633437 0.115240 0.257271 -0.694298

loop_
_geom_bond_atom_site_label_1
_geom_bond_atom_site_label_2
_ccdc_geom_bond_type
C30   C32   A    
C3    C42   A    
C16   O12   A    
C27   C29   A    
C34   C37   A    
C33   H1    S    
C14   C18   A    
H18   N3    S    
C17   O13   A    
H15   O4    S    
C10   H8    S    
H22   O7    S    
C5    O16   S    
C15   C19   A    
C13   O6    S    
C11   C19   A    
Cu1   O11   S    
C13   C18   A    
C29   H3    S    
C8    O4    S    
C30   H4    S    
C24   C26   A    
C36   N3    S    
C11   C14   A    
C24   H29   S    
C2    C41   A    
Cu1   O1    S    
C23   C36   A    
H24   O8    S    
C25   H30   S    
C16   C34   S    
C27   C39   S    
C22   C25   A    
C9    H7    S    
C31   C33   A    
C3    C19   S    
C1    C15   S    
Cu2   O9    S    
Cu2   O14   S    
C4    C18   S    
C1    O10   A    
C40   C42   A    
C21   H23   S    
C10   C41   A    
H13   O2    S    
C31   H5    S    
H11   O16   S    
C22   H28   S    
Cu1   O12   S    
C34   C39   A    
C24   C35   A    
C32   C35   A    
C12   O11   A    
C4    C6    A    
H14   O3    S    
C5    C7    A    
C6    C8    A    
C11   O5    S    
C9    C40   A    
C20   N1    D    
Cu2   N1    S    
C2    C4    A    
Cu1   Cu2   S    
C37   C38   A    
C6    O2    S    
C21   N2    D    
C28   C38   S    
C42   O7    S    
C17   C23   S    
C32   H6    S    
Cu2   O13   S    
C7    O3    S    
C12   C14   S    
C16   O14   A    
C13   C15   A    
H26   N2    S    
C1    O1    A    
C20   H25   S    
C17   O15   A    
H19   N3    S    
Cu1   N2    S    
C7    C9    A    
C22   C33   A    
H21   N4    S    
C12   O9    A    
C35   H12   S    
H20   N4    S    
C36   C39   A    
C3    C5    A    
H17   O6    S    
C25   C27   A    
C23   C38   A    
C37   N4    S    
C26   C28   A    
Cu1   O15   S    
C28   C30   A    
C29   C31   A    
H27   N1    S    
H16   O5    S    
C2    O8    S    
C41   H10   S    
C26   H2    S    
C20   C21   S    
C8    C10   A    
C40   H9    S    
Cu2   O10   S    
