data_mof_unit_25343.cif
_audit_creation_date              2012-12-11T20:51:11-0500
_audit_creation_method            fapswitch 2.2
_symmetry_space_group_name_H-M    P1
_symmetry_Int_Tables_number       1
_space_group_crystal_system       triclinic
_cell_length_a                    30.538674
_cell_length_b                    33.901059
_cell_length_c                    8.414954
_cell_angle_alpha                 89.999899
_cell_angle_beta                  90.243513
_cell_angle_gamma                 90.201715
_cell_volume                      8711.81357134

loop_
_atom_site_label
_atom_site_type_symbol
_atom_type_description
_atom_site_fract_x
_atom_site_fract_y
_atom_site_fract_z
_atom_type_partial_charge
Ba1   Ba    Ba6+2 0.999930 0.472870 0.844940 1.668229
Ba2   Ba    Ba6+2 0.999930 0.527130 0.344940 1.658162
Ba3   Ba    Ba6+2 0.499930 0.972870 0.844940 1.662381
Ba4   Ba    Ba6+2 0.499930 0.027130 0.344940 1.658759
C1    C     C_3   0.016907 0.276896 0.637774 -0.222159
C2    C     C_R   0.184141 0.317612 0.641421 0.572896
C3    C     C_R   0.402819 0.088730 0.688602 0.022116
C4    C     C_R   0.866169 0.384541 0.160433 -0.074107
C5    C     C_R   0.866891 0.615055 0.671589 -0.037583
C6    C     C_R   0.366273 0.884506 0.160941 -0.072483
C7    C     C_R   0.366362 0.115105 0.668089 -0.038319
C8    C     C_R   0.860942 0.349642 0.254406 0.243704
C9    C     C_R   0.868547 0.653658 0.742465 0.202607
C10   C     C_R   0.361087 0.849612 0.255000 0.245847
C11   C     C_R   0.367434 0.153690 0.739167 0.204190
C12   C     C_2   0.067294 0.596331 0.881610 -0.270749
C13   C     C_R   0.710630 0.173986 0.954835 0.591188
C14   C     C_2   0.066829 0.403710 0.382921 -0.254593
C15   C     C_2   0.567180 0.096246 0.880834 -0.271131
C16   C     C_2   0.571246 0.906115 0.367553 -0.282084
C17   C     C_3   0.123048 0.473562 0.168889 0.311341
C18   C     C_3   0.122245 0.526903 0.671251 0.293331
C19   C     C_3   0.626207 0.975510 0.180665 0.309174
C20   C     C_3   0.623414 0.026327 0.670360 0.290629
C21   C     C_3   0.162959 0.446860 0.170090 -0.361684
C22   C     C_3   0.162222 0.553711 0.679866 -0.342555
C23   C     C_3   0.667794 0.951025 0.187107 -0.354599
C24   C     C_R   0.698624 0.827591 0.624108 0.588620
C25   C     C_3   0.663651 0.052804 0.678916 -0.339848
C26   C     C_3   0.880330 0.527830 0.020505 0.312284
C27   C     C_3   0.875281 0.473800 0.514671 0.299594
C28   C     C_3   0.380419 0.027830 0.020046 0.312080
C29   C     C_3   0.375254 0.973793 0.514833 0.299925
C30   C     C_3   0.840864 0.554313 0.002469 -0.412840
C31   C     C_3   0.835520 0.446967 0.525685 -0.372447
C32   C     C_3   0.340855 0.053982 0.997588 -0.415553
C33   C     C_3   0.335510 0.946936 0.526551 -0.374134
C34   C     C_3   0.996267 0.314831 0.574000 0.315258
C35   C     C_R   0.155456 0.713982 0.072792 0.590433
C36   C     C_3   0.002690 0.684231 0.081531 0.333775
C37   C     C_3   0.495791 0.814560 0.564980 0.319573
C38   C     C_3   0.502124 0.184318 0.081948 0.332850
C39   C     C_R   0.928657 0.405219 0.313934 -0.283645
C40   C     C_R   0.933432 0.595985 0.803091 -0.276896
C41   C     C_R   0.428612 0.905330 0.314918 -0.279316
C42   C     C_R   0.432950 0.096431 0.801066 -0.278616
C43   C     C_R   0.043188 0.255345 0.514373 0.000082
C44   C     C_R   0.021991 0.236923 0.385713 -0.059735
C45   C     C_R   0.046052 0.215356 0.274823 -0.064102
C46   C     C_R   0.191476 0.299443 0.367200 0.577008
C47   C     C_R   0.091306 0.211413 0.293093 -0.035348
C48   C     C_R   0.112499 0.228824 0.422817 -0.051978
C49   C     C_R   0.088672 0.250903 0.532739 -0.069169
C50   C     C_R   0.966036 0.750728 0.053762 0.025104
C51   C     C_R   0.927520 0.747393 0.144653 -0.035963
C52   C     C_R   0.889496 0.767398 0.099022 -0.035876
C53   C     C_R   0.889489 0.791001 0.962891 -0.057571
C54   C     C_R   0.927647 0.795002 0.873193 -0.068486
C55   C     C_R   0.965842 0.775290 0.919035 -0.074771
C56   C     C_R   0.541372 0.754847 0.498607 -0.005317
C57   C     C_R   0.655056 0.214140 0.073599 0.590552
C58   C     C_R   0.515277 0.733006 0.392214 -0.066227
C59   C     C_R   0.534695 0.709418 0.276108 -0.071464
C60   C     C_R   0.580249 0.706999 0.266674 -0.045741
C61   C     C_R   0.606440 0.728056 0.373705 -0.015326
C62   C     C_R   0.587193 0.752128 0.488755 -0.045659
C63   C     C_R   0.464819 0.250333 0.046009 0.026162
C64   C     C_R   0.425695 0.246950 0.133152 -0.040263
C65   C     C_R   0.387755 0.266263 0.082212 -0.040167
C66   C     C_R   0.388389 0.289150 0.944253 -0.060349
C67   C     C_R   0.427168 0.293290 0.858410 -0.069267
C68   C     C_R   0.692150 0.796932 0.368606 0.573492
C69   C     C_R   0.465293 0.274322 0.909703 -0.073626
C70   C     C_R   0.832804 0.392847 0.036548 0.060230
C71   C     C_R   0.827549 0.367420 0.905872 -0.033122
C72   C     C_R   0.793073 0.372870 0.798455 -0.090832
C73   C     C_R   0.763306 0.403526 0.821374 -0.073171
C74   C     C_R   0.768088 0.428811 0.951488 -0.065855
C75   C     C_R   0.802417 0.423277 0.059547 0.010901
C76   C     C_R   0.823402 0.600828 0.612900 0.050684
C77   C     C_R   0.787061 0.603589 0.715098 -0.103864
C78   C     C_R   0.745471 0.591613 0.665095 -0.068105
C79   C     C_R   0.187172 0.742343 0.118840 -0.021390
C80   C     C_R   0.739306 0.577291 0.511448 -0.050821
C81   C     C_R   0.774663 0.575270 0.407439 -0.080861
C82   C     C_R   0.816558 0.587099 0.457120 0.028302
C83   C     C_R   0.332913 0.892762 0.036948 0.059750
C84   C     C_R   0.327654 0.867289 0.906400 -0.034287
C85   C     C_R   0.293191 0.872718 0.798900 -0.091660
C86   C     C_R   0.263431 0.903392 0.821625 -0.072680
C87   C     C_R   0.268213 0.928721 0.951613 -0.065470
C88   C     C_R   0.302534 0.923213 0.059741 0.010770
C89   C     C_R   0.323075 0.100573 0.608738 0.050640
C90   C     C_R   0.223518 0.271037 0.408322 -0.031697
C91   C     C_R   0.286656 0.102860 0.710813 -0.104050
C92   C     C_R   0.245196 0.090680 0.660230 -0.067968
C93   C     C_R   0.239230 0.076608 0.506136 -0.050617
C94   C     C_R   0.274659 0.075009 0.402337 -0.079625
C95   C     C_R   0.316445 0.087019 0.452604 0.028583
C96   C     C_R   0.686819 0.242482 0.119543 -0.021471
C97   C     C_3   0.007403 0.728983 0.100581 -0.199356
C98   C     C_R   0.726342 0.770641 0.407990 -0.026929
C99   C     C_R   0.231561 0.736026 0.081574 -0.052907
C100  C     C_R   0.237748 0.267818 0.566768 -0.050867
C101  C     C_R   0.731152 0.236193 0.081712 -0.052806
C102  C     C_R   0.743424 0.770368 0.562698 -0.056336
C103  C     C_R   0.288174 0.695672 0.962826 -0.076886
C104  C     C_R   0.234164 0.289054 0.841052 -0.067610
C105  C     C_R   0.787606 0.195927 0.961856 -0.076593
C106  C     C_R   0.744925 0.796669 0.829978 -0.059422
C107  C     C_R   0.819400 0.223618 0.006385 -0.082118
C108  C     C_3   0.520234 0.778506 0.628670 -0.215213
C109  C     C_R   0.773898 0.766938 0.876671 -0.099718
C110  C     C_R   0.319932 0.723375 0.007625 -0.082526
C111  C     C_R   0.267098 0.262259 0.881423 -0.101236
C112  C     C_R   0.807877 0.258055 0.089473 -0.021607
C113  C     C_R   0.789240 0.739136 0.766200 -0.022694
C114  C     C_R   0.308308 0.757870 0.090258 -0.021966
C115  C     C_R   0.284491 0.236427 0.767726 -0.023657
C116  C     C_R   0.763570 0.264388 0.127343 -0.051076
C117  C     C_R   0.775335 0.741973 0.607310 -0.048620
C118  C     C_R   0.263936 0.764238 0.127418 -0.051141
C119  C     C_3   0.506088 0.229209 0.098334 -0.201138
C120  C     C_R   0.270975 0.240224 0.608786 -0.046439
C121  C     C_R   0.175589 0.776788 0.201986 -0.079021
C122  C     C_R   0.241421 0.245448 0.294512 -0.099221
C123  C     C_R   0.675341 0.276885 0.203089 -0.079067
C124  C     C_R   0.742978 0.743647 0.296112 -0.098001
C125  C     C_3   0.000565 0.317020 0.095423 0.344502
C126  C     C_3   0.990490 0.673709 0.566649 0.383637
C127  C     C_3   0.504814 0.816523 0.102649 0.328785
C128  C     C_3   0.490064 0.173236 0.565886 0.386390
C129  C     C_R   0.707191 0.304533 0.248133 -0.082447
C130  C     C_R   0.243724 0.701548 0.999042 -0.026333
C131  C     C_R   0.776873 0.717904 0.336499 -0.086784
C132  C     C_R   0.207389 0.804459 0.247165 -0.082246
C133  C     C_R   0.275164 0.219339 0.334432 -0.087989
C134  C     C_R   0.751581 0.298738 0.210966 -0.022218
C135  C     C_R   0.793169 0.716526 0.492824 -0.034945
C136  C     C_R   0.251833 0.798635 0.210594 -0.021959
C137  C     C_R   0.290612 0.216609 0.491818 -0.036414
C138  C     C_R   0.784249 0.326469 0.255039 0.580638
C139  C     C_R   0.826776 0.690258 0.537509 0.580705
C140  C     C_R   0.284442 0.826390 0.254848 0.580204
C141  C     C_R   0.218517 0.291695 0.683807 -0.037709
C142  C     C_R   0.324824 0.190558 0.535298 0.581754
C143  C     C_R   0.839629 0.286388 0.134657 0.568677
C144  C     C_R   0.817605 0.708226 0.811133 0.574645
C145  C     C_R   0.340015 0.786225 0.135708 0.568582
C146  C     C_R   0.314544 0.206548 0.810173 0.573351
C147  C     C_2   0.104926 0.658096 0.821979 -0.095993
C148  C     C_2   0.103881 0.341662 0.326229 -0.069343
C149  C     C_2   0.604699 0.158106 0.821784 -0.096057
C150  C     C_2   0.618505 0.853884 0.288499 -0.096982
C151  C     C_3   0.067831 0.632591 0.793905 -0.074741
C152  C     C_R   0.743218 0.201765 0.998761 -0.026662
C153  C     C_3   0.067319 0.367498 0.296029 -0.121957
C154  C     C_3   0.567656 0.132567 0.793480 -0.073633
C155  C     C_3   0.575399 0.870566 0.277743 -0.092046
C156  C     C_1   0.096418 0.588277 0.003395 0.032534
C157  C     C_1   0.097541 0.412911 0.497643 0.030615
C158  C     C_1   0.596037 0.088354 0.003582 0.036140
C159  C     C_1   0.594595 0.910965 0.507011 0.034739
C160  C     C_2   0.129638 0.614286 0.041296 -0.099768
C161  C     C_2   0.133523 0.389383 0.522879 -0.090572
C162  C     C_2   0.628974 0.114574 0.042562 -0.099141
C163  C     C_R   0.728770 0.798344 0.672890 -0.028410
C164  C     C_2   0.620519 0.880018 0.559094 -0.086173
C165  C     C_2   0.134633 0.651136 0.947655 0.240628
C166  C     C_2   0.136695 0.350433 0.441157 0.211544
C167  C     C_2   0.634140 0.151321 0.948378 0.239609
C168  C     C_2   0.640171 0.852308 0.438740 0.169021
C169  C     C_R   0.886799 0.343562 0.382264 -0.103153
C170  C     C_R   0.898949 0.661145 0.855907 -0.108271
C171  C     C_R   0.386824 0.843621 0.383232 -0.104211
C172  C     C_R   0.397513 0.161202 0.854257 -0.106902
C173  C     C_3   0.981278 0.279118 0.028207 -0.312057
C174  C     C_R   0.211166 0.673761 0.954854 0.590835
C175  C     C_3   0.980938 0.717647 0.574370 -0.372546
C176  C     C_3   0.483224 0.779593 0.036030 -0.304923
C177  C     C_3   0.478718 0.216812 0.565539 -0.368027
C178  C     C_R   0.921040 0.372466 0.423840 -0.073585
C179  C     C_R   0.928148 0.629611 0.909463 -0.058565
C180  C     C_R   0.420935 0.872607 0.425140 -0.076565
C181  C     C_R   0.427278 0.129863 0.907825 -0.059103
C182  C     C_R   0.901206 0.411768 0.191868 0.025571
C183  C     C_R   0.903192 0.588525 0.690590 0.021169
C184  C     C_R   0.401238 0.911798 0.192431 0.026745
H1    H     H_    0.022895 0.335854 0.543576 0.009243
H2    H     H_    0.152477 0.583753 0.717350 0.087334
H3    H     H_    0.474428 0.227551 0.442747 0.119772
H4    H     H_    0.007818 0.258809 0.991663 0.089127
H5    H     H_    0.007654 0.732934 0.640646 0.106847
H6    H     H_    0.508538 0.758637 0.994074 0.094225
H7    H     H_    0.505417 0.233910 0.623582 0.107411
H8    H     H_    0.110119 0.475873 0.291010 -0.006938
H9    H     H_    0.108057 0.524065 0.791349 0.000327
H10   H     H_    0.614466 0.980135 0.303300 0.011884
H11   H     H_    0.609170 0.023791 0.790568 0.005027
H12   H     H_    0.097903 0.460192 0.089868 0.081518
H13   H     H_    0.661686 0.922971 0.250292 0.058922
H14   H     H_    0.097953 0.540492 0.589827 0.085221
H15   H     H_    0.601099 0.959370 0.110052 0.064066
H16   H     H_    0.599293 0.040121 0.588769 0.079778
H17   H     H_    0.986796 0.238904 0.372580 0.063784
H18   H     H_    0.029532 0.201296 0.175771 0.061502
H19   H     H_    0.109866 0.194449 0.207921 0.064613
H20   H     H_    0.147337 0.224872 0.438963 0.061199
H21   H     H_    0.105612 0.264066 0.632926 0.087388
H22   H     H_    0.926553 0.729316 0.250414 0.118364
H23   H     H_    0.859971 0.764472 0.169038 0.090979
H24   H     H_    0.654186 0.082838 0.717712 0.087727
H25   H     H_    0.860016 0.806392 0.927390 0.067080
H26   H     H_    0.927706 0.813523 0.768337 0.068846
H27   H     H_    0.995231 0.779230 0.849204 0.062148
H28   H     H_    0.479913 0.734016 0.400080 0.067506
H29   H     H_    0.514397 0.692806 0.194115 0.065417
H30   H     H_    0.595252 0.688504 0.177472 0.062402
H31   H     H_    0.641667 0.725351 0.368315 0.080094
H32   H     H_    0.607982 0.768126 0.571238 0.058000
H33   H     H_    0.424113 0.229218 0.239602 0.119993
H34   H     H_    0.357756 0.263255 0.149293 0.094384
H35   H     H_    0.177457 0.445562 0.049372 0.143797
H36   H     H_    0.358911 0.303845 0.904341 0.066368
H37   H     H_    0.427745 0.311297 0.752195 0.067895
H38   H     H_    0.495145 0.278332 0.842711 0.061702
H39   H     H_    0.849781 0.343036 0.888375 0.111830
H40   H     H_    0.789332 0.353224 0.697881 0.106680
H41   H     H_    0.736603 0.407720 0.738196 0.086664
H42   H     H_    0.744841 0.452377 0.969854 0.065522
H43   H     H_    0.804656 0.442063 0.163253 0.070664
H44   H     H_    0.790864 0.615170 0.834285 0.090343
H45   H     H_    0.717970 0.593675 0.745342 0.067048
H46   H     H_    0.177867 0.555729 0.561210 0.135246
H47   H     H_    0.707019 0.568180 0.472260 0.062722
H48   H     H_    0.769077 0.564931 0.287776 0.053831
H49   H     H_    0.842942 0.586627 0.372728 0.125813
H50   H     H_    0.349846 0.842863 0.889144 0.111716
H51   H     H_    0.289443 0.853033 0.698440 0.106296
H52   H     H_    0.236735 0.907566 0.738392 0.086786
H53   H     H_    0.244974 0.952303 0.969825 0.065649
H54   H     H_    0.304772 0.942035 0.163359 0.070434
H55   H     H_    0.290291 0.114253 0.830356 0.091987
H56   H     H_    0.217641 0.092403 0.740363 0.067661
H57   H     H_    0.679092 0.944384 0.064729 0.143623
H58   H     H_    0.207037 0.067353 0.466456 0.063236
H59   H     H_    0.269184 0.064854 0.282399 0.053834
H60   H     H_    0.342895 0.086774 0.368467 0.126311
H61   H     H_    0.679116 0.054927 0.559980 0.132440
H62   H     H_    0.896904 0.525201 0.904486 0.010597
H63   H     H_    0.884096 0.477591 0.388474 0.003911
H64   H     H_    0.397824 0.025164 0.905604 0.010976
H65   H     H_    0.034871 0.670164 0.105813 0.073371
H66   H     H_    0.384002 0.977488 0.388483 0.003699
H67   H     H_    0.902951 0.541264 0.108677 0.087577
H68   H     H_    0.902644 0.459851 0.581161 0.069940
H69   H     H_    0.402338 0.041528 0.109810 0.087944
H70   H     H_    0.402666 0.959912 0.581410 0.068529
H71   H     H_    0.820010 0.543559 0.903103 0.122958
H72   H     H_    0.807805 0.459670 0.457322 0.118451
H73   H     H_    0.321038 0.043096 0.895717 0.123818
H74   H     H_    0.307676 0.959615 0.458565 0.119455
H75   H     H_    0.851361 0.585091 0.980457 0.075189
H76   H     H_    0.520193 0.836144 0.519069 -0.025086
H77   H     H_    0.843025 0.417326 0.478129 0.083285
H78   H     H_    0.351195 0.084868 0.977177 0.076225
H79   H     H_    0.342988 0.917293 0.478910 0.082491
H80   H     H_    0.821634 0.553719 0.113100 0.118854
H81   H     H_    0.825930 0.444048 0.651881 0.141243
H82   H     H_    0.320613 0.053137 0.105736 0.119698
H83   H     H_    0.326081 0.944022 0.653015 0.140658
H84   H     H_    0.976364 0.307798 0.466663 -0.046530
H85   H     H_    0.993749 0.678530 0.955653 -0.084835
H86   H     H_    0.473330 0.805285 0.467430 -0.038072
H87   H     H_    0.534372 0.170734 0.109532 0.075631
H88   H     H_    0.494028 0.177989 0.955864 -0.083623
H89   H     H_    0.038064 0.284603 0.740942 0.139937
H90   H     H_    0.035050 0.738773 0.024408 0.097883
H91   H     H_    0.545175 0.788631 0.716393 0.126052
H92   H     H_    0.534168 0.238963 0.024294 0.098161
H93   H     H_    0.961286 0.264246 0.120266 0.111311
H94   H     H_    0.949313 0.722514 0.636063 0.076629
H95   H     H_    0.463564 0.765070 0.130007 0.106946
H96   H     H_    0.447669 0.221543 0.630888 0.076701
H97   H     H_    0.696875 0.330573 0.312179 0.115512
H98   H     H_    0.187801 0.458307 0.255281 0.112230
H99   H     H_    0.789228 0.698108 0.246388 0.166121
H100  H     H_    0.196993 0.830538 0.310856 0.115668
H101  H     H_    0.288337 0.200528 0.242552 0.168336
H102  H     H_    0.141778 0.782487 0.232578 0.115680
H103  H     H_    0.228548 0.245084 0.174833 0.116915
H104  H     H_    0.641577 0.282565 0.234121 0.115685
H105  H     H_    0.730007 0.742521 0.176293 0.124588
H106  H     H_    0.853164 0.217937 0.975316 0.115265
H107  H     H_    0.785167 0.766375 0.998712 0.102428
H108  H     H_    0.353745 0.717664 0.977096 0.114911
H109  H     H_    0.186205 0.541856 0.767031 0.129980
H110  H     H_    0.279677 0.262181 0.001485 0.103295
H111  H     H_    0.882040 0.317832 0.456547 0.073461
H112  H     H_    0.901606 0.689719 0.911941 0.119587
H113  H     H_    0.382068 0.817891 0.457518 0.071756
H114  H     H_    0.399464 0.189630 0.911520 0.120158
H115  H     H_    0.298604 0.669552 0.899481 0.120733
H116  H     H_    0.221265 0.307959 0.933231 0.166567
H117  H     H_    0.797959 0.169850 0.898154 0.121371
H118  H     H_    0.734366 0.817756 0.918514 0.138411
H119  H     H_    0.151528 0.608397 0.140402 0.090598
H120  H     H_    0.693904 0.967437 0.251669 0.128436
H121  H     H_    0.160476 0.400143 0.595567 0.100962
H122  H     H_    0.650646 0.108840 0.142449 0.091037
H123  H     H_    0.617999 0.871189 0.682022 0.161314
H124  H     H_    0.107358 0.685485 0.755709 0.081003
H125  H     H_    0.103068 0.312830 0.270480 0.118453
H126  H     H_    0.607259 0.185409 0.754994 0.080900
H127  H     H_    0.633668 0.844620 0.179329 0.165542
H128  H     H_    0.954759 0.425829 0.340897 0.069962
H129  H     H_    0.959792 0.575582 0.826485 0.075351
H130  H     H_    0.454735 0.925936 0.341789 0.071062
H131  H     H_    0.687657 0.040604 0.765209 0.134645
H132  H     H_    0.459440 0.076178 0.824735 0.073740
H133  H     H_    0.990712 0.256807 0.681092 0.090817
H134  H     H_    0.016706 0.736421 0.224522 0.118421
H135  H     H_    0.496931 0.758966 0.692628 0.095052
H136  H     H_    0.514426 0.237314 0.222382 0.115890
H137  H     H_    0.039621 0.576753 0.862470 0.070938
H138  H     H_    0.038647 0.422689 0.366491 0.069662
H139  H     H_    0.539631 0.076555 0.861112 0.071296
H140  H     H_    0.542636 0.924349 0.346870 0.072181
H141  H     H_    0.973481 0.338401 0.114381 0.022915
H142  H     H_    0.153419 0.416579 0.205938 0.079952
H143  H     H_    0.964569 0.658642 0.495632 0.098626
H144  H     H_    0.478574 0.837824 0.134449 0.009685
H145  H     H_    0.464644 0.156550 0.498690 0.095428
H146  H     H_    0.015806 0.309343 0.211269 -0.063728
H147  H     H_    0.988510 0.662570 0.690734 -0.090594
H148  H     H_    0.523300 0.807884 0.211189 -0.033703
H149  H     H_    0.488914 0.163597 0.691907 -0.092135
H150  H     H_    0.959705 0.285575 0.925501 0.171769
H151  H     H_    0.978656 0.730335 0.453426 0.117304
H152  H     H_    0.461041 0.787309 0.936274 0.174118
N1    N     N_R   0.167628 0.680271 0.991293 -0.427349
N2    N     N_R   0.171254 0.322107 0.483458 -0.428245
N3    N     N_R   0.667151 0.180454 0.991877 -0.427311
N4    N     N_R   0.677675 0.825714 0.475867 -0.417336
N5    N     N_R   0.827637 0.320324 0.214884 -0.427397
N6    N     N_R   0.837165 0.684412 0.696865 -0.424322
N7    N     N_R   0.327883 0.820228 0.215329 -0.427818
N8    N     N_R   0.335267 0.184060 0.694454 -0.423483
O1    O     O_2   0.914200 0.445720 0.903420 -0.443707
O2    O     O_3   0.031759 0.667548 0.495683 -0.567699
O3    O     O_3   0.533408 0.832641 0.988966 -0.561963
O4    O     O_3   0.531434 0.167525 0.495256 -0.568914
O5    O     O_3   0.049930 0.518940 0.045960 -0.498754
O6    O     O_3   0.049930 0.481060 0.545960 -0.498275
O7    O     O_3   0.549930 0.018940 0.045960 -0.493501
O8    O     O_3   0.549930 0.981060 0.545960 -0.501153
O9    O     O_2   0.221536 0.643837 0.883528 -0.593552
O10   O     O_2   0.165165 0.335576 0.746295 -0.565230
O11   O     O_2   0.720924 0.144103 0.883187 -0.593209
O12   O     O_2   0.914200 0.554280 0.403420 -0.476646
O13   O     O_2   0.691837 0.855007 0.714400 -0.596394
O14   O     O_2   0.117030 0.719119 0.106489 -0.616072
O15   O     O_2   0.182174 0.304300 0.227291 -0.599689
O16   O     O_2   0.616661 0.219285 0.107483 -0.615542
O17   O     O_2   0.675158 0.793261 0.238348 -0.622215
O18   O     O_2   0.774117 0.356068 0.328897 -0.612920
O19   O     O_2   0.846977 0.672793 0.434276 -0.581413
O20   O     O_2   0.274213 0.856031 0.328317 -0.612842
O21   O     O_2   0.345464 0.173890 0.431112 -0.580408
O22   O     O_2   0.877993 0.281092 0.100983 -0.625403
O23   O     O_2   0.414200 0.945720 0.903420 -0.444503
O24   O     O_2   0.824148 0.702118 0.952243 -0.615174
O25   O     O_2   0.378452 0.780888 0.102848 -0.623564
O26   O     O_2   0.321287 0.199938 0.950781 -0.616137
O27   O     O_3   0.950020 0.480960 0.143730 -0.496477
O28   O     O_3   0.950020 0.519040 0.643730 -0.489490
O29   O     O_3   0.450020 0.980960 0.143730 -0.495765
O30   O     O_3   0.450020 0.019040 0.643730 -0.489211
O31   O     O_3   0.985090 0.412220 0.642040 -0.464110
O32   O     O_3   0.985090 0.587780 0.142040 -0.477553
O33   O     O_3   0.485090 0.912220 0.642040 -0.464658
O34   O     O_2   0.414200 0.054280 0.403420 -0.476685
O35   O     O_3   0.485090 0.087780 0.142040 -0.477394
O36   O     O_2   0.910311 0.383496 0.745768 -0.476913
O37   O     O_2   0.909440 0.617924 0.229420 -0.451791
O38   O     O_2   0.411368 0.882422 0.749824 -0.475987
O39   O     O_2   0.409070 0.117703 0.227895 -0.453393
O40   O     O_3   0.865797 0.490915 0.072409 -0.644158
O41   O     O_3   0.864319 0.510310 0.580136 -0.636022
O42   O     O_3   0.365834 0.990936 0.072041 -0.644335
O43   O     O_3   0.364275 0.010359 0.579725 -0.635746
O44   O     O_3   0.969551 0.330797 0.693089 -0.574897
O45   O     O_3   0.135147 0.489867 0.615004 -0.633630
O46   O     O_3   0.971862 0.669641 0.191047 -0.592383
O47   O     O_3   0.471548 0.830911 0.690099 -0.570560
O48   O     O_3   0.470894 0.169737 0.190032 -0.592276
O49   O     O_2   0.085560 0.445380 0.786390 -0.447992
O50   O     O_2   0.085560 0.554620 0.286390 -0.454814
O51   O     O_2   0.585560 0.945380 0.786390 -0.443754
O52   O     O_2   0.585560 0.054620 0.286390 -0.460062
O53   O     O_3   0.014550 0.412170 0.047860 -0.473338
O54   O     O_3   0.014550 0.587830 0.547860 -0.479575
O55   O     O_3   0.514550 0.912170 0.047860 -0.464913
O56   O     O_3   0.135539 0.510906 0.113918 -0.629626
O57   O     O_3   0.514550 0.087830 0.547860 -0.479917
O58   O     O_2   0.094423 0.385831 0.978787 -0.432835
O59   O     O_2   0.094398 0.614964 0.474026 -0.475105
O60   O     O_2   0.593260 0.886989 0.957558 -0.474666
O61   O     O_2   0.594288 0.115056 0.473600 -0.474778
O62   O     O_3   0.635818 0.989066 0.614558 -0.623534
O63   O     O_3   0.636124 0.011723 0.109919 -0.631152
O64   O     O_3   0.032128 0.332562 0.990694 -0.558125
P1    P     P_3+3 0.909970 0.458430 0.077330 0.985184
P2    P     P_3+3 0.054072 0.624671 0.577724 0.972363
P3    P     P_3+3 0.555008 0.876175 0.068752 0.975147
P4    P     P_3+3 0.553958 0.124745 0.577293 0.972433
P5    P     P_3+3 0.948155 0.626405 0.116343 0.977847
P6    P     P_3+3 0.946259 0.374480 0.623125 0.965515
P7    P     P_3+3 0.447748 0.126293 0.114836 0.975265
P8    P     P_3+3 0.446688 0.874220 0.623802 0.967770
P9    P     P_3+3 0.909970 0.541570 0.577330 0.976978
P10   P     P_3+3 0.409970 0.958430 0.077330 0.986223
P11   P     P_3+3 0.409970 0.041570 0.577330 0.976601
P12   P     P_3+3 0.089830 0.458070 0.612460 0.996355
P13   P     P_3+3 0.089830 0.541930 0.112460 0.988883
P14   P     P_3+3 0.589830 0.958070 0.612460 1.002717
P15   P     P_3+3 0.589830 0.041930 0.112460 0.989557
P16   P     P_3+3 0.053675 0.375164 0.079128 0.999771

loop_
_geom_bond_atom_site_label_1
_geom_bond_atom_site_label_2
_ccdc_geom_bond_type
Ba1   O31   S    
C72   H40   S    
C96   C123  A    
C165  N1    S    
C24   O13   D    
C132  C136  A    
C167  N3    S    
C139  N6    Am   
C131  C135  A    
C27   H68   S    
C55   H27   S    
O7    P15   S    
O5    P13   S    
C52   C53   A    
C56   C58   A    
C21   H98   S    
C3    P11   S    
C68   O17   D    
C92   H56   S    
C127  O3    S    
C7    C11   A    
C184  P10   S    
C126  H143  S    
C87   H53   S    
C45   C47   A    
C37   C108  S    
Ba4   O29   S    
Ba3   P14   S    
C147  C151  A    
C2    N2    Am   
Ba4   O34   S    
C43   C49   A    
C38   H88   S    
C7    C89   S    
C90   C122  A    
C90   C100  A    
O2    P2    S    
C107  H106  S    
Ba3   O23   S    
C178  P6    S    
C28   O42   S    
C67   H37   S    
C31   H81   S    
C26   O40   S    
O28   P9    S    
C10   N7    S    
Ba1   O49   S    
C47   C48   A    
C136  C140  A    
C97   H90   S    
C128  H145  S    
C80   H47   S    
Ba4   O7    S    
C67   C69   A    
O31   P6    S    
C46   N2    Am   
C16   H140  S    
C16   C159  A    
C36   O46   S    
C15   C158  A    
C14   H138  S    
C114  C145  A    
C71   C72   A    
C25   H131  S    
C10   C171  D    
C166  N2    S    
O41   P9    S    
C128  C177  S    
C148  C166  A    
C150  H127  S    
Ba2   P9    S    
O39   P7    D    
C161  H121  S    
C12   C151  A    
C4    C70   S    
C27   H63   S    
C176  H95   S    
C75   H43   S    
C103  H115  S    
O54   P2    S    
C54   H26   S    
O4    P4    S    
C169  C178  S    
C78   C80   A    
C70   C75   A    
C153  P16   S    
C116  C134  A    
C126  O2    S    
C25   H24   S    
C175  H5    S    
C57   O16   D    
C148  C153  A    
O47   P8    S    
O35   P7    S    
C63   C119  S    
C173  H150  S    
C24   N4    Am   
C112  C143  A    
C156  P13   S    
C73   H41   S    
Ba3   O30   S    
C164  H123  S    
C32   H73   S    
C59   H29   S    
C71   H39   S    
C14   C153  A    
C69   H38   S    
C169  H111  S    
C170  H112  S    
O46   P5    S    
C172  H114  S    
C17   H8    S    
C65   C66   A    
C175  H151  S    
C45   H18   S    
Ba3   P10   S    
C94   C95   A    
C78   H45   S    
Ba1   O5    S    
C146  O26   D    
C32   H82   S    
C5    C76   S    
C157  C161  A    
C41   C180  S    
C175  H94   S    
C19   H10   S    
C12   C156  A    
C50   C97   S    
O55   P3    S    
C93   C94   A    
O44   P6    S    
C81   C82   A    
O29   P10   S    
C79   C99   A    
C39   H128  S    
C113  C144  A    
C28   C32   S    
C104  C111  A    
C103  C130  A    
C98   C124  A    
C23   H57   S    
C14   C157  A    
C47   H19   S    
C105  H117  S    
C23   H120  S    
O62   P14   S    
C140  N7    Am   
C114  C118  A    
C149  C154  A    
C105  C152  A    
C33   H74   S    
C5    C9    A    
C36   C97   S    
C135  C139  A    
O58   P16   D    
C12   H137  S    
C76   C82   A    
Ba2   O27   S    
Ba3   O33   S    
C101  C116  A    
Ba2   O54   S    
Ba4   P11   S    
C27   O41   S    
C22   H46   S    
Ba1   P1    S    
C13   O11   D    
C89   C91   A    
C158  C162  A    
C38   C119  S    
C50   C55   A    
C37   O47   S    
C26   C30   S    
O59   P2    D    
Ba2   O6    S    
C52   H23   S    
C6    C10   A    
C87   C88   A    
C61   H31   S    
C46   C90   A    
C126  H147  S    
C4    C182  A    
C128  H149  S    
C112  C116  A    
C22   H109  S    
C148  H125  S    
C25   H61   S    
C106  C163  A    
C18   O45   S    
C4    C8    A    
C84   H50   S    
C31   H77   S    
O1    P1    D    
Ba4   O57   S    
C40   C179  S    
C107  C112  A    
C109  C113  A    
C127  H148  S    
C142  O21   D    
C53   H25   S    
C111  C115  A    
C120  C137  A    
C57   C96   A    
Ba3   Ba4   S    
C48   C49   A    
C21   H142  S    
C17   C21   S    
C50   C51   A    
O30   P11   S    
C143  O22   D    
C11   N8    S    
C23   H13   S    
C15   C154  A    
C31   H72   S    
C37   H76   S    
C181  P7    S    
C127  C176  S    
C123  H104  S    
C100  C120  A    
C162  H122  S    
C102  C163  A    
C117  C135  A    
C159  C164  A    
C118  C136  A    
C150  C155  A    
C151  P2    S    
C99   C118  A    
C53   C54   A    
C68   C98   A    
C36   H85   S    
C68   N4    Am   
C20   O62   S    
O53   P16   S    
C40   C183  D    
C59   C60   A    
O63   P15   S    
C8    N5    S    
Ba3   O51   S    
C1    H133  S    
C145  N7    Am   
C138  O18   D    
C171  C180  S    
C33   H83   S    
C83   C88   A    
C34   H84   S    
O45   P12   S    
O6    P12   S    
C42   H132  S    
Ba1   O28   S    
C109  H107  S    
C83   C84   A    
C122  C133  A    
C110  H108  S    
C139  O19   D    
C29   O43   S    
Ba2   O12   S    
C142  N8    Am   
C172  C181  S    
C73   C74   A    
O48   P7    S    
O52   P15   D    
C171  H113  S    
C11   C172  D    
C156  C160  A    
C29   H66   S    
C99   C130  A    
O32   P5    S    
Ba4   O8    S    
C46   O15   D    
C179  P5    S    
C146  N8    Am   
C20   C25   S    
C62   H32   S    
C18   H9    S    
O12   P9    D    
C13   N3    Am   
C64   H33   S    
C64   C65   A    
C44   H17   S    
C66   H36   S    
C66   C67   A    
C63   C69   A    
C89   C95   A    
C115  C146  A    
O60   P3    D    
C56   C62   A    
C129  C134  A    
C173  H4    S    
C1    C34   S    
C9    C170  D    
C32   H78   S    
C79   C121  A    
Ba3   O8    S    
C124  H105  S    
C119  H136  S    
C157  P12   S    
C18   H14   S    
Ba2   P13   S    
O8    P14   S    
C63   C64   A    
C80   C81   A    
C177  H96   S    
Ba1   O1    S    
O34   P11   D    
C134  C138  A    
C93   H58   S    
C2    C141  A    
C106  H118  S    
C119  H92   S    
C174  N1    Am   
C54   C55   A    
C125  C173  S    
C29   C33   S    
C103  C110  A    
Ba3   O55   S    
C58   C59   A    
Ba4   P15   S    
C19   O63   S    
C15   H139  S    
C34   H1    S    
O36   P6    D    
O37   P5    D    
C41   C184  D    
C130  C174  A    
C133  H101  S    
C125  H146  S    
C137  C142  A    
C36   H65   S    
C30   H75   S    
C121  C132  A    
C44   C45   A    
C129  H97   S    
C27   C31   S    
C124  C131  A    
C41   H130  S    
C104  C141  A    
O38   P8    D    
C161  C166  S    
C144  O24   D    
C159  P14   S    
C133  C137  A    
O49   P12   D    
C57   N3    Am   
C144  N6    Am   
C155  P3    S    
C158  P15   S    
C123  C129  A    
O51   P14   D    
C147  C165  A    
C170  C179  S    
C138  N5    Am   
C143  N5    Am   
C34   O44   S    
C74   H42   S    
O40   P1    S    
C60   H30   S    
C60   C61   A    
O61   P4    D    
C105  C107  A    
C35   C79   A    
C51   H22   S    
C127  H144  S    
C177  H3    S    
C86   C87   A    
C160  H119  S    
Ba2   O50   S    
C42   C181  S    
C177  H7    S    
C38   O48   S    
C164  C168  S    
C97   H134  S    
C140  O20   D    
C49   H21   S    
C18   C22   S    
O43   P11   S    
C85   C86   A    
C13   C152  A    
C37   H86   S    
C8    C169  D    
C35   O14   D    
C81   H48   S    
C85   H51   S    
C91   C92   A    
C183  P9    S    
C125  H141  S    
C77   C78   A    
C22   H2    S    
C115  C120  A    
C3    C7    A    
C1    C43   S    
C96   C101  A    
C174  O9    D    
C111  H110  S    
O3    P3    S    
C30   H80   S    
C28   H69   S    
C65   H34   S    
C9    N6    S    
C35   N1    Am   
C82   H49   S    
Ba1   Ba2   S    
C33   H79   S    
C113  C117  A    
C24   C163  A    
C168  N4    S    
C88   H54   S    
C20   H11   S    
C77   H44   S    
Ba1   O6    S    
Ba4   O52   S    
C125  O64   S    
O42   P10   S    
C21   H35   S    
Ba2   O32   S    
C40   H129  S    
C121  H102  S    
Ba4   O35   S    
C84   C85   A    
C147  H124  S    
C160  C165  S    
C2    O10   D    
C6    C83   S    
C70   C71   A    
Ba3   O7    S    
Ba1   O53   S    
C1    H89   S    
C72   C73   A    
C126  C175  S    
C176  H152  S    
C74   C75   A    
C145  O25   D    
C39   C182  D    
C128  O4    S    
O64   P16   S    
C16   C155  A    
C26   H62   S    
C19   H15   S    
C182  P1    S    
C29   H70   S    
C56   C108  S    
C180  P8    S    
C6    C184  A    
C43   C44   A    
O27   P1    S    
C92   C93   A    
C149  C167  A    
C51   C52   A    
O56   P13   S    
C150  C168  A    
O23   P10   D    
C106  C109  A    
C3    C42   D    
C110  C114  A    
O50   P13   D    
C173  H93   S    
C19   C23   S    
O33   P8    S    
C131  H99   S    
C38   H87   S    
C17   H12   S    
C132  H100  S    
C104  H116  S    
C176  H6    S    
C20   H16   S    
C48   H20   S    
C58   H28   S    
C100  C141  A    
Ba2   O5    S    
C76   C77   A    
C5    C183  A    
C108  H135  S    
C28   H64   S    
C39   C178  S    
C86   H52   S    
C108  H91   S    
C94   H59   S    
C154  P4    S    
C102  C117  A    
C30   H71   S    
C98   C102  A    
O57   P4    S    
C149  H126  S    
C122  H103  S    
C17   O56   S    
C162  C167  S    
C101  C152  A    
C61   C62   A    
C26   H67   S    
Ba1   P12   S    
C95   H60   S    
C91   H55   S    
