data_mof_unit_57438.cif
_audit_creation_date              2012-10-26T21:01:37-0400
_audit_creation_method            fapswitch 2.2
_symmetry_space_group_name_H-M    P1
_symmetry_Int_Tables_number       1
_space_group_crystal_system       triclinic
_cell_length_a                    15.857848
_cell_length_b                    12.99978
_cell_length_c                    11.680436
_cell_angle_alpha                 99.975804
_cell_angle_beta                  93.421988
_cell_angle_gamma                 90.15315
_cell_volume                      2367.06386952

loop_
_atom_site_label
_atom_site_type_symbol
_atom_type_description
_atom_site_fract_x
_atom_site_fract_y
_atom_site_fract_z
_atom_type_partial_charge
C1    C     C_R   0.498786 0.299047 0.478561 0.548041
C2    C     C_R   0.498289 0.968572 0.444091 0.048272
C3    C     C_R   0.441412 0.379625 0.020733 -0.044036
C4    C     C_R   0.558617 0.620359 0.979266 -0.044041
C5    C     C_R   0.444231 0.396140 0.144107 0.062425
C6    C     C_R   0.555780 0.603853 0.855892 0.062432
C7    C     C_R   0.522455 0.553286 0.157986 0.032368
C8    C     C_R   0.477545 0.446716 0.842014 0.032368
C9    C     C_R   0.520530 0.544115 0.034701 -0.003763
C10   C     C_R   0.479479 0.455882 0.965299 -0.003759
C11   C     C_R   0.339744 0.499958 0.500604 0.553558
C12   C     C_R   0.501224 0.700953 0.521438 0.548040
C13   C     C_R   0.660256 0.500042 0.499396 0.553550
C14   C     C_3   0.973034 0.414164 0.537193 -0.099968
C15   C     C_3   0.026966 0.585837 0.462807 -0.099968
C16   C     C_3   0.025132 0.414362 0.429237 -0.100606
C17   C     C_3   0.974868 0.585639 0.570763 -0.100608
C18   C     C_1   0.250020 0.500005 0.501829 -0.034645
C19   C     C_1   0.749980 0.499996 0.498170 -0.034647
C20   C     C_3   0.032096 0.499814 0.609055 -0.100048
C21   C     C_3   0.967903 0.500187 0.390945 -0.100048
C22   C     C_3   0.082658 0.500012 0.501095 0.052251
C23   C     C_R   0.494650 0.014700 0.344269 -0.141996
C24   C     C_3   0.917342 0.499990 0.498905 0.052250
C25   C     C_1   0.174415 0.500015 0.501905 -0.063649
C26   C     C_1   0.825585 0.499986 0.498095 -0.063652
C27   C     C_R   0.501798 0.814423 0.533835 0.001765
C28   C     C_R   0.498238 0.185576 0.466162 0.001764
C29   C     C_3   0.400054 0.281721 0.947472 -0.279653
C30   C     C_3   0.366851 0.200093 0.015119 -0.307342
C31   C     C_3   0.330943 0.104080 0.932252 -0.446195
C32   C     C_3   0.600035 0.718222 0.052533 -0.279659
C33   C     C_3   0.633394 0.799770 0.984901 -0.307344
C34   C     C_R   0.505419 0.985299 0.655727 -0.141993
C35   C     C_3   0.669462 0.895685 0.067781 -0.446202
C36   C     C_R   0.494636 0.122853 0.355242 -0.138238
C37   C     C_R   0.505417 0.877147 0.644755 -0.138244
C38   C     C_R   0.501632 0.139468 0.566149 -0.131555
C39   C     C_R   0.498419 0.860530 0.433848 -0.131557
C40   C     C_R   0.501774 0.031427 0.555904 0.048279
Cu1   Cu    Cu3+1 0.506200 0.507730 0.615930 0.930697
Cu2   Cu    Cu3+1 0.493800 0.492270 0.384070 0.930695
H1    H     H_    0.047136 0.344039 0.371191 0.103502
H2    H     H_    0.491977 0.157248 0.277046 0.119496
H3    H     H_    0.491820 0.967281 0.258084 0.096307
H4    H     H_    0.508265 0.032719 0.741911 0.096282
H5    H     H_    0.444780 0.382331 0.786106 0.118424
H6    H     H_    0.555209 0.617678 0.213896 0.118418
H7    H     H_    0.584743 0.658932 0.810616 0.128105
H8    H     H_    0.415268 0.341064 0.189384 0.128115
H9    H     H_    0.277845 0.126436 0.875517 0.153899
H10   H     H_    0.380755 0.066318 0.877048 0.149557
H11   H     H_    0.307063 0.046825 0.983352 0.143147
H12   H     H_    0.952864 0.655962 0.628809 0.103500
H13   H     H_    0.419151 0.174617 0.071057 0.151836
H14   H     H_    0.315890 0.234362 0.070598 0.156280
H15   H     H_    0.346453 0.306144 0.892904 0.141916
H16   H     H_    0.447554 0.242758 0.888757 0.136309
H17   H     H_    0.619696 0.933629 0.122942 0.149592
H18   H     H_    0.722469 0.873170 0.124557 0.153879
H19   H     H_    0.693516 0.952842 0.016691 0.143147
H20   H     H_    0.684304 0.765365 0.929409 0.156307
H21   H     H_    0.581153 0.825389 0.928976 0.151817
H22   H     H_    0.552542 0.757276 0.111198 0.136294
H23   H     H_    0.949528 0.343678 0.567673 0.105128
H24   H     H_    0.653576 0.693729 0.107152 0.141933
H25   H     H_    0.050472 0.656324 0.432327 0.105127
H26   H     H_    0.940200 0.500340 0.301420 0.104928
H27   H     H_    0.059799 0.499661 0.698580 0.104929
H28   H     H_    0.495824 0.812595 0.347871 0.112815
H29   H     H_    0.504221 0.187402 0.652125 0.112819
H30   H     H_    0.508076 0.842754 0.722952 0.119506
N1    N     N_R   0.515540 0.519350 0.790140 -0.241759
N2    N     N_R   0.484460 0.480650 0.209860 -0.241759
O1    O     O_R   0.504400 0.354460 0.582000 -0.513653
O2    O     O_R   0.495600 0.645540 0.418000 -0.513653
O3    O     O_R   0.493920 0.341410 0.386200 -0.515780
O4    O     O_R   0.506080 0.658590 0.613800 -0.515774
O5    O     O_R   0.384320 0.506520 0.597880 -0.493650
O6    O     O_R   0.615680 0.493480 0.402120 -0.493656
O7    O     O_R   0.373840 0.493460 0.402080 -0.494478
O8    O     O_R   0.626160 0.506540 0.597920 -0.494486

loop_
_geom_bond_atom_site_label_1
_geom_bond_atom_site_label_2
_ccdc_geom_bond_type
C11   C18   S    
Cu2   O6    S    
C16   C21   S    
C23   H3    S    
C34   C37   A    
C1    O3    A    
Cu1   Cu2   S    
C31   H10   S    
C11   O7    A    
C18   C25   T    
C34   C40   A    
C24   C26   S    
C30   C31   S    
C17   C20   S    
C35   H17   S    
C14   C24   S    
C5    N2    A    
C3    C29   S    
C19   C26   T    
C2    C39   A    
C14   H23   S    
C15   C22   S    
C27   C39   A    
C33   H20   S    
C22   C25   S    
C12   O4    A    
C1    C28   S    
C34   H4    S    
C9    C10   A    
C13   O6    A    
Cu2   O7    S    
C7    N2    A    
Cu2   N2    S    
C17   C24   S    
C13   C19   S    
C12   C27   S    
C1    O1    A    
C14   C20   S    
C32   H22   S    
C4    C6    A    
Cu1   O4    S    
C30   H14   S    
C13   O8    A    
C35   H18   S    
C29   C30   S    
Cu1   O1    S    
C28   C38   A    
C33   H21   S    
C15   H25   S    
C21   C24   S    
C35   H19   S    
C31   H11   S    
C16   H1    S    
C4    C32   S    
C11   O5    A    
C29   H15   S    
C12   O2    A    
C21   H26   S    
C14   C16   S    
C5    H8    S    
C36   H2    S    
C20   C22   S    
C6    N1    A    
C32   H24   S    
C7    C9    A    
C38   H29   S    
C16   C22   S    
C31   H9    S    
C3    C5    A    
Cu1   O5    S    
C15   C17   S    
C30   H13   S    
Cu2   O2    S    
C7    H6    S    
C8    H5    S    
C3    C10   A    
C32   C33   S    
C38   C40   A    
C27   C37   A    
Cu1   O8    S    
C8    N1    A    
C33   C35   S    
C39   H28   S    
C6    H7    S    
C20   H27   S    
Cu1   N1    S    
C2    C40   A    
C15   C21   S    
C29   H16   S    
C28   C36   A    
Cu2   O3    S    
C8    C10   A    
C23   C36   A    
C37   H30   S    
C2    C23   A    
C4    C9    A    
C17   H12   S    
