data_mof_unit_56146.cif
_audit_creation_date              2012-10-26T18:33:57-0400
_audit_creation_method            fapswitch 2.2
_symmetry_space_group_name_H-M    P1
_symmetry_Int_Tables_number       1
_space_group_crystal_system       triclinic
_cell_length_a                    10.881021
_cell_length_b                    10.832851
_cell_length_c                    9.504802
_cell_angle_alpha                 90.006346
_cell_angle_beta                  100.610502
_cell_angle_gamma                 90.210347
_cell_volume                      1101.19054901

loop_
_atom_site_label
_atom_site_type_symbol
_atom_type_description
_atom_site_fract_x
_atom_site_fract_y
_atom_site_fract_z
_atom_type_partial_charge
C1    C     C_R   0.499909 0.262035 0.499940 0.536604
C2    C     C_2   0.873287 0.474769 0.577959 -0.126717
C3    C     C_2   0.068079 0.410643 0.512475 0.009567
C4    C     C_2   0.930230 0.411165 0.484852 0.005703
C5    C     C_R   0.507566 0.063922 0.374001 -0.145739
C6    C     C_R   0.492617 0.936203 0.626045 -0.142291
C7    C     C_R   0.507629 0.936208 0.374036 -0.141743
C8    C     C_R   0.492391 0.063915 0.625963 -0.143993
C9    C     C_R   0.500150 0.871842 0.500058 0.018992
C10   C     C_R   0.499926 0.128251 0.499958 0.016907
C11   C     C_3   0.857650 0.342548 0.354828 -0.241545
C12   C     C_R   0.500112 0.737987 0.500064 0.555582
C13   C     C_3   0.934920 0.249750 0.286605 -0.451995
C14   C     C_3   0.139172 0.342453 0.642890 -0.249668
C15   C     C_3   0.061796 0.246563 0.707169 -0.453234
C16   C     C_R   0.262232 0.492574 0.444798 0.545902
C17   C     C_R   0.737653 0.492570 0.555039 0.544454
C18   C     C_R   0.433534 0.413412 0.060400 0.010490
C19   C     C_R   0.567005 0.586211 0.939753 0.011656
C20   C     C_R   0.434128 0.413065 0.911691 0.003103
C21   C     C_R   0.567236 0.585980 0.088708 0.002330
C22   C     C_2   0.126297 0.475008 0.420919 -0.126250
Cu1   Cu    Cu3+1 0.500000 0.500020 0.640660 0.921995
Cu2   Cu    Cu3+1 0.500000 0.499980 0.359340 0.917185
H1    H     H_    0.380147 0.344132 0.105198 0.107313
H2    H     H_    0.486084 0.111983 0.724323 0.121627
H3    H     H_    0.006413 0.297642 0.236815 0.149944
H4    H     H_    0.981182 0.182664 0.367338 0.155357
H5    H     H_    0.872277 0.197852 0.201173 0.132937
H6    H     H_    0.779970 0.289722 0.388090 0.163837
H7    H     H_    0.817536 0.410446 0.271474 0.165177
H8    H     H_    0.987811 0.291620 0.755020 0.154277
H9    H     H_    0.018642 0.179204 0.624567 0.157574
H10   H     H_    0.123763 0.195463 0.793496 0.124915
H11   H     H_    0.218996 0.292192 0.611759 0.156947
H12   H     H_    0.620790 0.655173 0.895021 0.107878
H13   H     H_    0.175585 0.410938 0.727372 0.156850
H14   H     H_    0.928938 0.514856 0.673951 0.089067
H15   H     H_    0.071470 0.515760 0.325099 0.088346
H16   H     H_    0.382296 0.342746 0.844812 0.093760
H17   H     H_    0.621292 0.654653 0.156324 0.104635
H18   H     H_    0.513745 0.112000 0.275594 0.121897
H19   H     H_    0.486579 0.888147 0.724499 0.124499
H20   H     H_    0.513804 0.888158 0.275633 0.123169
N1    N     N_R   0.500030 0.500030 0.852080 -0.221077
N2    N     N_R   0.499970 0.499970 0.147920 -0.224354
O1    O     O_R   0.499990 0.319660 0.618740 -0.514729
O2    O     O_R   0.500010 0.680340 0.381260 -0.504711
O3    O     O_R   0.499990 0.319630 0.381170 -0.518328
O4    O     O_R   0.500010 0.680370 0.618830 -0.506568
O5    O     O_R   0.320690 0.500020 0.575130 -0.498587
O6    O     O_R   0.679310 0.499980 0.424870 -0.504708
O7    O     O_R   0.320680 0.499990 0.337560 -0.491473
O8    O     O_R   0.679320 0.500010 0.662440 -0.492767

loop_
_geom_bond_atom_site_label_1
_geom_bond_atom_site_label_2
_ccdc_geom_bond_type
Cu2   O6    S    
C2    C4    D    
C5    H18   S    
C19   N1    A    
C13   H4    S    
Cu1   N1    S    
C3    C14   S    
C8    H2    S    
Cu2   O3    S    
C2    H14   S    
C15   H10   S    
Cu1   O5    S    
C20   N1    A    
C16   O5    A    
C12   O2    A    
Cu2   N2    S    
C6    C9    A    
Cu2   O7    S    
C11   H7    S    
C15   H8    S    
C7    H20   S    
C16   O7    A    
C4    C11   S    
C11   C13   S    
C18   H1    S    
C21   H17   S    
C22   H15   S    
C18   N2    A    
C17   O6    A    
C13   H5    S    
C19   C21   A    
C18   C20   A    
C6    H19   S    
C20   H16   S    
C9    C12   S    
Cu1   O1    S    
Cu1   Cu2   S    
C3    C4    S    
Cu2   O2    S    
C5    C10   A    
Cu1   O8    S    
C14   H13   S    
C21   N2    A    
C14   H11   S    
C7    C9    A    
C5    C7    A    
C13   H3    S    
Cu1   O4    S    
C6    C8    A    
C3    C22   D    
C19   H12   S    
C14   C15   S    
C1    O3    A    
C17   O8    A    
C15   H9    S    
C8    C10   A    
C1    O1    A    
C1    C10   S    
C11   H6    S    
C16   C22   S    
C12   O4    A    
C2    C17   S    
