data_mof_unit_32963.cif
_audit_creation_date              2013-03-05T15:50:20-0500
_audit_creation_method            fapswitch 2.2
_symmetry_space_group_name_H-M    P1
_symmetry_Int_Tables_number       1
_space_group_crystal_system       triclinic
_cell_length_a                    19.82082
_cell_length_b                    19.83204
_cell_length_c                    20.694712
_cell_angle_alpha                 108.216435
_cell_angle_beta                  106.583817
_cell_angle_gamma                 110.386331
_cell_volume                      6494.14549124

loop_
_atom_site_label
_atom_site_type_symbol
_atom_site_description
_atom_site_fract_x
_atom_site_fract_y
_atom_site_fract_z
_atom_type_partial_charge
C1    C     C_R   0.724294 0.715519 0.647414 -0.140344
H1    H     H_    0.767652 0.738242 0.627243 0.092087
N1    N     N_R   0.652650 0.649400 0.604520 -0.040002
C2    C     C_R   0.426611 0.269571 0.496316 -0.233815
H2    H     H_    0.380166 0.246339 0.513221 0.126463
N2    N     N_R   0.456500 0.342990 0.499770 -0.065642
C3    C     C_R   0.535673 0.554217 0.717376 -0.101746
H3    H     H_    0.572136 0.615960 0.759802 0.155628
N3    N     N_R   0.494060 0.532730 0.644340 -0.052858
C4    C     C_R   0.666615 0.431306 0.475750 -0.129716
H4    H     H_    0.651972 0.368619 0.454274 0.137661
N4    N     N_R   0.615090 0.459670 0.459940 -0.037818
C5    C     C_R   0.470132 0.419434 0.653284 -0.137218
H5    H     H_    0.448049 0.355883 0.636958 0.101859
N5    N     N_R   0.452360 0.449090 0.604500 -0.040985
C6    C     C_R   0.734292 0.566615 0.539401 -0.113083
H6    H     H_    0.782024 0.628078 0.575568 0.108702
N6    N     N_R   0.656790 0.543310 0.499790 -0.049714
C7    C     C_R   0.497502 0.273355 0.429581 0.540880
N7    N     N_R   0.501350 0.345910 0.459930 -0.082867
C8    C     C_R   0.652350 0.712089 0.712420 -0.178819
H7    H     H_    0.630381 0.731113 0.753143 0.099249
N8    N     N_R   0.607810 0.646480 0.644360 -0.040626
C9    C     C_R   0.726930 0.754987 0.716675 0.101070
C10   C     C_R   0.450859 0.224336 0.452951 -0.072386
C11   C     C_R   0.525000 0.484289 0.725333 0.119457
C12   C     C_R   0.740899 0.497178 0.526531 0.068061
C13   C     C_R   0.563585 0.578572 0.346973 -0.136876
H8    H     H_    0.605437 0.639989 0.362993 0.104555
N9    N     N_R   0.547640 0.550910 0.395500 -0.043505
C14   C     C_R   0.270271 0.430562 0.498006 -0.124402
H9    H     H_    0.229107 0.368144 0.479940 0.102524
N10   N     N_R   0.343210 0.456690 0.500210 -0.042444
C15   C     C_R   0.457568 0.693346 0.527359 -0.140066
H10   H     H_    0.416956 0.700779 0.550787 0.104360
N11   N     N_R   0.498650 0.654090 0.540070 -0.041160
C16   C     C_R   0.352075 0.286582 0.290021 -0.116744
H11   H     H_    0.379966 0.269066 0.254736 0.108160
N12   N     N_R   0.392190 0.353520 0.355640 -0.042064
C17   C     C_R   0.277968 0.280942 0.353053 -0.120158
H12   H     H_    0.235090 0.259721 0.373981 0.148951
N13   N     N_R   0.347350 0.350600 0.395480 -0.050303
C18   C     C_R   0.531012 0.699079 0.462752 -0.103151
H13   H     H_    0.558416 0.712725 0.427117 0.122031
N14   N     N_R   0.543500 0.657010 0.500230 -0.047400
C19   C     C_R   0.491070 0.443634 0.283189 -0.123367
H14   H     H_    0.465796 0.381617 0.241426 0.099169
N15   N     N_R   0.505940 0.467270 0.355660 -0.037118
C20   C     C_R   0.337702 0.565357 0.563567 -0.128474
H15   H     H_    0.357980 0.625648 0.606040 0.106597
N16   N     N_R   0.384910 0.540330 0.540060 -0.042707
Ni1   Ni    Ni4+2 0.599250 0.599260 0.500010 0.212375
Ni2   Ni    Ni4+2 0.400750 0.400740 0.499990 0.202876
Ni3   Ni    Ni4+2 0.496390 0.592570 0.591380 0.216215
Ni4   Ni    Ni4+2 0.503610 0.407430 0.408620 0.252293
C21   C     C_R   0.525611 0.512347 0.275451 0.041051
C22   C     C_R   0.265635 0.497850 0.537112 0.089340
C23   C     C_R   0.475606 0.720188 0.477564 0.082673
C24   C     C_R   0.279564 0.238317 0.286031 0.065006
C25   C     C_3   0.005259 0.417508 0.559985 -0.136162
C26   C     C_3   0.995520 0.459908 0.631625 -0.295986
H16   H     H_    0.978384 0.433268 0.668025 0.164342
H17   H     H_    0.997315 0.355198 0.537000 0.137092
C27   C     C_1   0.812732 0.494165 0.556331 -0.047809
C28   C     C_1   0.205186 0.496820 0.560658 -0.044640
C29   C     C_3   0.957734 0.449388 0.516124 -0.146406
C30   C     C_3   0.949397 0.492078 0.587374 0.075913
C31   C     C_3   0.035845 0.527010 0.543300 -0.375559
C32   C     C_3   0.083090 0.495238 0.587471 0.021163
C33   C     C_3   0.027180 0.568527 0.614500 0.500064
C34   C     C_3   0.073868 0.537025 0.657818 0.268296
C35   C     C_1   0.874405 0.492374 0.575627 0.039597
C36   C     C_1   0.152097 0.496172 0.576975 0.069895
H18   H     H_    0.052605 0.553862 0.506874 0.148195
H19   H     H_    0.908380 0.412527 0.457486 0.135111
C37   C     C_3   0.428800 0.944447 0.488226 -0.344518
C38   C     C_3   0.474159 0.995004 0.456735 0.502967
H20   H     H_    0.450689 0.953239 0.547485 0.143194
C39   C     C_1   0.423010 0.140998 0.431874 -0.041598
C40   C     C_1   0.444093 0.764074 0.448865 -0.020869
C41   C     C_3   0.351430 0.944693 0.443844 -0.157757
C42   C     C_3   0.397967 0.995879 0.413107 0.049013
C43   C     C_3   0.327791 0.866573 0.373460 -0.118368
C44   C     C_3   0.405618 0.867781 0.417845 0.021870
C45   C     C_3   0.374283 0.919628 0.342476 -0.310559
C46   C     C_3   0.450888 0.919609 0.387667 0.267867
C47   C     C_1   0.405897 0.072914 0.419389 0.008519
C48   C     C_1   0.421739 0.806355 0.430074 0.035278
H21   H     H_    0.352285 0.910961 0.283268 0.172253
H22   H     H_    0.267539 0.812265 0.339488 0.136023
H23   H     H_    0.310433 0.956139 0.467241 0.144105
C49   C     C_R   0.533349 0.509604 0.206910 0.151587
C50   C     C_R   0.608720 0.550753 0.210197 -0.227445
C51   C     C_R   0.617284 0.535054 0.143306 -0.071925
C52   C     C_R   0.550302 0.478675 0.073086 0.229731
C53   C     C_R   0.474468 0.441215 0.069903 -0.200217
C54   C     C_R   0.466166 0.455703 0.136554 -0.170767
C55   C     C_R   0.655401 0.538519 0.929933 0.392902
C56   C     C_R   0.624201 0.547789 0.864900 0.435687
C57   C     C_R   0.551502 0.401503 0.789125 -0.207646
C58   C     C_R   0.579291 0.392567 0.853999 -0.277187
C59   C     C_R   0.626003 0.460460 0.924803 -0.138323
C60   C     C_2   0.556670 0.462703 0.001795 -0.368254
C61   C     C_2   0.616332 0.451995 0.989887 0.562179
C62   C     C_R   0.568059 0.478526 0.794008 -0.077117
H24   H     H_    0.661185 0.591948 0.264261 0.126335
H25   H     H_    0.511847 0.346837 0.736236 0.145980
H26   H     H_    0.422120 0.399091 0.015886 0.128347
H27   H     H_    0.407622 0.423423 0.133431 0.123628
H28   H     H_    0.511014 0.462174 0.957042 0.140137
H29   H     H_    0.675833 0.566863 0.146353 0.148922
H30   H     H_    0.556732 0.332364 0.849816 0.145297
C63   C     C_R   0.796707 0.826710 0.782156 0.075575
C64   C     C_R   0.787889 0.875844 0.841054 -0.177214
C65   C     C_R   0.854847 0.933002 0.909613 -0.241445
C66   C     C_R   0.930170 0.939947 0.919591 0.062536
C67   C     C_R   0.940830 0.898438 0.857609 0.651541
C68   C     C_R   0.873578 0.840644 0.789691 -0.367832
C69   C     C_R   0.174995 0.056076 0.096204 -0.160035
C70   C     C_R   0.231994 0.129432 0.158390 -0.217192
C71   C     C_R   0.158842 0.100048 0.231244 0.606731
C72   C     C_R   0.098768 0.028679 0.166317 -0.355896
C73   C     C_R   0.106380 0.008160 0.098840 -0.084997
C74   C     C_2   0.995095 0.984746 0.996247 -0.360087
C75   C     C_2   0.035277 0.951290 0.026525 0.607427
C76   C     C_R   0.223105 0.154609 0.225679 -0.034572
H31   H     H_    0.729190 0.867214 0.835704 0.127431
H32   H     H_    0.279954 0.167979 0.150867 0.131215
H33   H     H_    0.180131 0.040791 0.043383 0.128419
H34   H     H_    0.881682 0.803445 0.744800 0.151443
H35   H     H_    0.009333 0.046775 0.029562 0.127366
H36   H     H_    0.846941 0.966704 0.956708 0.153627
H37   H     H_    0.044593 0.991338 0.167489 0.142698
N17   N     N_R   0.137434 0.585491 0.735257 0.234824
O1    O     O_R   0.122039 0.618869 0.790163 -0.377322
O2    O     O_R   0.209674 0.595977 0.749901 -0.400902
O3    O     O_3   0.032920 0.645788 0.644845 -0.649714
C77   C     C_3   0.104520 0.704417 0.652964 0.209175
H38   H     H_    0.102128 0.694706 0.596215 0.086469
H39   H     H_    0.157732 0.702243 0.687238 0.127664
C78   C     C_3   0.113357 0.788171 0.693454 -0.235049
H40   H     H_    0.060538 0.791064 0.659737 0.193928
H41   H     H_    0.115213 0.798496 0.750075 0.224749
C79   C     C_3   0.189617 0.854917 0.703767 -1.032493
H42   H     H_    0.243385 0.854148 0.738528 0.278500
H43   H     H_    0.193939 0.914729 0.733250 0.277033
H44   H     H_    0.188370 0.846672 0.647739 0.267459
O4    O     O_3   0.549911 0.065419 0.497529 -0.676203
C80   C     C_3   0.606056 0.055653 0.548553 0.240013
H45   H     H_    0.662326 0.077477 0.542094 0.138646
H46   H     H_    0.587282 0.991632 0.537675 0.112606
C81   C     C_3   0.623980 0.107488 0.629893 -0.331032
H47   H     H_    0.647934 0.171986 0.641755 0.214924
H48   H     H_    0.567708 0.088473 0.636615 0.200464
C82   C     C_3   0.685110 0.099551 0.687178 -0.997892
H49   H     H_    0.661524 0.035744 0.677381 0.268437
H50   H     H_    0.697101 0.138163 0.745545 0.272775
H51   H     H_    0.742410 0.119475 0.682295 0.270364
N18   N     N_R   0.505296 0.904953 0.357541 0.235696
O5    O     O_R   0.490639 0.890630 0.287879 -0.392580
O6    O     O_R   0.567461 0.903833 0.399379 -0.429385
O7    O     O_3   0.639108 0.624386 0.874164 -0.657402
C83   C     C_3   0.718130 0.669783 0.885160 0.216424
H52   H     H_    0.715470 0.674578 0.832555 0.092766
H53   H     H_    0.757585 0.642175 0.896750 0.065133
C84   C     C_3   0.755469 0.754840 0.949780 -0.245221
H54   H     H_    0.729883 0.789895 0.928909 0.185121
H55   H     H_    0.740812 0.751432 0.996987 0.237966
C85   C     C_3   0.846221 0.798735 0.980010 -0.984894
H56   H     H_    0.873408 0.769681 0.009029 0.259707
H57   H     H_    0.870979 0.862713 0.021470 0.268338
H58   H     H_    0.861885 0.796609 0.932342 0.301926
O8    O     O_3   0.675097 0.449752 0.043360 -0.681435
C86   C     C_3   0.646369 0.369951 0.034266 0.168322
H59   H     H_    0.636452 0.328175 0.977739 0.097248
H60   H     H_    0.589148 0.348817 0.039633 0.104421
C87   C     C_3   0.708865 0.368011 0.096102 -0.245582
H61   H     H_    0.766288 0.388468 0.091386 0.201885
H62   H     H_    0.719700 0.410157 0.152713 0.202991
C88   C     C_3   0.681081 0.283042 0.089515 -1.019882
H63   H     H_    0.624465 0.261988 0.095504 0.268934
H64   H     H_    0.727762 0.283757 0.135193 0.273386
H65   H     H_    0.671149 0.240098 0.033774 0.268886
O9    O     O_3   0.698720 0.606371 0.000288 -0.638620
C89   C     C_3   0.777441 0.618165 0.034576 0.179069
H66   H     H_    0.809288 0.628330 0.999400 0.079662
H67   H     H_    0.777225 0.565247 0.042466 0.149589
C90   C     C_3   0.824057 0.692317 0.112491 -0.237802
H68   H     H_    0.821525 0.745316 0.106720 0.207035
H69   H     H_    0.795981 0.680346 0.149924 0.199026
C91   C     C_3   0.911814 0.712755 0.149209 -1.044815
H70   H     H_    0.916187 0.660894 0.156183 0.275696
H71   H     H_    0.943638 0.766153 0.205970 0.274910
H72   H     H_    0.941574 0.727540 0.113744 0.266068
O10   O     O_3   0.150895 0.117581 0.297796 -0.688019
C92   C     C_3   0.193702 0.090877 0.341924 0.157450
H73   H     H_    0.218628 0.134179 0.402604 0.123461
H74   H     H_    0.246353 0.090862 0.332142 0.092736
C93   C     C_3   0.136977 0.006869 0.328687 -0.271668
H75   H     H_    0.088742 0.009751 0.344747 0.210140
H76   H     H_    0.108709 0.962840 0.267807 0.192049
C94   C     C_3   0.181809 0.976507 0.375071 -1.033089
H77   H     H_    0.226768 0.968699 0.356040 0.276461
H78   H     H_    0.138813 0.917012 0.366534 0.272817
H79   H     H_    0.212522 0.019926 0.436420 0.265987
O11   O     O_3   0.015327 0.870808 0.984886 -0.636213
C95   C     C_3   0.054835 0.842553 0.029433 0.197402
H80   H     H_    0.042332 0.850681 0.079773 0.088053
H81   H     H_    0.120707 0.875236 0.048045 0.119082
C96   C     C_3   0.023757 0.752409 0.981566 -0.257329
H82   H     H_    0.957964 0.718717 0.962244 0.191468
H83   H     H_    0.034985 0.743233 0.930628 0.235183
C97   C     C_3   0.065006 0.718487 0.026562 -0.986661
H84   H     H_    0.130704 0.749845 0.044714 0.278939
H85   H     H_    0.040718 0.652903 0.990429 0.280674
H86   H     H_    0.053980 0.726296 0.077442 0.258933
O12   O     O_3   0.015057 0.905486 0.865565 -0.636300
C98   C     C_3   0.060981 0.976905 0.863440 0.166795
H87   H     H_    0.125273 0.996826 0.896918 0.136638
H88   H     H_    0.050586 0.028247 0.890384 0.074427
C99   C     C_3   0.045647 0.959652 0.781621 -0.319730
H89   H     H_    0.054590 0.907347 0.755305 0.215231
H90   H     H_    0.982672 0.943928 0.748232 0.191045
C100  C     C_3   0.102214 0.032792 0.778646 -0.989389
H91   H     H_    0.093705 0.085702 0.803967 0.268288
H92   H     H_    0.089242 0.018439 0.718686 0.272002
H93   H     H_    0.165622 0.048399 0.809982 0.263132
O13   O     O_3   0.515046 0.251806 0.367961 -0.691642
C101  C     C_3   0.522249 0.180621 0.347777 0.172925
H94   H     H_    0.532920 0.170591 0.296536 0.142638
H95   H     H_    0.465217 0.126239 0.328466 0.110269
C102  C     C_3   0.594390 0.188804 0.409353 -0.414047
H96   H     H_    0.649841 0.243003 0.424401 0.199175
H97   H     H_    0.585772 0.196115 0.461319 0.229831
C103  C     C_3   0.605644 0.114500 0.381336 -0.774917
H98   H     H_    0.549861 0.058942 0.362933 0.282378
H99   H     H_    0.655444 0.119765 0.427770 0.261316
H100  H     H_    0.620572 0.109435 0.332804 0.241241

loop_
_geom_bond_atom_site_label_1
_geom_bond_atom_site_label_2
_geom_bond_distance
_ccdc_geom_bond_type
C4    C12   1.377397 A    
N15   Ni4   1.848136 S    
C29   C31   1.544110 S    
N3    Ni3   1.848137 S    
C50   C51   1.394094 A    
C82   H50   1.110365 S    
C85   H57   1.110001 S    
C85   H56   1.109486 S    
C51   H29   1.082572 S    
C73   C75   1.459875 S    
N1    N8    1.373063 A    
C52   C53   1.396572 A    
C18   H13   1.078502 S    
C100  H91   1.110890 S    
C37   C44   1.546293 S    
C34   N17   1.456095 S    
C39   C47   1.190702 T    
C2    C10   1.372729 A    
C13   C21   1.393623 A    
N6    Ni1   1.847544 S    
C3    H3    1.068471 S    
O8    C86   1.410357 S    
C66   C67   1.408306 A    
C58   H30   1.083639 S    
C57   C62   1.409451 A    
C101  H94   1.110979 S    
C3    C11   1.397631 A    
C94   H78   1.110331 S    
N8    Ni3   1.860725 S    
C90   C91   1.526111 S    
N5    Ni2   1.844090 S    
N9    N15   1.383888 A    
C13   H8    1.080845 S    
C83   H53   1.114551 S    
C44   C46   1.526528 S    
C15   H10   1.079597 S    
C99   C100  1.525469 S    
C92   C93   1.532549 S    
N13   Ni2   1.844496 S    
C84   C85   1.520189 S    
C15   C23   1.376168 A    
C70   C76   1.409292 A    
C89   H67   1.110152 S    
C31   H18   1.110343 S    
C65   C66   1.397699 A    
C56   O7    1.380060 S    
C75   O11   1.397270 S    
C28   C36   1.190612 T    
O9    C89   1.415191 S    
C90   H69   1.111378 S    
C1    H1    1.080951 S    
C32   C34   1.530601 S    
C86   H59   1.114826 S    
C49   C50   1.400116 A    
C38   C42   1.531603 S    
C18   C23   1.381117 A    
C69   H33   1.083965 S    
C78   H40   1.111803 S    
C12   C27   1.411438 S    
N12   Ni4   1.860724 S    
C83   H52   1.110148 S    
C52   C60   1.461122 S    
C31   C32   1.546641 S    
C87   H62   1.111926 S    
C94   H79   1.110870 S    
C95   C96   1.527729 S    
C103  H98   1.109089 S    
C14   N10   1.336535 A    
C67   O12   1.383929 S    
C33   C34   1.526324 S    
C46   N18   1.457764 S    
C88   H65   1.110886 S    
C23   C40   1.410872 S    
C26   C34   1.546260 S    
C6    C12   1.378639 A    
C17   N13   1.341403 A    
C29   C30   1.540869 S    
C53   H26   1.083630 S    
C25   C29   1.548079 S    
C9    C63   1.458373 S    
C17   C24   1.396420 A    
C5    H5    1.076665 S    
C40   C48   1.189526 T    
C82   H51   1.110878 S    
C84   H55   1.110400 S    
C103  H99   1.110254 S    
N18   O5    1.300310 A    
C79   H44   1.110881 S    
C26   H16   1.109875 S    
N7    Ni4   1.848553 S    
C11   C62   1.496151 S    
O13   C101  1.411950 S    
C41   C43   1.560510 S    
C88   H64   1.110441 S    
C49   C54   1.401507 A    
C41   C42   1.540190 S    
N12   N13   1.373065 A    
C65   H36   1.083541 S    
C97   H85   1.110328 S    
C8    N8    1.341760 A    
N10   Ni2   1.847546 S    
C56   C62   1.421514 A    
C19   N15   1.329575 A    
C94   H77   1.109759 S    
C95   H80   1.114851 S    
N4    Ni4   1.860461 S    
C58   C59   1.393099 A    
C30   C35   1.438476 S    
C83   C84   1.528545 S    
O4    C80   1.413572 S    
C79   H43   1.110654 S    
C4    H4    1.075571 S    
C80   C81   1.529314 S    
C22   C28   1.412755 S    
C45   H21   1.110010 S    
O11   C95   1.411986 S    
C92   H73   1.111079 S    
C89   C90   1.528615 S    
N17   O2    1.300280 A    
O10   C92   1.416830 S    
N14   Ni1   1.847732 S    
C20   N16   1.338274 A    
O12   C98   1.414280 S    
C45   C46   1.539503 S    
C77   C78   1.528104 S    
C102  C103  1.525147 S    
C91   H70   1.110826 S    
C74   H35   1.088617 S    
C90   H68   1.110576 S    
C24   C76   1.476379 S    
C78   H41   1.111933 S    
C7    O13   1.394868 S    
C91   H71   1.110449 S    
C72   H37   1.083567 S    
C16   H11   1.079419 S    
C68   H34   1.082758 S    
C50   H24   1.083109 S    
C93   C94   1.523428 S    
C99   H89   1.110871 S    
C54   H27   1.083657 S    
C32   C36   1.439707 S    
C26   C30   1.541146 S    
C98   H88   1.116651 S    
C43   C44   1.541286 S    
C38   O4    1.412721 S    
C81   C82   1.525729 S    
C97   H84   1.110873 S    
C69   C70   1.379643 A    
C87   C88   1.525939 S    
C98   H87   1.110906 S    
C53   C54   1.388134 A    
C102  H97   1.109650 S    
N11   N14   1.373224 A    
C6    N6    1.339789 A    
C37   C38   1.534058 S    
C59   C61   1.464712 S    
C18   N14   1.340792 A    
C86   C87   1.527276 S    
C71   C72   1.396442 A    
C16   C24   1.383131 A    
C4    N4    1.338299 A    
C1    C9    1.377396 A    
C2    N2    1.336392 A    
C17   H12   1.077897 S    
C43   C45   1.565582 S    
C81   H48   1.110808 S    
C38   C46   1.516053 S    
C96   H82   1.111385 S    
C96   H83   1.111779 S    
C25   H17   1.110087 S    
C5    N5    1.342306 A    
C84   H54   1.111486 S    
C20   H15   1.081786 S    
C5    C11   1.400373 A    
C78   C79   1.525691 S    
N10   N16   1.383898 A    
O7    C83   1.414776 S    
N2    Ni2   1.847733 S    
N4    N6    1.383902 A    
C96   C97   1.525930 S    
C100  H93   1.110915 S    
C82   H49   1.110990 S    
C88   H63   1.110990 S    
C98   C99   1.532316 S    
C95   H81   1.113748 S    
C63   C64   1.401213 A    
C97   H86   1.110592 S    
C3    N3    1.336865 A    
C43   H22   1.109819 S    
N9    Ni1   1.844090 S    
C19   H14   1.081485 S    
C57   H25   1.079115 S    
C66   C74   1.455645 S    
C10   C39   1.415203 S    
C14   H9    1.081978 S    
C44   C48   1.438037 S    
C37   H20   1.110146 S    
C79   H42   1.110873 S    
C60   H28   1.088873 S    
C100  H92   1.110371 S    
C37   C41   1.548966 S    
C20   C22   1.376768 A    
N1    Ni1   1.844498 S    
C70   H32   1.079304 S    
C64   C65   1.389524 A    
C61   O8    1.383599 S    
C77   H39   1.114044 S    
C69   C73   1.389253 A    
C101  C102  1.537432 S    
C42   C45   1.541252 S    
N2    N7    1.373224 A    
O3    C77   1.409375 S    
N17   O1    1.300284 A    
C67   C68   1.387422 A    
C99   H90   1.111080 S    
N16   Ni3   1.860460 S    
C30   C33   1.528407 S    
C7    N7    1.342349 A    
C80   H46   1.116031 S    
N18   O6    1.300167 A    
N3    N5    1.383888 A    
C91   H72   1.110730 S    
C71   C76   1.417017 A    
C16   N12   1.326565 A    
C55   C59   1.407412 A    
C80   H45   1.110894 S    
C64   H31   1.082177 S    
C14   C22   1.377268 A    
C89   H66   1.111042 S    
C6    H6    1.078438 S    
C25   C32   1.540717 S    
C29   H19   1.110611 S    
C13   N9    1.346929 A    
C102  H96   1.110236 S    
C103  H100  1.110704 S    
C15   N11   1.336335 A    
C27   C35   1.189751 T    
C55   O9    1.387210 S    
C51   C52   1.404694 A    
C7    C10   1.398823 A    
C86   H60   1.115419 S    
C92   H74   1.118407 S    
N11   Ni3   1.848550 S    
C77   H38   1.113111 S    
C87   H61   1.111743 S    
C93   H75   1.111460 S    
C63   C68   1.402240 A    
C41   H23   1.109370 S    
C2    H2    1.082246 S    
C81   H47   1.111716 S    
C33   O3    1.411123 S    
C101  H95   1.106339 S    
C55   C56   1.409353 A    
C8    C9    1.385418 A    
C19   C21   1.378544 A    
C60   C61   1.346433 D    
C93   H76   1.110000 S    
C31   C33   1.537218 S    
C25   C26   1.561833 S    
C57   C58   1.389911 A    
C85   H58   1.108733 S    
C1    N1    1.333921 A    
C72   C73   1.395014 A    
C8    H7    1.080431 S    
C21   C49   1.456098 S    
C71   O10   1.380280 S    
C42   C47   1.439633 S    
C74   C75   1.345504 D    
