data_mof_unit_59221.cif
_audit_creation_date              2012-12-10T17:55:26-0500
_audit_creation_method            fapswitch 2.2
_symmetry_space_group_name_H-M    P1
_symmetry_Int_Tables_number       1
_space_group_crystal_system       triclinic
_cell_length_a                    10.864606
_cell_length_b                    9.511418
_cell_length_c                    10.965966
_cell_angle_alpha                 90.055354
_cell_angle_beta                  90.876229
_cell_angle_gamma                 89.972406
_cell_volume                      1133.06573576

loop_
_atom_site_label
_atom_site_type_symbol
_atom_type_description
_atom_site_fract_x
_atom_site_fract_y
_atom_site_fract_z
_atom_type_partial_charge
C1    C     C_R   0.262111 0.499421 0.501778 0.823763
C2    C     C_R   0.737918 0.499343 0.498644 0.823354
C3    C     C_R   0.504794 0.499682 0.265755 0.788011
C4    C     C_R   0.494282 0.499842 0.734241 0.785644
C5    C     C_2   0.511218 0.392953 0.934810 0.328976
C6    C     C_2   0.478357 0.395201 0.065528 0.332149
C7    C     C_2   0.468811 0.498974 0.864255 0.268236
C8    C     C_2   0.527948 0.497822 0.135419 0.270092
C9    C     C_R   0.064104 0.367615 0.508225 0.406108
C10   C     C_R   0.936209 0.367304 0.497977 0.407111
C11   C     C_R   0.871771 0.496446 0.497444 -0.186984
C12   C     C_R   0.128304 0.496661 0.503813 -0.187368
C13   C     C_R   0.936376 0.623615 0.496989 -0.280494
C14   C     C_R   0.063499 0.623715 0.499862 -0.278206
C15   C     C_R   0.424818 0.075080 0.422169 -0.117646
C16   C     C_R   0.575184 0.075146 0.577825 -0.113377
C17   C     C_R   0.421703 0.924713 0.423407 0.515632
C18   C     C_R   0.578270 0.924838 0.576564 0.512677
Cu1   Cu    Cu3+1 0.500000 0.640660 0.500000 1.027065
Cu2   Cu    Cu3+1 0.500000 0.359340 0.500000 0.993977
H1    H     H_    0.888810 0.723516 0.493739 0.186621
H2    H     H_    0.110904 0.723688 0.499286 0.188829
H3    H     H_    0.367759 0.134239 0.359085 0.195122
H4    H     H_    0.632296 0.134229 0.640983 0.195525
N1    N     N_R   0.500000 0.852070 0.500000 -0.245456
N2    N     N_R   0.500000 0.147940 0.500000 -0.211545
O1    O     O_R   0.319640 0.618740 0.499990 -0.570829
O2    O     O_R   0.680360 0.618740 0.500010 -0.570732
O3    O     O_R   0.319620 0.381170 0.499990 -0.538965
O4    O     O_R   0.680380 0.381170 0.500010 -0.540787
O5    O     O_R   0.500000 0.618750 0.321940 -0.528346
O6    O     O_R   0.500000 0.618750 0.678060 -0.527590
O7    O     O_R   0.499970 0.381180 0.321940 -0.573854
O8    O     O_R   0.500030 0.381180 0.678060 -0.569920
O9    O     O_3   0.576943 0.281988 0.883126 -0.597068
C19   C     C_3   0.656569 0.216531 0.968648 -0.310658
H5    H     H_    0.603990 0.152242 0.034422 0.205141
H6    H     H_    0.715878 0.294581 0.017165 0.141970
H7    H     H_    0.718336 0.144232 0.919091 0.178746
O10   O     O_3   0.406352 0.290416 0.118291 -0.598123
C20   C     C_3   0.322600 0.230443 0.033516 -0.321175
H8    H     H_    0.370857 0.161001 0.968205 0.203809
H9    H     H_    0.268167 0.312416 0.984427 0.144466
H10   H     H_    0.256559 0.164270 0.083843 0.176090
O11   O     O_3   0.403147 0.609082 0.916290 -0.549573
C21   C     C_3   0.286639 0.622577 0.858517 -0.327489
H11   H     H_    0.293940 0.680645 0.771140 0.184025
H12   H     H_    0.226268 0.685055 0.918654 0.193714
H13   H     H_    0.240979 0.519039 0.843091 0.105288
O12   O     O_3   0.599116 0.602616 0.082552 -0.551821
C22   C     C_3   0.715337 0.611064 0.141614 -0.331238
H14   H     H_    0.756714 0.505449 0.158338 0.107855
H15   H     H_    0.709215 0.670737 0.228397 0.182459
H16   H     H_    0.778765 0.669501 0.081710 0.194136
O13   O     O_3   0.125378 0.240101 0.514449 -0.568788
C23   C     C_3   0.133010 0.197901 0.637638 -0.283508
H17   H     H_    0.181958 0.277516 0.694990 0.135984
H18   H     H_    0.186752 0.098823 0.643070 0.173055
H19   H     H_    0.040209 0.176375 0.674847 0.170648
O14   O     O_3   0.875131 0.239575 0.496774 -0.569086
C24   C     C_3   0.869170 0.189689 0.375598 -0.285638
H20   H     H_    0.822023 0.266186 0.313789 0.137885
H21   H     H_    0.814505 0.091196 0.373730 0.169454
H22   H     H_    0.962381 0.164495 0.341079 0.172233
O15   O     O_3   0.347811 0.847656 0.343152 -0.522463
C25   C     C_3   0.230684 0.909333 0.325152 -0.340683
H23   H     H_    0.234583 0.992634 0.254549 0.164725
H24   H     H_    0.191721 0.951095 0.411354 0.163603
H25   H     H_    0.166634 0.827322 0.290311 0.187802
O16   O     O_3   0.652074 0.848155 0.657018 -0.523118
C26   C     C_3   0.770370 0.907827 0.671851 -0.330437
H26   H     H_    0.769143 0.992761 0.741251 0.162071
H27   H     H_    0.808188 0.947003 0.584349 0.160940
H28   H     H_    0.833927 0.825267 0.706581 0.187977

loop_
_geom_bond_atom_site_label_1
_geom_bond_atom_site_label_2
_ccdc_geom_bond_type
C18   O16   S    
C26   H28   S    
C10   O14   S    
O13   C23   S    
O16   C26   S    
C9    O13   S    
C8    O12   S    
C24   H22   S    
Cu1   O1    S    
C20   H8    S    
C25   H24   S    
O9    C19   S    
C23   H19   S    
C2    O4    A    
C22   H16   S    
Cu1   O5    S    
C14   H2    S    
C1    O3    A    
O12   C22   S    
C17   N1    A    
C26   H26   S    
C16   H4    S    
C16   C18   A    
Cu2   O4    S    
C13   C14   A    
C3    O5    A    
Cu1   O2    S    
C20   H9    S    
C21   H13   S    
C4    O6    A    
C18   N1    A    
Cu2   N2    S    
C4    C7    S    
C5    C6    S    
C2    C11   S    
C7    O11   S    
C15   H3    S    
C19   H5    S    
C20   H10   S    
C12   C14   A    
C25   H23   S    
C21   H12   S    
Cu2   O3    S    
C19   H7    S    
C6    C8    D    
C16   N2    A    
C24   H20   S    
Cu1   N1    S    
C9    C12   A    
C4    O8    A    
C3    C8    S    
C1    O1    A    
C10   C11   A    
Cu2   O7    S    
C13   H1    S    
C19   H6    S    
C25   H25   S    
C5    O9    S    
C11   C13   A    
C6    O10   S    
C22   H14   S    
C23   H17   S    
C15   C17   A    
O15   C25   S    
C9    C10   A    
Cu2   O8    S    
C26   H27   S    
C5    C7    D    
C3    O7    A    
C21   H11   S    
O10   C20   S    
C15   N2    A    
C2    O2    A    
O11   C21   S    
C17   O15   S    
Cu1   O6    S    
C24   H21   S    
C1    C12   S    
Cu1   Cu2   S    
C23   H18   S    
O14   C24   S    
C22   H15   S    
