data_mof_unit_29755.cif
_audit_creation_date              2012-12-10T18:01:44-0500
_audit_creation_method            fapswitch 2.2
_symmetry_space_group_name_H-M    P1
_symmetry_Int_Tables_number       1
_space_group_crystal_system       triclinic
_cell_length_a                    10.955449
_cell_length_b                    9.637389
_cell_length_c                    19.404288
_cell_angle_alpha                 87.295479
_cell_angle_beta                  93.65106
_cell_angle_gamma                 89.452482
_cell_volume                      2042.14439831

loop_
_atom_site_label
_atom_site_type_symbol
_atom_type_description
_atom_site_fract_x
_atom_site_fract_y
_atom_site_fract_z
_atom_type_partial_charge
C1    C     C_R   0.262775 0.499744 0.504016 0.848369
C2    C     C_R   0.737224 0.500256 0.495984 0.848371
C3    C     C_R   0.493426 0.506894 0.930027 0.465862
C4    C     C_R   0.506565 0.493084 0.069974 0.465864
C5    C     C_R   0.505958 0.502804 0.367567 0.841857
C6    C     C_R   0.494043 0.497195 0.632433 0.841850
C7    C     C_R   0.063661 0.374499 0.494568 0.169903
C8    C     C_R   0.936338 0.625504 0.505430 0.169899
C9    C     C_R   0.936262 0.379714 0.480733 0.156771
C10   C     C_R   0.063738 0.620290 0.519263 0.156767
C11   C     C_R   0.871810 0.501980 0.492675 -0.202865
C12   C     C_R   0.128190 0.498023 0.507324 -0.202864
C13   C     C_R   0.424091 0.079903 0.454308 0.174403
C14   C     C_R   0.575908 0.920097 0.545693 0.174397
C15   C     C_R   0.575271 0.069328 0.546020 0.140343
C16   C     C_R   0.424732 0.930673 0.453978 0.140318
C17   C     C_R   0.472098 0.621144 0.248338 0.166049
C18   C     C_R   0.527911 0.378851 0.751661 0.166046
C19   C     C_R   0.421215 0.601345 0.739285 0.210967
C20   C     C_R   0.578771 0.398636 0.260717 0.210965
C21   C     C_R   0.463614 0.612408 0.175933 0.091484
C22   C     C_R   0.536392 0.387582 0.824066 0.091476
C23   C     C_R   0.423019 0.606821 0.811773 0.057151
C24   C     C_R   0.576963 0.393154 0.188229 0.057147
C25   C     C_R   0.513866 0.497125 0.145862 -0.062822
C26   C     C_R   0.486126 0.502856 0.854138 -0.062820
C27   C     C_R   0.517783 0.507428 0.291196 -0.199241
C28   C     C_R   0.482217 0.492565 0.708804 -0.199237
Cu1   Cu    Cu3+1 0.500000 0.640660 0.500000 1.007906
Cu2   Cu    Cu3+1 0.500000 0.359340 0.500000 1.007910
N1    N     N_R   0.500000 0.852070 0.500000 -0.157451
N2    N     N_R   0.500000 0.147930 0.500000 -0.157449
N3    N     N_R   0.609461 0.483143 0.035154 -0.254151
N4    N     N_R   0.390530 0.516834 0.964847 -0.254156
N5    N     N_R   0.602893 0.488936 0.966382 -0.207003
N6    N     N_R   0.397099 0.511042 0.033619 -0.207009
O1    O     O_R   0.319640 0.618740 0.500000 -0.534378
O2    O     O_R   0.680360 0.381260 0.500000 -0.534381
O3    O     O_R   0.680360 0.618740 0.500000 -0.534147
O4    O     O_R   0.319640 0.381260 0.500000 -0.534146
O5    O     O_R   0.499980 0.618820 0.400140 -0.532101
O6    O     O_R   0.500020 0.381180 0.599860 -0.532103
O7    O     O_R   0.500020 0.618820 0.599860 -0.539128
O8    O     O_R   0.499980 0.381180 0.400140 -0.539130
N7    N     N_2   0.125937 0.244015 0.504393 -0.385900
H1    H     H_    0.096057 0.165027 0.474227 0.252013
C29   C     C_3   0.156276 0.201968 0.576285 -0.657998
H2    H     H_    0.073642 0.164138 0.601193 0.195656
H3    H     H_    0.194044 0.289800 0.605614 0.220948
H4    H     H_    0.227492 0.119032 0.579491 0.219174
N8    N     N_2   0.874060 0.755987 0.495609 -0.385899
H5    H     H_    0.903942 0.834974 0.525776 0.252009
C30   C     C_3   0.843708 0.798040 0.423720 -0.657970
H6    H     H_    0.926338 0.835871 0.398808 0.195649
H7    H     H_    0.772492 0.880974 0.420518 0.219166
H8    H     H_    0.805936 0.710210 0.394391 0.220957
N9    N     N_2   0.877559 0.279401 0.438843 -0.397747
H9    H     H_    0.904131 0.283699 0.388766 0.234639
C31   C     C_3   0.865671 0.139634 0.467456 -0.674348
H10   H     H_    0.917209 0.066961 0.437236 0.194142
H11   H     H_    0.768155 0.110765 0.463355 0.244080
H12   H     H_    0.901944 0.128810 0.522042 0.217591
N10   N     N_2   0.122444 0.720616 0.561145 -0.397738
H13   H     H_    0.095877 0.716332 0.611223 0.234645
C32   C     C_3   0.134327 0.860376 0.532522 -0.674346
H14   H     H_    0.082786 0.933057 0.562735 0.194139
H15   H     H_    0.098058 0.871182 0.477934 0.217596
H16   H     H_    0.231842 0.889251 0.536623 0.244078
N11   N     N_2   0.452818 0.750946 0.277397 -0.395748
H17   H     H_    0.381037 0.809716 0.254368 0.233820
C33   C     C_3   0.564312 0.829258 0.287611 -0.670790
H18   H     H_    0.581410 0.892332 0.239914 0.206311
H19   H     H_    0.644809 0.760021 0.301340 0.225875
H20   H     H_    0.555937 0.898033 0.331027 0.225856
N12   N     N_2   0.547210 0.249056 0.722599 -0.395747
H21   H     H_    0.618994 0.190294 0.745630 0.233823
C34   C     C_3   0.435724 0.170730 0.712383 -0.670756
H22   H     H_    0.418576 0.107734 0.760096 0.206315
H23   H     H_    0.444145 0.101877 0.669003 0.225806
H24   H     H_    0.355241 0.239953 0.698599 0.225900
N13   N     N_2   0.341858 0.692010 0.696930 -0.390757
H25   H     H_    0.250567 0.676422 0.704377 0.243625
C35   C     C_3   0.374748 0.836775 0.692861 -0.603928
H26   H     H_    0.305332 0.900056 0.717065 0.212318
H27   H     H_    0.376832 0.871860 0.637753 0.222984
H28   H     H_    0.465958 0.854480 0.719255 0.215279
N14   N     N_2   0.658123 0.307968 0.303073 -0.390740
H29   H     H_    0.749415 0.323556 0.295629 0.243624
C36   C     C_3   0.625233 0.163202 0.307139 -0.603924
H30   H     H_    0.694658 0.099922 0.282942 0.212315
H31   H     H_    0.534029 0.145494 0.280739 0.215285
H32   H     H_    0.623135 0.128117 0.362247 0.222971
N15   N     N_3   0.410641 0.724332 0.132013 -0.572388
H33   H     H_    0.459923 0.814833 0.140605 0.224886
H34   H     H_    0.320215 0.739840 0.144420 0.217169
N16   N     N_3   0.589380 0.275664 0.867985 -0.572388
H35   H     H_    0.540111 0.185155 0.859392 0.224878
H36   H     H_    0.679809 0.260174 0.855578 0.217172
N17   N     N_3   0.361173 0.719676 0.841082 -0.584606
H37   H     H_    0.423039 0.769009 0.874822 0.225646
H38   H     H_    0.289638 0.679891 0.868818 0.243263
N18   N     N_3   0.638796 0.280289 0.158921 -0.584608
H39   H     H_    0.576923 0.230961 0.125183 0.225640
H40   H     H_    0.710333 0.320062 0.131182 0.243264
N19   N     N_3   0.345027 0.160490 0.405942 -0.505455
H41   H     H_    0.255992 0.124362 0.408572 0.185647
H42   H     H_    0.371839 0.145330 0.356175 0.188542
N20   N     N_3   0.654971 0.839511 0.594060 -0.505453
H43   H     H_    0.628156 0.854673 0.643826 0.188534
H44   H     H_    0.744005 0.875638 0.591430 0.185647
N21   N     N_3   0.653827 0.138592 0.594721 -0.498033
H45   H     H_    0.743938 0.120196 0.583939 0.187350
H46   H     H_    0.645353 0.090812 0.643315 0.193114
N22   N     N_3   0.346189 0.861410 0.405270 -0.498042
H47   H     H_    0.354683 0.909189 0.356678 0.193125
H48   H     H_    0.256073 0.879811 0.416042 0.187347

loop_
_geom_bond_atom_site_label_1
_geom_bond_atom_site_label_2
_ccdc_geom_bond_type
C23   N17   S    
N14   H29   S    
N10   C32   S    
C17   N11   S    
C18   N12   S    
C13   N2    A    
N21   H45   S    
C14   N1    A    
C4    N6    A    
C4    C25   S    
C15   N2    A    
C29   H3    S    
N7    H1    S    
C16   N1    A    
N19   H42   S    
N15   H33   S    
C35   H26   S    
C7    N7    S    
N9    C31   S    
C20   N14   S    
N20   H43   S    
Cu2   O2    S    
C23   C26   A    
N11   C33   S    
C20   C24   A    
C5    O5    A    
C1    O4    A    
C5    C27   S    
C2    O3    A    
C6    C28   S    
C10   N10   S    
C32   H15   S    
N16   H36   S    
C36   H31   S    
C24   N18   S    
C1    O1    A    
N7    C29   S    
C31   H10   S    
N15   H34   S    
Cu1   O7    S    
Cu2   O8    S    
N18   H39   S    
C1    C12   S    
C2    C11   S    
N13   C35   S    
N13   H25   S    
C29   H4    S    
C34   H23   S    
C7    C12   A    
C31   H11   S    
N8    H5    S    
C17   C27   A    
C15   N21   S    
C18   C28   A    
C24   C25   A    
C13   N19   S    
N22   H47   S    
C33   H19   S    
C3    N4    A    
C34   H22   S    
C17   C21   A    
N8    C30   S    
C19   C23   A    
N12   H21   S    
Cu1   Cu2   S    
N12   C34   S    
C2    O2    A    
C29   H2    S    
C3    N5    A    
C32   H16   S    
N16   H35   S    
Cu1   O3    S    
Cu2   O4    S    
N21   H46   S    
C36   H32   S    
N18   H40   S    
C19   C28   A    
C9    C11   A    
C8    N8    S    
C10   C12   A    
C35   H27   S    
C5    O8    A    
C6    O7    A    
N14   C36   S    
C22   C26   A    
C30   H7    S    
C30   H8    S    
C7    C9    A    
C21   C25   A    
C4    N3    A    
C31   H12   S    
Cu1   O5    S    
C18   C22   A    
C22   N16   S    
C3    C26   S    
C16   N22   S    
C33   H20   S    
N22   H48   S    
C30   H6    S    
C20   C27   A    
N19   H41   S    
N17   H37   S    
C33   H18   S    
Cu1   N1    S    
Cu2   N2    S    
C34   H24   S    
N9    H9    S    
C21   N15   S    
C8    C11   A    
C14   N20   S    
N3    N5    A    
N4    N6    A    
N20   H44   S    
C9    N9    S    
N11   H17   S    
N10   H13   S    
C35   H28   S    
C8    C10   A    
C32   H14   S    
C6    O6    A    
C13   C16   A    
Cu1   O1    S    
C14   C15   A    
Cu2   O6    S    
C36   H30   S    
C19   N13   S    
N17   H38   S    
