data_mof_unit_40535.cif
_audit_creation_date              2012-12-10T20:44:42-0500
_audit_creation_method            fapswitch 2.2
_symmetry_space_group_name_H-M    P1
_symmetry_Int_Tables_number       1
_space_group_crystal_system       triclinic
_cell_length_a                    9.868028
_cell_length_b                    10.714535
_cell_length_c                    16.789839
_cell_angle_alpha                 89.150876
_cell_angle_beta                  95.007177
_cell_angle_gamma                 90.190425
_cell_volume                      1768.23954683

loop_
_atom_site_label
_atom_site_type_symbol
_atom_type_description
_atom_site_fract_x
_atom_site_fract_y
_atom_site_fract_z
_atom_type_partial_charge
C1    C     C_R   0.499205 0.259967 0.500251 0.929811
C2    C     C_R   0.492965 0.127969 0.494322 -0.228869
C3    C     C_R   0.377663 0.062061 0.517086 0.511339
C4    C     C_R   0.517993 0.502082 0.653348 0.866874
C5    C     C_R   0.381689 0.932968 0.518085 -0.325049
C6    C     C_R   0.495508 0.871347 0.493817 -0.169418
C7    C     C_R   0.596228 0.937656 0.458558 0.131266
C8    C     C_3   0.747679 0.931552 0.472428 -0.486981
C9    C     C_3   0.746436 0.073193 0.472022 -0.438347
C10   C     C_R   0.082022 0.508814 0.569822 0.124860
C11   C     C_R   0.061573 0.500796 0.430252 -0.132489
C12   C     C_R   0.645382 0.489331 0.786858 -0.231843
C13   C     C_R   0.917861 0.500988 0.430240 -0.124518
C14   C     C_R   0.939586 0.507630 0.569984 0.122660
C15   C     C_3   0.946669 0.418082 0.639534 0.345028
C16   C     C_R   0.499849 0.739725 0.499531 0.908390
C17   C     C_3   0.100770 0.420746 0.639091 -0.548190
C18   C     C_R   0.481719 0.505393 0.346579 0.854023
C19   C     C_R   0.528298 0.523459 0.738759 -0.017597
C20   C     C_R   0.421817 0.584613 0.772025 -0.237834
C21   C     C_R   0.430426 0.607313 0.853206 -0.167177
C22   C     C_R   0.546159 0.568360 0.902059 0.328476
C23   C     C_R   0.574000 0.600020 0.143852 -0.167316
C24   C     C_R   0.654519 0.512481 0.868199 -0.196182
C25   C     C_3   0.895452 0.221690 0.685839 -0.332412
C26   C     C_3   0.152599 0.111586 0.498480 -0.285719
C27   C     C_R   0.583819 0.573237 0.224822 -0.236380
C28   C     C_R   0.450210 0.580421 0.097314 0.326618
C29   C     C_R   0.470019 0.528877 0.260885 -0.019452
C30   C     C_R   0.344600 0.516108 0.215585 -0.224505
C31   C     C_R   0.335024 0.542170 0.133940 -0.194803
C32   C     C_R   0.594922 0.065124 0.458740 0.049930
H1    H     H_    0.680581 0.587857 0.259102 0.152108
H2    H     H_    0.151758 0.465605 0.692909 0.160419
H3    H     H_    0.664042 0.632808 0.117359 0.145457
H4    H     H_    0.146716 0.330884 0.623211 0.259674
H5    H     H_    0.743855 0.482417 0.905548 0.135447
H6    H     H_    0.727818 0.442288 0.762104 0.143488
H7    H     H_    0.254976 0.484223 0.242888 0.148631
H8    H     H_    0.346186 0.653362 0.877740 0.146048
H9    H     H_    0.239304 0.527660 0.098549 0.135990
H10   H     H_    0.332327 0.615759 0.735259 0.153614
H11   H     H_    0.827324 0.255326 0.730140 0.158060
H12   H     H_    0.299960 0.881802 0.542993 0.183701
H13   H     H_    0.001199 0.211477 0.714067 0.173566
H14   H     H_    0.859630 0.127439 0.667383 0.179723
H15   H     H_    0.168200 0.146599 0.437138 0.157177
H16   H     H_    0.072472 0.170016 0.521471 0.217521
H17   H     H_    0.114170 0.013934 0.496435 0.151828
H18   H     H_    0.783131 0.889887 0.531644 0.208001
H19   H     H_    0.794864 0.892036 0.420619 0.200076
H20   H     H_    0.781704 0.113254 0.530680 0.247473
H21   H     H_    0.792582 0.115530 0.419886 0.199342
H22   H     H_    0.107004 0.499565 0.373986 0.139808
H23   H     H_    0.856194 0.499949 0.373861 0.141487
H24   H     H_    0.908738 0.460832 0.693166 0.058173
N1    N     N_2   0.553808 0.575033 0.985898 -0.210029
N2    N     N_2   0.441272 0.586829 0.013169 -0.209488
N3    N     N_R   0.142860 0.499130 0.500540 -0.085676
N4    N     N_R   0.857210 0.499170 0.500530 -0.082087
O1    O     O_R   0.614690 0.316790 0.499990 -0.582750
O2    O     O_3   0.272442 0.122081 0.550423 -0.598641
O3    O     O_R   0.385350 0.316760 0.500000 -0.572328
O4    O     O_R   0.627460 0.498860 0.616130 -0.612691
O5    O     O_R   0.398120 0.498820 0.616130 -0.616029
O6    O     O_R   0.614650 0.683240 0.500000 -0.624099
O7    O     O_R   0.385310 0.683210 0.500010 -0.625194
O8    O     O_R   0.601880 0.501180 0.383870 -0.634857
O9    O     O_R   0.372540 0.501140 0.383870 -0.634044
O10   O     O_3   0.889594 0.301027 0.617796 -0.573815
Zn1   Zn    Zn3+2 0.653130 0.500020 0.499990 0.971817
Zn2   Zn    Zn3+2 0.346870 0.499980 0.500010 0.958905

loop_
_geom_bond_atom_site_label_1
_geom_bond_atom_site_label_2
_ccdc_geom_bond_type
O9    Zn2   S    
C20   H10   S    
O6    Zn1   S    
C15   C17   S    
C6    C7    A    
C7    C32   A    
C17   H4    S    
C28   N2    S    
C27   C29   A    
O5    Zn2   S    
C14   N4    A    
C12   C24   A    
C19   C20   A    
N4    Zn1   S    
C26   H16   S    
N3    Zn2   S    
C1    C2    S    
C15   H24   S    
O1    Zn1   S    
C22   N1    S    
C2    C3    A    
C26   O2    S    
C7    C8    S    
C1    O1    A    
C16   O7    A    
C21   C22   A    
C27   H1    S    
C11   C13   A    
C8    H19   S    
C25   H11   S    
N1    N2    D    
C29   C30   A    
C9    H20   S    
C26   H15   S    
C18   O9    A    
O8    Zn1   S    
C11   N3    A    
C5    C6    A    
C1    O3    A    
C12   C19   A    
C11   H22   S    
C5    H12   S    
C30   H7    S    
C24   H5    S    
C8    H18   S    
C23   H3    S    
C23   C27   A    
C12   H6    S    
C30   C31   A    
C22   C24   A    
C3    O2    S    
C9    H21   S    
C17   H2    S    
C10   C17   S    
C18   O8    A    
C25   H13   S    
C16   O6    A    
O3    Zn2   S    
C2    C32   A    
O7    Zn2   S    
C10   C14   A    
O4    Zn1   S    
C18   C29   S    
C15   O10   S    
C4    O4    A    
C4    O5    A    
C25   O10   S    
C31   H9    S    
C9    C32   S    
C13   H23   S    
C20   C21   A    
C14   C15   S    
C4    C19   S    
C10   N3    A    
C25   H14   S    
C6    C16   S    
C28   C31   A    
C23   C28   A    
C26   H17   S    
C13   N4    A    
C8    C9    S    
C3    C5    A    
C21   H8    S    
