data_mof_unit_60763.cif
_audit_creation_date              2013-03-05T16:40:23-0500
_audit_creation_method            fapswitch 2.2
_symmetry_space_group_name_H-M    P1
_symmetry_Int_Tables_number       1
_space_group_crystal_system       triclinic
_cell_length_a                    19.036442
_cell_length_b                    18.44699
_cell_length_c                    15.873725
_cell_angle_alpha                 89.890405
_cell_angle_beta                  90.039058
_cell_angle_gamma                 89.941837
_cell_volume                      5574.28314371

loop_
_atom_site_label
_atom_site_type_symbol
_atom_site_description
_atom_site_fract_x
_atom_site_fract_y
_atom_site_fract_z
_atom_type_partial_charge
O1    O     O_R   0.398180 0.560840 0.499980 -0.619007
O2    O     O_R   0.601820 0.439160 0.500020 -0.599840
O3    O     O_R   0.601820 0.560840 0.500020 -0.622887
O4    O     O_R   0.398180 0.439160 0.499980 -0.605907
C1    C     C_R   0.365322 0.500053 0.498231 0.860807
C2    C     C_R   0.634675 0.500009 0.498154 0.863043
O5    O     O_R   0.499980 0.560800 0.378020 -0.608006
O6    O     O_R   0.500020 0.439200 0.621980 -0.624838
O7    O     O_R   0.500020 0.560800 0.621980 -0.597620
O8    O     O_R   0.499980 0.439200 0.378020 -0.617101
C3    C     C_R   0.499987 0.500051 0.339283 0.907077
C4    C     C_R   0.500007 0.499933 0.660732 0.915696
Zn1   Zn    Zn3+2 0.500000 0.581210 0.500000 0.989005
Zn2   Zn    Zn3+2 0.500000 0.418790 0.500000 0.989109
C5    C     C_R   0.494391 0.566098 0.955757 -0.058077
C6    C     C_R   0.505288 0.433611 0.044352 -0.055873
C7    C     C_R   0.494421 0.566218 0.043798 -0.058875
C8    C     C_R   0.505229 0.433486 0.956298 -0.055618
C9    C     C_R   0.499811 0.499738 0.912812 0.035819
C10   C     C_R   0.499883 0.499978 0.087277 0.034526
C11   C     C_1   0.499874 0.499677 0.823501 -0.020856
C12   C     C_1   0.499932 0.500097 0.176568 -0.021559
C13   C     C_1   0.499964 0.500131 0.251208 -0.144395
C14   C     C_1   0.499940 0.499767 0.748843 -0.149862
C15   C     C_R   0.737003 0.460613 0.412988 -0.011981
C16   C     C_R   0.245579 0.546688 0.528114 -0.011867
C17   C     C_R   0.263092 0.460572 0.412990 -0.021810
C18   C     C_R   0.754308 0.546792 0.528065 -0.026463
C19   C     C_R   0.807715 0.466447 0.392389 -0.195433
C20   C     C_R   0.174977 0.551836 0.506416 -0.181259
C21   C     C_R   0.192395 0.466498 0.392159 -0.192796
C22   C     C_R   0.824936 0.551851 0.506590 -0.184086
H1    H     H_    0.828572 0.435998 0.339604 0.147535
H2    H     H_    0.140289 0.585586 0.543783 0.147363
H3    H     H_    0.171588 0.435967 0.339412 0.148720
H4    H     H_    0.859520 0.585738 0.543895 0.148392
C23   C     C_R   0.851699 0.511881 0.438868 0.073033
C24   C     C_R   0.148330 0.511993 0.438524 0.072977
C25   C     C_R   0.709882 0.500739 0.481493 -0.121917
C26   C     C_R   0.290124 0.500791 0.481480 -0.119540
C27   C     C_R   0.963450 0.579289 0.422163 -0.169675
C28   C     C_R   0.036486 0.447862 0.413587 -0.161496
C29   C     C_R   0.036373 0.579318 0.421997 -0.166148
C30   C     C_R   0.963666 0.447834 0.413749 -0.160184
H5    H     H_    0.935572 0.630355 0.426734 0.149727
H6    H     H_    0.064044 0.396455 0.413594 0.150837
H7    H     H_    0.064132 0.630404 0.426483 0.151798
H8    H     H_    0.936244 0.396406 0.413842 0.150397
C31   C     C_R   0.073052 0.513412 0.421133 0.111088
C32   C     C_R   0.926951 0.513354 0.421456 0.111589
C33   C     C_R   0.556326 0.726172 0.468498 0.034561
C34   C     C_R   0.519773 0.273818 0.429374 0.038589
C35   C     C_R   0.443712 0.726197 0.531566 0.036093
C36   C     C_R   0.480012 0.273662 0.570565 0.029834
H9    H     H_    0.600572 0.696461 0.443373 0.137591
H10   H     H_    0.535498 0.303411 0.373706 0.156473
H11   H     H_    0.399488 0.696512 0.556688 0.147071
H12   H     H_    0.463976 0.303167 0.626101 0.144314
C37   C     C_R   0.557505 0.802299 0.468237 -0.163104
C38   C     C_R   0.519931 0.197703 0.427989 -0.161052
C39   C     C_R   0.442545 0.802318 0.531865 -0.161770
C40   C     C_R   0.479866 0.197532 0.571983 -0.161523
H13   H     H_    0.602693 0.830546 0.442987 0.159289
H14   H     H_    0.535854 0.169535 0.371323 0.164620
H15   H     H_    0.397365 0.830572 0.557142 0.161525
H16   H     H_    0.463845 0.169221 0.628614 0.163066
C41   C     C_R   0.500021 0.841354 0.500043 0.243261
C42   C     C_R   0.499937 0.158555 0.500007 0.239938
N1    N     N_R   0.500000 0.689440 0.500000 -0.101545
N2    N     N_R   0.500000 0.310560 0.500000 -0.103297
C43   C     C_R   0.452433 0.961606 0.448384 0.199250
C44   C     C_R   0.547304 0.038267 0.551954 0.198937
C45   C     C_R   0.547550 0.961369 0.551667 0.198776
C46   C     C_R   0.452626 0.038504 0.448087 0.199153
C47   C     C_R   0.499951 0.077234 0.500022 -0.235721
C48   C     C_R   0.500005 0.922655 0.500028 -0.236644
C49   C     C_1   0.488881 0.634104 0.089560 0.208404
N3    N     N_1   0.484471 0.688159 0.126076 -0.135401
C50   C     C_1   0.510707 0.365599 0.910531 0.207010
N4    N     N_1   0.515063 0.311547 0.873997 -0.154963
C51   C     C_1   0.488826 0.633865 0.909445 0.217537
N5    N     N_1   0.484394 0.687820 0.872483 -0.134049
C52   C     C_1   0.510901 0.365875 0.090727 0.217584
N6    N     N_1   0.515373 0.311967 0.127777 -0.152702
C53   C     C_1   0.692995 0.415869 0.360086 0.191564
N7    N     N_1   0.657916 0.380117 0.317524 -0.193386
C54   C     C_1   0.270692 0.587440 0.599756 0.166451
N8    N     N_1   0.290801 0.620002 0.657149 -0.186117
C55   C     C_1   0.307160 0.415236 0.360764 0.206894
N9    N     N_1   0.342393 0.378966 0.318937 -0.154937
C56   C     C_1   0.728923 0.588189 0.599071 0.187084
N10   N     N_1   0.708529 0.621320 0.655877 -0.149092
N11   N     N_R   0.403024 0.923147 0.396611 0.243567
O9    O     O_R   0.424348 0.872394 0.345845 -0.348736
O10   O     O_R   0.336454 0.938962 0.399850 -0.308654
N12   N     N_R   0.594961 0.076703 0.606050 0.243937
O11   O     O_R   0.635197 0.127412 0.575752 -0.351717
O12   O     O_R   0.598468 0.060903 0.685866 -0.301557
N13   N     N_R   0.596992 0.922674 0.603435 0.243897
O13   O     O_R   0.575711 0.871771 0.654190 -0.345108
O14   O     O_R   0.663551 0.938404 0.600180 -0.307771
N14   N     N_R   0.404962 0.077183 0.393961 0.243999
O15   O     O_R   0.364733 0.127905 0.424208 -0.353001
O16   O     O_R   0.401480 0.061627 0.314149 -0.301982

loop_
_geom_bond_atom_site_label_1
_geom_bond_atom_site_label_2
_geom_bond_distance
_ccdc_geom_bond_type
C30   H8    1.083281 S    
C54   N8    1.157342 T    
N11   O9    1.301256 A    
C27   C29   1.388207 A    
O3    C2    1.284514 A    
C35   N1    1.363659 A    
C51   N5    1.157368 T    
C5    C51   1.452766 S    
C24   C31   1.459387 S    
C49   N3    1.157363 T    
C42   C47   1.500127 S    
C5    C9    1.406034 A    
O1    C1    1.284892 A    
C22   H4    1.084692 S    
C9    C11   1.417699 S    
C43   C48   1.415573 A    
C19   H1    1.084906 S    
C7    C10   1.405931 A    
C20   C24   1.400710 A    
C45   N13   1.437358 S    
C8    C9    1.406135 A    
C28   H6    1.083280 S    
O7    Zn1   1.971834 S    
C34   C38   1.404309 A    
C37   C41   1.404279 A    
C35   C39   1.404362 A    
C52   N6    1.157387 T    
C16   C54   1.445756 S    
N12   O12   1.301191 A    
C8    C50   1.452670 S    
O3    Zn1   1.974002 S    
C6    C10   1.405965 A    
C46   N14   1.437318 S    
N11   O10   1.301180 A    
Zn2   N2    1.996516 S    
O2    C2    1.285831 A    
C28   C30   1.386244 A    
C44   C47   1.415727 A    
C15   C53   1.446166 S    
C15   C19   1.389682 A    
C46   C47   1.415711 A    
C40   H16   1.082957 S    
C17   C21   1.389784 A    
C18   C22   1.390465 A    
O8    Zn2   1.971835 S    
C56   N10   1.157350 T    
C20   H2    1.084719 S    
C29   C31   1.401478 A    
C36   C40   1.404518 A    
C18   C25   1.409424 A    
C53   N7    1.157303 T    
C6    C52   1.452852 S    
O5    C3    1.279272 A    
C39   C41   1.404200 A    
N13   O13   1.301264 A    
C36   N2    1.364158 A    
O5    Zn1   1.973249 S    
C17   C26   1.414318 A    
O6    C4    1.279145 A    
N12   O11   1.301241 A    
C7    C49   1.452703 S    
C22   C23   1.400657 A    
N14   O16   1.301192 A    
N13   O14   1.301173 A    
C10   C12   1.417388 S    
C16   C20   1.390330 A    
C45   C48   1.415519 A    
C21   H3    1.084865 S    
C11   C14   1.185097 T    
C33   C37   1.404498 A    
C27   C32   1.401441 A    
C36   H12   1.080942 S    
C30   C32   1.401163 A    
C5    C7    1.397541 A    
O6    Zn2   1.973248 S    
C2    C25   1.456141 S    
C44   C45   1.418541 A    
C35   H11   1.080829 S    
C43   C46   1.418550 A    
C43   N11   1.437332 S    
C4    C14   1.398653 S    
C37   H13   1.082925 S    
C21   C24   1.396941 A    
C40   C42   1.404097 A    
C38   H14   1.082965 S    
C15   C25   1.414229 A    
C23   C32   1.459405 S    
C16   C26   1.409141 A    
Zn1   N1    1.996516 S    
C3    C13   1.398082 S    
C17   C55   1.446589 S    
C18   C56   1.445815 S    
C33   H9    1.081317 S    
O4    Zn2   1.974003 S    
N14   O15   1.301250 A    
O2    Zn2   1.974751 S    
O7    C4    1.279235 A    
C34   N2    1.364156 A    
O8    C3    1.278877 A    
C28   C31   1.401138 A    
C50   N4    1.157378 T    
C44   N12   1.437255 S    
C39   H15   1.082936 S    
O4    C1    1.285386 A    
O1    Zn1   1.974753 S    
C38   C42   1.404017 A    
C6    C8    1.397751 A    
C1    C26   1.455865 S    
C19   C23   1.396721 A    
C27   H5    1.083323 S    
C12   C13   1.184811 T    
C41   C48   1.499758 S    
C33   N1    1.363760 A    
C55   N9    1.157468 T    
C29   H7    1.083330 S    
C34   H10   1.080419 S    
