data_mof_unit_32592.cif
_audit_creation_date              2012-12-10T18:08:19-0500
_audit_creation_method            fapswitch 2.2
_symmetry_space_group_name_H-M    P1
_symmetry_Int_Tables_number       1
_space_group_crystal_system       triclinic
_cell_length_a                    12.595202
_cell_length_b                    13.12756
_cell_length_c                    14.156772
_cell_angle_alpha                 90.651754
_cell_angle_beta                  101.466057
_cell_angle_gamma                 84.150813
_cell_volume                      2281.98773926

loop_
_atom_site_label
_atom_site_type_symbol
_atom_type_description
_atom_site_fract_x
_atom_site_fract_y
_atom_site_fract_z
_atom_type_partial_charge
C1    C     C_R   0.440814 0.690435 0.480376 0.881719
C2    C     C_R   0.535715 0.035539 0.443202 0.045534
C3    C     C_R   0.646044 0.994170 0.456647 0.051467
C4    C     C_R   0.500843 0.499867 0.670682 0.918883
C5    C     C_R   0.667856 0.894413 0.422725 -0.018452
C6    C     C_R   0.585994 0.828337 0.413100 -0.225182
C7    C     C_R   0.513668 0.139793 0.454577 -0.263300
C8    C     C_R   0.701732 0.154151 0.532628 -0.070209
C9    C     C_R   0.406000 0.796745 0.448343 -0.106120
C10   C     C_R   0.094679 0.333152 0.375788 0.049200
C11   C     C_R   0.807494 0.619731 0.620274 0.268522
C12   C     C_1   0.498945 0.497919 0.227696 -0.193313
C13   C     C_R   0.916428 0.624602 0.660424 -0.283060
C14   C     C_R   0.996214 0.568578 0.621926 0.114132
C15   C     C_R   0.965823 0.514255 0.535120 -0.048777
C16   C     C_R   0.559779 0.308387 0.508497 0.855679
C17   C     C_R   0.854234 0.500911 0.503352 0.152836
C18   C     C_R   0.041668 0.467941 0.482466 -0.048950
C19   C     C_R   0.011153 0.392188 0.412033 0.062166
C20   C     C_R   0.899403 0.379230 0.382039 -0.069829
C21   C     C_R   0.824305 0.431175 0.430143 -0.221737
C22   C     C_R   0.146067 0.499655 0.493278 -0.028210
C23   C     C_R   0.729301 0.051329 0.507702 -0.056732
C24   C     C_R   0.200063 0.361573 0.399227 -0.014837
C25   C     C_R   0.499498 0.499352 0.329359 0.859547
C26   C     C_1   0.502695 0.499120 0.772559 -0.164375
C27   C     C_1   0.503180 0.498232 0.857930 0.016759
C28   C     C_1   0.502675 0.497286 0.957805 0.018784
C29   C     C_1   0.501582 0.496895 0.042900 0.018090
C30   C     C_1   0.499935 0.497127 0.142575 0.003102
C31   C     C_R   0.780552 0.209655 0.601791 0.151775
C32   C     C_R   0.878941 0.232901 0.578950 -0.135561
C33   C     C_R   0.952029 0.284972 0.644681 -0.109805
C34   C     C_R   0.594011 0.199315 0.499371 -0.123039
C35   C     C_R   0.926669 0.315974 0.732971 -0.093041
C36   C     C_R   0.828793 0.293636 0.756263 -0.126885
C37   C     C_R   0.756247 0.240180 0.691299 -0.124544
C38   C     C_R   0.853154 0.329714 0.290470 0.164456
C39   C     C_R   0.782724 0.252941 0.289436 -0.161798
C40   C     C_R   0.731920 0.213155 0.201941 -0.129111
C41   C     C_R   0.750505 0.249774 0.114977 -0.095913
C42   C     C_R   0.819338 0.326820 0.115242 -0.116721
C43   C     C_R   0.869852 0.367324 0.202502 -0.093720
C44   C     C_R   0.768080 0.864229 0.384467 0.126502
C45   C     C_R   0.295879 0.833880 0.439354 -0.208307
C46   C     C_R   0.830721 0.770719 0.410615 -0.119778
C47   C     C_R   0.926378 0.744606 0.375994 -0.134315
C48   C     C_R   0.959553 0.811250 0.313899 -0.121776
C49   C     C_R   0.896425 0.903578 0.285474 -0.126260
C50   C     C_R   0.800808 0.929768 0.320083 -0.162713
C51   C     C_R   0.834027 0.996627 0.558090 0.121495
C52   C     C_R   0.836702 0.943456 0.644082 -0.116321
C53   C     C_R   0.934302 0.893026 0.694240 -0.129997
C54   C     C_R   0.029859 0.894944 0.658714 -0.098674
C55   C     C_R   0.028163 0.948680 0.573755 -0.116405
C56   C     C_R   0.262528 0.936616 0.419498 -0.137839
C57   C     C_R   0.930789 0.999830 0.523606 -0.140019
C58   C     C_R   0.339334 0.004962 0.417415 -0.149852
C59   C     C_R   0.451318 0.969820 0.427248 0.091620
C60   C     C_R   0.481652 0.863464 0.430212 0.077559
H1    H     H_    0.167643 0.568881 0.530592 0.163363
H2    H     H_    0.898687 0.211901 0.510026 0.132138
H3    H     H_    0.027871 0.302261 0.626696 0.160676
H4    H     H_    0.982829 0.357320 0.783279 0.157462
H5    H     H_    0.809192 0.317567 0.824736 0.128471
H6    H     H_    0.680848 0.223000 0.710417 0.112007
H7    H     H_    0.766351 0.224710 0.356069 0.126050
H8    H     H_    0.677203 0.154661 0.201422 0.128540
H9    H     H_    0.710859 0.219042 0.047327 0.126966
H10   H     H_    0.832758 0.355831 0.047768 0.129529
H11   H     H_    0.921261 0.428478 0.201624 0.132607
H12   H     H_    0.938965 0.667753 0.725630 0.187885
H13   H     H_    0.806089 0.719218 0.458630 0.138922
H14   H     H_    0.974982 0.672898 0.397345 0.135476
H15   H     H_    0.033926 0.791198 0.287598 0.136953
H16   H     H_    0.921824 0.955164 0.237108 0.163484
H17   H     H_    0.753068 0.001780 0.297879 0.128549
H18   H     H_    0.763217 0.942119 0.672626 0.156045
H19   H     H_    0.935874 0.852813 0.760868 0.148407
H20   H     H_    0.105368 0.855532 0.697426 0.150978
H21   H     H_    0.102583 0.951154 0.547370 0.135522
H22   H     H_    0.930867 0.041564 0.458142 0.143824
H23   H     H_    0.742076 0.415141 0.408220 0.212712
H24   H     H_    0.432558 0.176034 0.430491 0.165622
H25   H     H_    0.235350 0.783803 0.448540 0.160781
H26   H     H_    0.308082 0.084334 0.408690 0.153704
H27   H     H_    0.177208 0.964386 0.410225 0.163182
H28   H     H_    0.602806 0.751202 0.388365 0.172411
H29   H     H_    0.265373 0.317254 0.373171 0.153395
I1    I     I_    0.080156 0.190213 0.303711 -0.501339
I2    I     I_    0.699225 0.712900 0.690075 -0.385922
I3    I     I_    0.150450 0.549014 0.719266 -0.438839
N1    N     N_R   0.222200 0.444680 0.454480 -0.110937
N2    N     N_R   0.776970 0.554780 0.545050 -0.140988
O1    O     O_R   0.366740 0.627160 0.478260 -0.615395
O2    O     O_R   0.544830 0.662520 0.507340 -0.586897
O3    O     O_R   0.410930 0.482320 0.611740 -0.570330
O4    O     O_R   0.589030 0.517680 0.640820 -0.566138
O5    O     O_R   0.455170 0.337480 0.492660 -0.617833
O6    O     O_R   0.633260 0.372840 0.521740 -0.613580
O7    O     O_R   0.410970 0.482320 0.359180 -0.593178
O8    O     O_R   0.589070 0.517680 0.388260 -0.632612
Zn1   Zn    Zn3+2 0.381090 0.476390 0.480580 0.952531
Zn2   Zn    Zn3+2 0.618910 0.523610 0.519420 0.951439

loop_
_geom_bond_atom_site_label_1
_geom_bond_atom_site_label_2
_ccdc_geom_bond_type
C15   C18   A    
O5    Zn1   S    
C9    C45   A    
C4    O4    A    
C41   C42   A    
C3    C23   A    
C35   C36   A    
C42   H10   S    
C24   H29   S    
N1    Zn1   S    
C53   C54   A    
C26   C27   T    
C28   C29   T    
C53   H19   S    
C38   C39   A    
C25   O8    A    
O6    Zn2   S    
C8    C23   A    
C6    H28   S    
C18   C19   A    
C2    C7    A    
C16   C34   S    
C46   C47   A    
C21   H23   S    
C45   C56   A    
C44   C46   A    
C35   H4    S    
C51   C57   A    
C55   H21   S    
C33   H3    S    
C7    H24   S    
N2    Zn2   S    
C59   C60   A    
O7    Zn1   S    
C13   C14   A    
C48   H15   S    
C52   H18   S    
C58   H26   S    
O1    Zn1   S    
C54   H20   S    
C51   C52   A    
C6    C60   A    
C1    C9    S    
C39   C40   A    
C2    C59   A    
C16   O6    A    
C56   H27   S    
C10   C24   A    
C58   C59   A    
C17   C21   A    
C31   C37   A    
C45   H25   S    
C29   C30   S    
C20   C38   S    
C23   C51   S    
C47   C48   A    
C14   C15   A    
C10   C19   A    
C1    O1    A    
C37   H6    S    
C49   H16   S    
C8    C34   A    
O8    Zn2   S    
C14   I3    S    
O3    Zn1   S    
C11   N2    A    
C48   C49   A    
C5    C44   S    
C55   C57   A    
C22   N1    A    
C42   C43   A    
C50   H17   S    
C52   C53   A    
C41   H9    S    
C7    C34   A    
C44   C50   A    
C15   C17   A    
C54   C55   A    
C40   C41   A    
C43   H11   S    
C12   C30   T    
C18   C22   A    
C8    C31   S    
C39   H7    S    
C31   C32   A    
C47   H14   S    
C3    C5    A    
C4    C26   S    
C16   O5    A    
C13   H12   S    
C12   C25   S    
C9    C60   A    
C32   C33   A    
C36   H5    S    
C19   C20   A    
O2    Zn2   S    
C2    C3    A    
C32   H2    S    
C38   C43   A    
C24   N1    A    
C22   H1    S    
C11   C13   A    
C25   O7    A    
C5    C6    A    
C1    O2    A    
O4    Zn2   S    
C33   C35   A    
C56   C58   A    
C11   I2    S    
C20   C21   A    
C10   I1    S    
C36   C37   A    
C49   C50   A    
C40   H8    S    
C27   C28   S    
C57   H22   S    
C17   N2    A    
C4    O3    A    
C46   H13   S    
