data_mof_unit_65738.cif
_audit_creation_date              2013-03-05T16:16:25-0500
_audit_creation_method            fapswitch 2.2
_symmetry_space_group_name_H-M    P1
_symmetry_Int_Tables_number       1
_space_group_crystal_system       triclinic
_cell_length_a                    44.512232
_cell_length_b                    39.032162
_cell_length_c                    21.384478
_cell_angle_alpha                 90.00113
_cell_angle_beta                  61.323924
_cell_angle_gamma                 90.011542
_cell_volume                      32596.5639412

loop_
_atom_site_label
_atom_site_type_symbol
_atom_site_description
_atom_site_fract_x
_atom_site_fract_y
_atom_site_fract_z
_atom_type_partial_charge
O1    O     O_R   0.049900 0.528880 0.450120 -0.584110
O2    O     O_R   0.950100 0.528880 0.549880 -0.583434
O3    O     O_R   0.549900 0.028880 0.450120 -0.583292
O4    O     O_R   0.450100 0.028880 0.549880 -0.584356
O5    O     O_R   0.049890 0.471100 0.450130 -0.590172
O6    O     O_R   0.950110 0.471100 0.549870 -0.589549
O7    O     O_R   0.549890 0.971100 0.450130 -0.589314
O8    O     O_R   0.450110 0.971100 0.549870 -0.590322
C1    C     C_R   0.066235 0.500008 0.434009 0.806957
C2    C     C_R   0.933765 0.500002 0.565991 0.806896
C3    C     C_R   0.566235 0.000008 0.434009 0.806865
C4    C     C_R   0.433765 0.000002 0.565993 0.806978
O9    O     O_R   0.999990 0.528880 0.591580 -0.585949
O10   O     O_R   0.000010 0.528880 0.408420 -0.586004
O11   O     O_R   0.499990 0.028880 0.591580 -0.585867
O12   O     O_R   0.500010 0.028880 0.408420 -0.585717
O13   O     O_R   0.999970 0.471100 0.591590 -0.585893
O14   O     O_R   0.000030 0.471100 0.408410 -0.585835
O15   O     O_R   0.499970 0.971100 0.591590 -0.585938
O16   O     O_R   0.500030 0.971100 0.408410 -0.586117
C5    C     C_R   0.000010 0.500010 0.620504 0.787233
C6    C     C_R   0.000050 0.500010 0.379436 0.787223
C7    C     C_R   0.499935 0.000009 0.620579 0.787226
C8    C     C_R   0.499970 0.000007 0.379517 0.787207
Cu1   Cu    Cu3+1 1.000000 0.534200 0.500000 0.970562
Cu2   Cu    Cu3+1 0.500000 0.034200 0.500000 0.970722
Cu3   Cu    Cu3+1 1.000000 0.465780 0.500000 0.954784
Cu4   Cu    Cu3+1 0.500000 0.965780 0.500000 0.954615
C9    C     C_3   0.026000 0.480635 0.703366 -0.149726
C10   C     C_3   0.970506 0.486697 0.300158 -0.145942
C11   C     C_3   0.530203 0.988459 0.699118 -0.145086
C12   C     C_3   0.475517 0.978694 0.295110 -0.151226
C13   C     C_3   0.996100 0.467925 0.774690 -0.144886
C14   C     C_3   0.996916 0.467843 0.232280 -0.144793
C15   C     C_3   0.504955 0.968076 0.765840 -0.145111
C16   C     C_3   0.506304 0.968298 0.222918 -0.145376
H1    H     H_    0.992890 0.441528 0.796316 0.131142
H2    H     H_    0.994347 0.441376 0.216424 0.131108
H3    H     H_    0.509073 0.941805 0.780142 0.131378
H4    H     H_    0.511505 0.942220 0.199312 0.131519
H5    H     H_    0.047264 0.464638 0.663850 0.137538
H6    H     H_    0.946297 0.475676 0.342673 0.134144
H7    H     H_    0.555015 0.978892 0.655986 0.133487
H8    H     H_    0.455522 0.961121 0.333333 0.138948
C17   C     C_3   0.000026 0.500205 0.810986 0.013613
C18   C     C_3   0.000056 0.500209 0.188931 0.013766
C19   C     C_3   0.499923 0.000197 0.811088 0.013827
C20   C     C_3   0.499948 0.000182 0.189043 0.013644
C21   C     C_3   0.029922 0.512907 0.740767 -0.159977
C22   C     C_3   0.973643 0.519079 0.255679 -0.156656
C23   C     C_3   0.525174 0.020602 0.745502 -0.155568
C24   C     C_3   0.469168 0.010567 0.260142 -0.160820
C25   C     C_3   0.003957 0.532413 0.725353 -0.159453
C26   C     C_3   0.003207 0.532502 0.267494 -0.159239
C27   C     C_3   0.494875 0.032251 0.734424 -0.158966
C28   C     C_3   0.493579 0.032003 0.277112 -0.159251
C29   C     C_3   0.974080 0.519712 0.796544 -0.156083
C30   C     C_3   0.029634 0.513635 0.199740 -0.159264
C31   C     C_3   0.469601 0.011847 0.801026 -0.159946
C32   C     C_3   0.524331 0.021617 0.205045 -0.154831
C33   C     C_3   0.970157 0.487414 0.759110 -0.147287
C34   C     C_3   0.026499 0.481274 0.244189 -0.151156
C35   C     C_3   0.474626 0.979735 0.754691 -0.152265
C36   C     C_3   0.530687 0.989710 0.240064 -0.146120
C37   C     C_3   0.000040 0.500116 0.688959 0.016277
C38   C     C_3   0.000075 0.500118 0.310926 0.016040
C39   C     C_3   0.499896 0.000111 0.689102 0.015931
C40   C     C_3   0.499924 0.000101 0.311081 0.016324
H9    H     H_    0.054420 0.523398 0.734386 0.147853
H10   H     H_    0.951998 0.534591 0.259124 0.143539
H11   H     H_    0.545872 0.037361 0.743026 0.142223
H12   H     H_    0.443940 0.019160 0.267284 0.148993
H13   H     H_    0.007202 0.558888 0.704085 0.152654
H14   H     H_    0.005803 0.559048 0.282926 0.152791
H15   H     H_    0.490716 0.058594 0.720543 0.152536
H16   H     H_    0.488327 0.058147 0.300403 0.152177
H17   H     H_    0.952818 0.535741 0.835971 0.144328
H18   H     H_    0.053868 0.524714 0.157430 0.147817
H19   H     H_    0.444755 0.021476 0.843924 0.148585
H20   H     H_    0.544319 0.039212 0.166867 0.142893
H21   H     H_    0.945687 0.476985 0.765218 0.132840
H22   H     H_    0.048144 0.465797 0.240845 0.136498
H23   H     H_    0.453923 0.963004 0.757110 0.137698
H24   H     H_    0.555873 0.981179 0.233258 0.131900
C41   C     C_R   0.377716 0.498064 0.065709 -0.169968
C42   C     C_R   0.622279 0.497984 0.934294 -0.169943
C43   C     C_R   0.877717 0.998043 0.065711 -0.169938
C44   C     C_R   0.122278 0.997924 0.934291 -0.169981
H25   H     H_    0.390991 0.497146 0.008025 0.157982
H26   H     H_    0.609003 0.497020 0.991976 0.157990
H27   H     H_    0.890991 0.997108 0.008027 0.157998
H28   H     H_    0.109000 0.996912 0.991969 0.157957
C45   C     C_R   0.341980 0.497584 0.101564 -0.164857
C46   C     C_R   0.658015 0.497490 0.898443 -0.164819
C47   C     C_R   0.841981 0.997563 0.101566 -0.164803
C48   C     C_R   0.158013 0.997428 0.898440 -0.164876
H29   H     H_    0.328552 0.496023 0.070765 0.130652
H30   H     H_    0.671440 0.495873 0.929242 0.130678
H31   H     H_    0.828552 0.995984 0.070768 0.130696
H32   H     H_    0.171437 0.995763 0.929236 0.130619
C49   C     C_R   0.323819 0.498587 0.176369 0.106907
C50   C     C_R   0.676180 0.498549 0.823641 0.106894
C51   C     C_R   0.823819 0.998586 0.176370 0.106889
C52   C     C_R   0.176179 0.998547 0.823642 0.106921
C53   C     C_R   0.342101 0.500058 0.214604 -0.151935
C54   C     C_R   0.657901 0.500089 0.785405 -0.151877
C55   C     C_R   0.842101 0.000078 0.214603 -0.151884
C56   C     C_R   0.157901 0.000148 0.785410 -0.151924
H33   H     H_    0.328767 0.501363 0.272259 0.137599
H34   H     H_    0.671238 0.501440 0.727755 0.137631
H35   H     H_    0.828767 0.001400 0.272256 0.137641
H36   H     H_    0.171238 0.001546 0.727765 0.137583
C57   C     C_R   0.377820 0.500504 0.178792 -0.177133
C58   C     C_R   0.622182 0.500547 0.821214 -0.177105
C59   C     C_R   0.877820 0.000524 0.178791 -0.177097
C60   C     C_R   0.122182 0.000606 0.821218 -0.177133
H37   H     H_    0.391160 0.501748 0.209804 0.158636
H38   H     H_    0.608845 0.501846 0.790203 0.158654
H39   H     H_    0.891160 0.001785 0.209801 0.158658
H40   H     H_    0.108846 0.001953 0.790211 0.158638
C61   C     C_R   0.395998 0.499531 0.103974 -0.036802
C62   C     C_R   0.604001 0.499519 0.896029 -0.036816
C63   C     C_R   0.895999 0.999531 0.103974 -0.036823
C64   C     C_R   0.104000 0.999519 0.896029 -0.036788
C65   C     C_R   0.267522 0.517965 0.189095 -0.160771
C66   C     C_R   0.732486 0.517859 0.810999 -0.160676
C67   C     C_R   0.767522 0.017946 0.189070 -0.160690
C68   C     C_R   0.232486 0.017801 0.811084 -0.160742
H41   H     H_    0.280752 0.533376 0.141397 0.137498
H42   H     H_    0.719265 0.533227 0.858755 0.137525
H43   H     H_    0.780752 0.033343 0.141351 0.137546
H44   H     H_    0.219264 0.033127 0.858903 0.137472
C69   C     C_R   0.231807 0.518437 0.226005 -0.091537
C70   C     C_R   0.768201 0.518329 0.774094 -0.091489
C71   C     C_R   0.731808 0.018418 0.225979 -0.091468
C72   C     C_R   0.268201 0.018272 0.774184 -0.091559
H45   H     H_    0.218085 0.533721 0.205662 0.142706
H46   H     H_    0.781931 0.533569 0.794496 0.142760
H47   H     H_    0.718085 0.033689 0.205615 0.142781
H48   H     H_    0.281930 0.033469 0.794651 0.142683
C73   C     C_R   0.213915 0.499576 0.289156 0.138574
C74   C     C_R   0.786085 0.499527 0.710869 0.138495
C75   C     C_R   0.713915 0.999576 0.289155 0.138518
C76   C     C_R   0.286084 0.999527 0.710881 0.138550
C77   C     C_R   0.232151 0.479535 0.313957 -0.148801
C78   C     C_R   0.767839 0.479542 0.685990 -0.148698
C79   C     C_R   0.732151 0.979552 0.313982 -0.148701
C80   C     C_R   0.267840 0.979596 0.685917 -0.148803
H49   H     H_    0.218716 0.464629 0.362363 0.136719
H50   H     H_    0.781268 0.464682 0.637524 0.136774
H51   H     H_    0.718715 0.964661 0.362408 0.136792
H52   H     H_    0.281269 0.964780 0.637389 0.136691
C81   C     C_R   0.267871 0.479015 0.277041 -0.173389
C82   C     C_R   0.732120 0.479023 0.722902 -0.173313
C83   C     C_R   0.767870 0.979032 0.277068 -0.173312
C84   C     C_R   0.232120 0.979076 0.722825 -0.173396
H53   H     H_    0.281379 0.463293 0.297187 0.131715
H54   H     H_    0.718603 0.463346 0.702693 0.131747
H55   H     H_    0.781379 0.963323 0.297235 0.131759
H56   H     H_    0.218605 0.963441 0.702549 0.131690
C85   C     C_R   0.285921 0.498415 0.214499 0.090651
C86   C     C_R   0.714078 0.498368 0.785518 0.090624
C87   C     C_R   0.785921 0.998414 0.214499 0.090609
C88   C     C_R   0.214077 0.998366 0.785520 0.090674
C89   C     C_R   0.158085 0.469586 0.342428 -0.222689
C90   C     C_R   0.841911 0.469547 0.657459 -0.222599
C91   C     C_R   0.658085 0.969585 0.342467 -0.222608
C92   C     C_R   0.341911 0.969546 0.657352 -0.222721
H57   H     H_    0.171710 0.445475 0.325516 0.152523
H58   H     H_    0.828282 0.445428 0.674274 0.152622
H59   H     H_    0.671710 0.945472 0.325587 0.152643
H60   H     H_    0.328283 0.945423 0.674071 0.152494
C93   C     C_R   0.122421 0.469352 0.376439 -0.175899
C94   C     C_R   0.877576 0.469323 0.623442 -0.175895
C95   C     C_R   0.622420 0.969351 0.376478 -0.175754
C96   C     C_R   0.377576 0.969320 0.623333 -0.175815
H61   H     H_    0.109274 0.445007 0.385856 0.164492
H62   H     H_    0.890720 0.444977 0.613922 0.164846
H63   H     H_    0.609273 0.945004 0.385929 0.164946
H64   H     H_    0.390721 0.944971 0.613712 0.164401
C97   C     C_R   0.104034 0.500166 0.397417 -0.097852
C98   C     C_R   0.895966 0.500147 0.602587 -0.098725
C99   C     C_R   0.604034 0.000166 0.397416 -0.098985
C100  C     C_R   0.395965 0.000147 0.602595 -0.097635
C101  C     C_R   0.121990 0.531237 0.384333 -0.239092
C102  C     C_R   0.878012 0.531217 0.615798 -0.238836
C103  C     C_R   0.621991 0.031239 0.384291 -0.238896
C104  C     C_R   0.378011 0.031223 0.615932 -0.239256
H65   H     H_    0.108041 0.555145 0.401593 0.194778
H66   H     H_    0.891963 0.555134 0.598638 0.195060
H67   H     H_    0.608042 0.055148 0.401518 0.195128
H68   H     H_    0.391961 0.055145 0.598868 0.194731
C105  C     C_R   0.157887 0.531835 0.351189 0.349832
C106  C     C_R   0.842117 0.531808 0.648954 0.349786
C107  C     C_R   0.657887 0.031838 0.351144 0.349792
C108  C     C_R   0.342115 0.031816 0.649096 0.349847
C109  C     C_R   0.176154 0.500563 0.328931 -0.023387
C110  C     C_R   0.823846 0.500525 0.671087 -0.023433
C111  C     C_R   0.676154 0.000564 0.328928 -0.023454
C112  C     C_R   0.323845 0.000529 0.671105 -0.023379
O17   O     O_R   0.971100 0.450110 0.028870 -0.587775
O18   O     O_R   0.028900 0.450110 0.971130 -0.587403
O19   O     O_R   0.471100 0.950110 0.028870 -0.587390
O20   O     O_R   0.528900 0.950110 0.971130 -0.587967
C113  C     C_R   0.999997 0.433790 0.000004 0.784934
C114  C     C_R   0.499997 0.933790 0.000004 0.784933
O21   O     O_R   0.971110 0.500030 0.937300 -0.585170
O22   O     O_R   0.028890 0.500030 0.062700 -0.586451
O23   O     O_R   0.471110 0.000030 0.937300 -0.586778
O24   O     O_R   0.528890 0.000030 0.062700 -0.584771
O25   O     O_R   0.028880 0.500040 0.879560 -0.588120
O26   O     O_R   0.971120 0.500040 0.120440 -0.586815
O27   O     O_R   0.528880 0.000040 0.879560 -0.586481
O28   O     O_R   0.471120 0.000040 0.120440 -0.588557
C115  C     C_R   0.999997 0.500141 0.879490 0.788481
C116  C     C_R   0.000016 0.500144 0.120496 0.788497
C117  C     C_R   0.499981 0.000136 0.879507 0.788520
C118  C     C_R   0.499998 0.000126 0.120515 0.788469
Cu5   Cu    Cu3+1 0.965780 0.500020 0.034200 0.951242
Cu6   Cu    Cu3+1 0.034220 0.500020 0.965800 0.950028
Cu7   Cu    Cu3+1 0.465780 0.000020 0.034200 0.949675
Cu8   Cu    Cu3+1 0.534220 0.000020 0.965800 0.951594
O29   O     O_R   0.971110 0.549940 0.028880 -0.586249
O30   O     O_R   0.028890 0.549940 0.971120 -0.585905
O31   O     O_R   0.471110 0.049940 0.028880 -0.585704
O32   O     O_R   0.528890 0.049940 0.971120 -0.586259
C119  C     C_R   0.000003 0.566210 0.999999 0.780850
C120  C     C_R   0.500003 0.066210 0.999996 0.780857
O33   O     O_R   0.499970 0.450010 0.052910 -0.585195
O34   O     O_R   0.500030 0.450010 0.947090 -0.585187
O35   O     O_R   0.999970 0.950010 0.052910 -0.585207
O36   O     O_R   0.000030 0.950010 0.947090 -0.585180
C121  C     C_R   0.500001 0.433761 0.999998 0.782127
C122  C     C_R   0.000000 0.933761 0.999999 0.782123
O37   O     O_R   0.450080 0.499920 0.102890 -0.587441
O38   O     O_R   0.549920 0.499920 0.897110 -0.587436
O39   O     O_R   0.950080 0.999920 0.102890 -0.587434
O40   O     O_R   0.049920 0.999920 0.897110 -0.587449
O41   O     O_R   0.450090 0.499990 0.996890 -0.585679
O42   O     O_R   0.549910 0.499990 0.003110 -0.585664
O43   O     O_R   0.950090 0.999990 0.996890 -0.585667
O44   O     O_R   0.049910 0.999990 0.003110 -0.585668
C123  C     C_R   0.433796 0.499879 0.066161 0.787184
C124  C     C_R   0.566204 0.499877 0.933840 0.787205
C125  C     C_R   0.933796 0.999879 0.066161 0.787204
C126  C     C_R   0.066204 0.999877 0.933840 0.787186
Cu9   Cu    Cu3+1 0.499990 0.499910 0.062770 0.966895
Cu10  Cu    Cu3+1 0.500010 0.499910 0.937230 0.966888
Cu11  Cu    Cu3+1 0.999990 0.999910 0.062770 0.966892
Cu12  Cu    Cu3+1 0.000010 0.999910 0.937230 0.966884
O45   O     O_R   0.500000 0.549830 0.053110 -0.581709
O46   O     O_R   0.500000 0.549830 0.946890 -0.581724
O47   O     O_R   0.000000 0.049830 0.053110 -0.581702
O48   O     O_R   1.000000 0.049830 0.946890 -0.581730
C127  C     C_R   0.499999 0.566105 0.000001 0.843264
C128  C     C_R   0.999999 0.066105 0.000002 0.843265
C129  C     C_R   0.503900 0.622059 0.052181 -0.227728
C130  C     C_R   0.496084 0.622054 0.947836 -0.227743
C131  C     C_R   0.003897 0.122059 0.052184 -0.227720
C132  C     C_R   0.996082 0.122054 0.947837 -0.227741
H69   H     H_    0.507448 0.608261 0.092097 0.202289
H70   H     H_    0.492539 0.608253 0.907917 0.202286
H71   H     H_    0.007446 0.108261 0.092100 0.202288
H72   H     H_    0.992538 0.108252 0.907917 0.202290
C133  C     C_R   0.504527 0.657935 0.052235 0.315262
C134  C     C_R   0.495446 0.657930 0.947792 0.315257
C135  C     C_R   0.004523 0.157936 0.052238 0.315263
C136  C     C_R   0.995443 0.157930 0.947794 0.315254
C137  C     C_R   0.499984 0.676149 0.000016 -0.169605
C138  C     C_R   0.999980 0.176149 0.000018 -0.169602
C139  C     C_R   0.499995 0.603928 0.000006 -0.162890
C140  C     C_R   0.999993 0.103928 0.000007 -0.162891
C141  C     C_R   0.525703 0.731953 0.942611 -0.061552
C142  C     C_R   0.474260 0.731942 0.057420 -0.061587
C143  C     C_R   0.025698 0.231953 0.942612 -0.061595
C144  C     C_R   0.974255 0.231943 0.057422 -0.061534
H73   H     H_    0.545701 0.718296 0.897925 0.140853
H74   H     H_    0.454263 0.718277 0.102105 0.140828
H75   H     H_    0.045696 0.218296 0.897927 0.140832
H76   H     H_    0.954259 0.218277 0.102107 0.140860
C145  C     C_R   0.025674 0.267686 0.942517 -0.163444
C146  C     C_R   0.974279 0.267676 0.057515 -0.163438
C147  C     C_R   0.525679 0.767686 0.942516 -0.163456
C148  C     C_R   0.474283 0.767675 0.057514 -0.163448
H77   H     H_    0.045513 0.281052 0.897085 0.134344
H78   H     H_    0.954441 0.281034 0.102947 0.134352
H79   H     H_    0.545517 0.781052 0.897084 0.134344
H80   H     H_    0.454445 0.781033 0.102946 0.134334
C149  C     C_R   0.999977 0.285914 0.000016 0.085785
C150  C     C_R   0.499981 0.785914 0.000016 0.085785
C151  C     C_R   0.499982 0.713933 0.000016 0.194550
C152  C     C_R   0.999978 0.213933 0.000018 0.194541
C153  C     C_R   0.030811 0.342057 0.975357 -0.156595
C154  C     C_R   0.969154 0.342052 0.024679 -0.156507
C155  C     C_R   0.530814 0.842058 0.975358 -0.156503
C156  C     C_R   0.469157 0.842051 0.024678 -0.156616
H81   H     H_    0.054901 0.328687 0.957010 0.136328
H82   H     H_    0.945060 0.328677 0.043028 0.136381
H83   H     H_    0.554905 0.828689 0.957012 0.136382
H84   H     H_    0.445064 0.828675 0.043027 0.136296
C157  C     C_R   0.030827 0.377795 0.975226 -0.180952
C158  C     C_R   0.969147 0.377790 0.024804 -0.181918
C159  C     C_R   0.530829 0.877796 0.975227 -0.182188
C160  C     C_R   0.469149 0.877789 0.024803 -0.180725
H85   H     H_    0.054991 0.391128 0.956120 0.156458
H86   H     H_    0.944987 0.391119 0.043906 0.156497
H87   H     H_    0.554992 0.891130 0.956122 0.156467
H88   H     H_    0.444989 0.891118 0.043906 0.156383
C161  C     C_R   0.999990 0.396010 0.000012 -0.039101
C162  C     C_R   0.499991 0.896010 0.000012 -0.038959
C163  C     C_R   0.999980 0.323823 0.000018 0.111737
C164  C     C_R   0.499984 0.823823 0.000018 0.111754
C165  C     C_R   0.514744 0.377929 0.935357 -0.180173
C166  C     C_R   0.485273 0.377918 0.064620 -0.180193
C167  C     C_R   0.014738 0.877927 0.935363 -0.180188
C168  C     C_R   0.985270 0.877919 0.064627 -0.180190
H89   H     H_    0.526395 0.391408 0.884892 0.149097
H90   H     H_    0.473618 0.391389 0.115090 0.149077
H91   H     H_    0.026389 0.891405 0.884896 0.149088
H92   H     H_    0.973617 0.891392 0.115095 0.149090
C169  C     C_R   0.515122 0.342159 0.935379 -0.160965
C170  C     C_R   0.484904 0.342148 0.064584 -0.160971
C171  C     C_R   0.015115 0.842157 0.935390 -0.160977
C172  C     C_R   0.984900 0.842149 0.064595 -0.160974
H93   H     H_    0.526831 0.328510 0.885106 0.137019
H94   H     H_    0.473198 0.328491 0.114852 0.136999
H95   H     H_    0.026823 0.828507 0.885118 0.137000
H96   H     H_    0.973195 0.828493 0.114864 0.137014
C173  C     C_R   0.500015 0.324129 0.999978 0.094959
C174  C     C_R   0.000009 0.824129 0.999991 0.094958
C175  C     C_R   0.500006 0.396072 0.999992 -0.027590
C176  C     C_R   0.000003 0.896072 0.999996 -0.027592
C177  C     C_R   0.469057 0.268468 0.028243 -0.167706
C178  C     C_R   0.530978 0.268483 0.971695 -0.167652
C179  C     C_R   0.969052 0.768468 0.028250 -0.167665
C180  C     C_R   0.030971 0.768484 0.971727 -0.167711
H97   H     H_    0.444950 0.282125 0.049781 0.137577
H98   H     H_    0.555084 0.282151 0.950158 0.137605
H99   H     H_    0.944945 0.782125 0.049778 0.137606
H100  H     H_    0.055078 0.782153 0.950198 0.137571
C181  C     C_R   0.969038 0.732707 0.027520 -0.169148
C182  C     C_R   0.030987 0.732723 0.972461 -0.169156
C183  C     C_R   0.469043 0.232708 0.027509 -0.169137
C184  C     C_R   0.530993 0.232722 0.972425 -0.169136
H101  H     H_    0.944743 0.719565 0.047696 0.130530
H102  H     H_    0.055283 0.719592 0.952286 0.130503
H103  H     H_    0.444747 0.219566 0.047693 0.130516
H104  H     H_    0.555289 0.219591 0.952240 0.130533
C185  C     C_R   0.000013 0.714313 0.999992 0.096862
C186  C     C_R   0.500018 0.214313 0.999969 0.096856
C187  C     C_R   0.500017 0.286492 0.999971 0.087313
C188  C     C_R   0.000011 0.786492 0.999989 0.087312
C189  C     C_R   0.026983 0.657789 0.945110 -0.159933
C190  C     C_R   0.973043 0.657780 0.054888 -0.159815
C191  C     C_R   0.526983 0.157787 0.945085 -0.159743
C192  C     C_R   0.473049 0.157782 0.054876 -0.159960
H105  H     H_    0.047798 0.670933 0.901076 0.128804
H106  H     H_    0.952230 0.670918 0.098922 0.128814
H107  H     H_    0.547796 0.170930 0.901044 0.128825
H108  H     H_    0.452239 0.170921 0.098913 0.128810
C193  C     C_R   0.027165 0.622028 0.945617 -0.179326
C194  C     C_R   0.972857 0.622020 0.054385 -0.179684
C195  C     C_R   0.527164 0.122025 0.945597 -0.179808
C196  C     C_R   0.472861 0.122021 0.054377 -0.179214
H109  H     H_    0.048229 0.608533 0.902686 0.147890
H110  H     H_    0.951791 0.608519 0.097317 0.147633
H111  H     H_    0.548224 0.108529 0.902662 0.147591
H112  H     H_    0.451797 0.108522 0.097316 0.148010
C197  C     C_R   0.000009 0.603892 0.000000 -0.029028
C198  C     C_R   0.500010 0.103891 0.999990 -0.029109
C199  C     C_R   0.000014 0.676184 0.999997 0.103914
C200  C     C_R   0.500017 0.176183 0.999976 0.103914
N1    N     N_R   0.175114 0.564079 0.342876 0.110586
O49   O     O_R   0.201885 0.566129 0.352181 -0.340285
O50   O     O_R   0.161615 0.592219 0.334976 -0.354441
N2    N     N_R   0.824893 0.564057 0.657408 0.110648
O51   O     O_R   0.798123 0.566147 0.648105 -0.340152
O52   O     O_R   0.838391 0.592173 0.665444 -0.354142
N3    N     N_R   0.675114 0.064085 0.342786 0.110662
O53   O     O_R   0.701886 0.066150 0.352089 -0.340136
O54   O     O_R   0.661617 0.092216 0.334843 -0.354052
N4    N     N_R   0.324890 0.064076 0.657687 0.110578
O55   O     O_R   0.298120 0.066210 0.648396 -0.340285
O56   O     O_R   0.338387 0.092165 0.665845 -0.354506
N5    N     N_R   0.510568 0.675314 0.104584 0.124710
O57   O     O_R   0.530304 0.702153 0.087179 -0.346567
O58   O     O_R   0.499954 0.661848 0.167380 -0.345361
N6    N     N_R   0.489400 0.675303 0.895448 0.124706
O59   O     O_R   0.469659 0.702129 0.912859 -0.346612
O60   O     O_R   0.500017 0.661842 0.832650 -0.345359
N7    N     N_R   0.010563 0.175315 0.104588 0.124711
O61   O     O_R   0.030298 0.202154 0.087183 -0.346594
O62   O     O_R   0.999948 0.161848 0.167384 -0.345335
N8    N     N_R   0.989396 0.175302 0.895450 0.124713
O63   O     O_R   0.969654 0.202127 0.912862 -0.346553
O64   O     O_R   0.000014 0.161842 0.832651 -0.345366

loop_
_geom_bond_atom_site_label_1
_geom_bond_atom_site_label_2
_geom_bond_distance
_ccdc_geom_bond_type
C166  H90   1.083131 S    
C69   H45   1.083243 S    
C43   H27   1.082857 S    
C13   C17   1.533115 S    
C74   C78   1.401967 A    
C192  C200  1.407950 A    
C132  H72   1.083079 S    
C15   C19   1.533113 S    
C76   C80   1.401960 A    
Cu11  O47   1.959390 S    
O25   Cu6   1.969330 S    
C19   C117  1.464337 S    
C17   C29   1.533506 S    
C129  H69   1.083081 S    
C154  H82   1.082841 S    
C27   C31   1.546062 S    
C47   H31   1.082871 S    
Cu7   O31   1.959527 S    
O42   C124  1.299714 A    
O31   C120  1.294680 A    
C169  C173  1.401467 A    
C12   C24   1.545860 S    
O48   C128  1.301312 A    
C78   H50   1.083244 S    
C144  H76   1.083259 S    
C47   C51   1.404608 A    
C41   C61   1.405036 A    
O26   C116  1.286804 A    
C180  C188  1.399848 A    
C79   C83   1.395336 A    
O22   C116  1.286439 A    
C72   H48   1.083242 S    
C5    C37   1.464500 S    
C148  C150  1.406046 A    
C21   H9    1.110153 S    
C73   C109  1.475854 S    
C149  C163  1.479690 S    
C89   H57   1.083525 S    
C90   C94   1.393262 A    
C59   C63   1.404838 A    
C34   C38   1.533130 S    
C129  C133  1.400617 A    
O17   Cu5   1.959188 S    
C42   H26   1.082857 S    
C45   C49   1.404607 A    
C63   C125  1.476153 S    
C186  C200  1.488273 S    
C91   H59   1.083520 S    
C133  N5    1.440288 S    
O16   Cu4   1.968950 S    
C170  C173  1.401471 A    
O13   C5    1.287113 A    
O7    Cu4   1.959322 S    
C81   C85   1.405762 A    
O41   Cu10  1.960736 S    
C102  H66   1.082995 S    
O15   C7    1.287079 A    
C90   C110  1.403212 A    
C24   H12   1.110157 S    
C18   C116  1.464313 S    
C135  N7    1.440293 S    
O27   Cu8   1.969330 S    
C113  C161  1.474658 S    
C78   C82   1.395345 A    
C157  H85   1.082900 S    
C178  C187  1.399849 A    
O36   C122  1.296537 A    
O39   C125  1.299489 A    
C22   C26   1.545563 S    
C130  C139  1.400699 A    
O37   C123  1.299489 A    
C169  H93   1.083305 S    
C136  C138  1.417754 A    
C48   C52   1.404614 A    
C2    C98   1.476391 S    
O43   C125  1.299718 A    
C95   C99   1.402036 A    
C194  H110  1.083255 S    
C178  C184  1.395929 A    
C96   C100  1.402045 A    
C97   C101  1.404599 A    
O44   Cu11  1.960738 S    
C167  H91   1.083133 S    
O3    Cu2   1.959805 S    
C92   C112  1.403215 A    
C52   C88   1.480055 S    
C159  H87   1.082901 S    
C29   C33   1.547462 S    
C158  H86   1.082900 S    
C31   C35   1.546041 S    
C32   C36   1.547716 S    
O23   C117  1.286327 A    
N1    O50   1.301427 A    
C22   H10   1.110156 S    
C28   C40   1.534610 S    
C165  C175  1.404380 A    
C144  C146  1.394746 A    
C21   C25   1.545981 S    
C17   C115  1.464320 S    
O35   C122  1.296532 A    
C171  H95   1.083306 S    
C196  H112  1.083252 S    
C64   C126  1.476139 S    
C67   H43   1.082780 S    
O3    C3    1.295073 A    
N8    O63   1.301360 A    
C19   C31   1.534173 S    
C33   C37   1.533073 S    
C20   C24   1.534300 S    
C66   C70   1.395131 A    
C13   C33   1.546890 S    
C131  H71   1.083079 S    
C82   H54   1.082833 S    
C46   H30   1.082871 S    
C15   C35   1.547755 S    
C141  C151  1.401199 A    
C16   C36   1.546730 S    
C189  H105  1.082073 S    
Cu10  O46   1.959383 S    
C133  C137  1.417760 A    
N5    O58   1.301447 A    
C107  N3    1.439544 S    
C191  H107  1.082072 S    
O24   Cu8   1.969341 S    
C9    C13   1.547684 S    
O38   Cu10  1.960200 S    
C14   C34   1.547624 S    
C44   C64   1.405024 A    
C94   C98   1.402045 A    
C9    C21   1.546190 S    
Cu11  Cu12  2.684180 S    
C11   H7    1.110154 S    
C36   C40   1.533075 S    
C53   C57   1.395018 A    
C143  C152  1.401197 A    
C135  C138  1.417756 A    
O29   C119  1.294675 A    
C183  C186  1.408698 A    
C68   C88   1.405484 A    
C185  C199  1.488269 S    
C7    C39   1.464485 S    
C180  C182  1.395929 A    
O5    Cu3   1.959322 S    
C41   C45   1.395708 A    
C166  C170  1.396270 A    
C36   H24   1.110153 S    
C154  C163  1.404666 A    
O6    Cu3   1.959421 S    
N6    O59   1.301360 A    
C43   C47   1.395708 A    
O42   Cu9   1.960738 S    
C14   C18   1.533116 S    
C132  C136  1.400614 A    
C25   C37   1.534717 S    
C23   C27   1.545532 S    
C189  C193  1.395931 A    
C11   C39   1.533080 S    
C71   C75   1.402694 A    
C26   H14   1.110153 S    
C18   C30   1.534017 S    
C153  H81   1.082842 S    
C130  H70   1.083083 S    
O21   Cu5   1.969341 S    
O39   Cu11  1.960200 S    
N2    O52   1.301423 A    
C166  C175  1.404378 A    
O7    C3    1.296271 A    
O36   Cu12  1.959131 S    
C107  C111  1.416525 A    
C147  C150  1.406047 A    
C10   C22   1.547345 S    
C10   C14   1.546960 S    
C83   H55   1.082836 S    
O13   Cu3   1.968940 S    
C184  H104  1.082035 S    
C84   H56   1.082831 S    
O28   C118  1.286206 A    
C191  C200  1.407958 A    
C30   H18   1.110148 S    
C165  C169  1.396269 A    
C83   C87   1.405762 A    
C190  H106  1.082073 S    
Cu5   O29   1.959527 S    
C177  C187  1.399843 A    
C89   C109  1.403204 A    
C60   H40   1.082871 S    
C79   H51   1.083244 S    
O5    C1    1.296271 A    
Cu7   Cu8   2.672768 S    
C65   H41   1.082782 S    
C155  C164  1.404656 A    
C156  H84   1.082843 S    
O8    C4    1.296300 A    
C26   C30   1.545954 S    
C10   C38   1.533080 S    
O15   Cu4   1.968940 S    
C46   C50   1.404610 A    
O46   C127  1.301312 A    
C9    C37   1.533148 S    
C90   H58   1.083523 S    
C59   H39   1.082869 S    
C57   H37   1.082869 S    
O4    C4    1.295055 A    
C173  C187  1.469061 S    
C153  C157  1.394922 A    
O35   Cu11  1.959123 S    
C45   H29   1.082872 S    
C179  C181  1.395920 A    
C120  C198  1.470775 S    
C155  C159  1.394922 A    
N7    O62   1.301447 A    
C53   H33   1.082898 S    
C32   H20   1.110139 S    
C9    H5    1.110141 S    
O14   C6    1.287137 A    
C55   H35   1.082897 S    
C102  C106  1.403212 A    
C61   C123  1.476153 S    
C80   H52   1.083247 S    
C11   C23   1.547583 S    
C134  C137  1.417755 A    
C25   C29   1.545557 S    
O47   C128  1.301321 A    
O41   C123  1.299718 A    
C165  H89   1.083132 S    
C26   C38   1.534747 S    
C73   C77   1.401969 A    
C190  C194  1.395916 A    
C104  H68   1.082994 S    
O10   C6    1.285657 A    
C179  C188  1.399841 A    
C33   H21   1.110148 S    
C43   C63   1.405031 A    
C170  H94   1.083304 S    
C48   H32   1.082867 S    
C158  C161  1.404520 A    
C16   C20   1.533109 S    
O33   C121  1.296534 A    
C143  C145  1.394731 A    
C1    C97   1.476388 S    
O33   Cu9   1.959123 S    
C96   H64   1.082892 S    
C57   C61   1.404840 A    
C91   C111  1.403206 A    
C130  C134  1.400613 A    
Cu12  O48   1.959383 S    
C44   C48   1.395697 A    
C150  C164  1.479690 S    
N4    O55   1.301388 A    
O23   Cu7   1.969341 S    
C160  H88   1.082902 S    
N3    O53   1.301381 A    
C20   C118  1.464366 S    
O44   C126  1.299710 A    
C23   H11   1.110156 S    
C91   C95   1.393248 A    
C67   C71   1.395138 A    
C137  C151  1.474795 S    
C183  H103  1.082033 S    
C68   C72   1.395129 A    
C138  C152  1.474799 S    
C121  C175  1.471064 S    
C66   H42   1.082779 S    
C192  H108  1.082073 S    
C92   C96   1.393261 A    
C98   C102  1.404599 A    
C105  N1    1.439541 S    
C104  C108  1.403210 A    
O18   C113  1.295968 A    
C42   C62   1.405029 A    
C129  C139  1.400699 A    
C94   H62   1.082891 S    
C108  C112  1.416513 A    
C34   H22   1.110140 S    
C93   C97   1.402037 A    
C14   H2    1.110159 S    
C145  H77   1.082736 S    
C82   C86   1.405772 A    
O12   Cu2   1.969152 S    
O19   C114  1.295993 A    
C184  C186  1.408699 A    
C160  C162  1.404522 A    
C194  C197  1.401888 A    
C147  H79   1.082738 S    
C174  C188  1.469061 S    
C148  H80   1.082739 S    
O1    C1    1.295073 A    
C182  H102  1.082035 S    
C31   H19   1.110148 S    
Cu5   Cu6   2.672768 S    
C41   H25   1.082858 S    
C62   C124  1.476147 S    
C168  C176  1.404381 A    
C141  H73   1.083261 S    
C56   H36   1.082896 S    
C35   H23   1.110140 S    
C132  C140  1.400700 A    
C143  H75   1.083259 S    
O28   Cu7   1.969330 S    
C29   H17   1.110140 S    
C70   C74   1.402691 A    
C178  H98   1.083363 S    
O45   C127  1.301321 A    
C17   C21   1.534105 S    
C172  H96   1.083304 S    
O40   C126  1.299487 A    
O21   C115  1.286903 A    
C171  C174  1.401465 A    
C101  H65   1.082996 S    
N8    O64   1.301447 A    
Cu9   O45   1.959390 S    
C136  N8    1.440293 S    
O30   C119  1.294706 A    
C12   C16   1.547816 S    
C52   C56   1.404511 A    
C191  C195  1.395935 A    
N5    O57   1.301364 A    
C193  H109  1.083249 S    
C67   C87   1.405477 A    
C60   C64   1.404828 A    
O20   Cu8   1.959097 S    
C195  H111  1.083253 S    
C65   C85   1.405478 A    
O43   Cu12  1.960736 S    
O6    C2    1.296293 A    
O4    Cu2   1.959715 S    
O26   Cu5   1.969330 S    
C71   H47   1.083240 S    
C69   C73   1.402695 A    
C168  H92   1.083131 S    
C56   C60   1.395023 A    
C72   C76   1.402687 A    
C190  C199  1.407952 A    
C4    C100  1.476401 S    
O2    Cu1   1.959715 S    
O10   Cu1   1.969152 S    
C81   H53   1.082838 S    
C13   H1    1.110161 S    
C154  C158  1.394945 A    
C131  C135  1.400616 A    
C8    C40   1.464456 S    
C122  C176  1.471060 S    
C153  C163  1.404657 A    
C28   C32   1.545557 S    
C92   H60   1.083523 S    
N6    O60   1.301446 A    
Cu8   O32   1.959617 S    
C10   H6    1.110152 S    
C80   C84   1.395344 A    
C89   C93   1.393244 A    
C77   H49   1.083246 S    
C119  C197  1.470779 S    
O25   C115  1.286347 A    
C30   C34   1.546327 S    
C28   H16   1.110154 S    
C15   H3    1.110159 S    
C180  H100  1.083360 S    
N7    O61   1.301361 A    
C127  C139  1.476310 S    
Cu2   Cu4   2.670581 S    
C75   C79   1.401967 A    
C128  C140  1.476310 S    
C54   C58   1.395023 A    
C156  C160  1.394942 A    
C99   C103  1.404599 A    
C105  C109  1.416526 A    
N3    O54   1.301427 A    
C193  C197  1.401890 A    
C172  C174  1.401466 A    
O19   Cu7   1.959188 S    
O34   C121  1.296531 A    
C106  C110  1.416517 A    
C196  C198  1.401885 A    
C6    C38   1.464512 S    
C177  C183  1.395917 A    
C42   C46   1.395700 A    
C167  C171  1.396269 A    
C181  C185  1.408698 A    
C44   H28   1.082858 S    
C156  C164  1.404665 A    
C76   C112  1.475838 S    
C177  H97   1.083363 S    
C142  C151  1.401203 A    
C103  H67   1.082996 S    
C50   C86   1.480047 S    
C12   C40   1.533205 S    
C77   C81   1.395337 A    
O11   C7    1.285702 A    
C157  C161  1.404519 A    
O12   C8    1.285740 A    
O1    Cu1   1.959805 S    
C74   C110  1.475849 S    
O9    Cu1   1.969158 S    
C68   H44   1.082777 S    
O37   Cu9   1.960200 S    
C20   C32   1.533367 S    
C49   C53   1.404498 A    
C35   C39   1.533171 S    
C192  C196  1.395908 A    
O9    C5    1.285674 A    
C141  C147  1.394731 A    
O16   C8    1.287032 A    
C16   H4    1.110159 S    
C3    C99   1.476388 S    
O27   C117  1.286928 A    
O11   Cu2   1.969158 S    
C95   H63   1.082890 S    
C100  C104  1.404606 A    
C144  C152  1.401205 A    
C195  C198  1.401893 A    
C182  C185  1.408696 A    
C19   C23   1.533460 S    
C146  C149  1.406044 A    
O22   Cu6   1.969341 S    
C93   H61   1.082890 S    
C12   H8    1.110112 S    
C106  N2    1.439543 S    
C55   C59   1.395018 A    
C58   H38   1.082868 S    
C159  C162  1.404521 A    
O17   C113  1.295983 A    
C168  C172  1.396271 A    
O20   C114  1.295958 A    
C146  H78   1.082739 S    
O32   C120  1.294697 A    
C189  C199  1.407958 A    
O2    C2    1.295054 A    
Cu6   O30   1.959617 S    
O34   Cu10  1.959131 S    
N2    O51   1.301384 A    
C54   H34   1.082896 S    
C65   C69   1.395138 A    
N4    O56   1.301424 A    
C103  C107  1.403231 A    
C142  H74   1.083258 S    
C25   H13   1.110154 S    
O14   Cu3   1.968950 S    
C101  C105  1.403232 A    
C70   H46   1.083241 S    
C27   C39   1.534673 S    
Cu9   Cu10  2.684180 S    
C155  H83   1.082841 S    
Cu1   Cu3   2.670581 S    
O18   Cu6   1.959097 S    
C75   C111  1.475855 S    
C18   C22   1.533574 S    
C51   C87   1.480035 S    
O24   C118  1.287059 A    
C51   C55   1.404499 A    
O38   C124  1.299491 A    
C49   C85   1.480031 S    
C27   H15   1.110155 S    
C142  C148  1.394742 A    
N1    O49   1.301385 A    
C179  H99   1.083363 S    
O8    Cu4   1.959421 S    
C50   C54   1.404508 A    
C11   C15   1.546801 S    
C134  N6    1.440291 S    
C58   C62   1.404835 A    
C108  N4    1.439545 S    
C84   C88   1.405779 A    
C181  H101  1.082037 S    
C66   C86   1.405476 A    
C167  C176  1.404382 A    
O40   Cu12  1.960200 S    
C131  C140  1.400700 A    
C24   C28   1.546087 S    
C145  C149  1.406044 A    
C114  C162  1.474658 S    
