data_mof_unit_17691.cif
_audit_creation_date              2012-12-10T16:54:33-0500
_audit_creation_method            fapswitch 2.2
_symmetry_space_group_name_H-M    P1
_symmetry_Int_Tables_number       1
_space_group_crystal_system       triclinic
_cell_length_a                    15.079793
_cell_length_b                    10.947694
_cell_length_c                    9.652981
_cell_angle_alpha                 90.425577
_cell_angle_beta                  90.091912
_cell_angle_gamma                 90.306645
_cell_volume                      1593.5316519

loop_
_atom_site_label
_atom_site_type_symbol
_atom_type_description
_atom_site_fract_x
_atom_site_fract_y
_atom_site_fract_z
_atom_type_partial_charge
C1    C     C_R   0.496360 0.265676 0.499395 0.869635
C2    C     C_R   0.907122 0.513516 0.374075 0.107997
C3    C     C_R   0.954087 0.478739 0.751172 -0.207651
C4    C     C_R   0.046538 0.478729 0.751147 -0.214863
C5    C     C_R   0.093112 0.490613 0.626353 0.109321
C6    C     C_R   0.046596 0.502778 0.500288 0.067604
C7    C     C_R   0.092949 0.515436 0.374270 0.102410
C8    C     C_R   0.046196 0.526824 0.249443 -0.216780
C9    C     C_R   0.953734 0.525672 0.249319 -0.205863
C10   C     C_R   0.185475 0.490134 0.625348 -0.253018
C11   C     C_R   0.231740 0.502319 0.500150 -0.071946
C12   C     C_R   0.328553 0.500709 0.499984 0.812706
C13   C     C_R   0.185327 0.516161 0.375274 -0.256093
C14   C     C_2   0.487599 0.934370 0.388809 0.360117
C15   C     C_2   0.512198 0.869475 0.501929 0.192299
C16   C     C_2   0.502732 0.067458 0.387777 -0.211523
C17   C     C_2   0.482372 0.135437 0.498350 -0.313871
C18   C     C_2   0.462850 0.414370 0.921488 -0.223057
C19   C     C_2   0.450858 0.423937 0.079053 0.530579
C20   C     C_R   0.502343 0.735545 0.500690 0.772583
C21   C     C_R   0.671497 0.500217 0.500053 0.821411
C22   C     C_R   0.814723 0.512482 0.374892 -0.239723
C23   C     C_R   0.768416 0.500796 0.500139 -0.071141
C24   C     C_R   0.814899 0.489867 0.625437 -0.236329
C25   C     C_R   0.907299 0.490241 0.626360 0.106542
C26   C     C_R   0.953640 0.502211 0.500244 0.062166
Cu1   Cu    Cu3+1 0.500020 0.500020 0.638630 0.930207
Cu2   Cu    Cu3+1 0.499980 0.499980 0.361370 1.006595
H1    H     H_    0.778992 0.521289 0.277940 0.155607
H2    H     H_    0.528073 0.109120 0.293878 0.169379
H3    H     H_    0.451991 0.095010 0.588854 0.155146
H4    H     H_    0.438070 0.334336 0.867258 0.157606
H5    H     H_    0.516261 0.579357 0.895147 0.183797
H6    H     H_    0.548381 0.547253 0.104736 0.150752
H7    H     H_    0.779305 0.480568 0.722333 0.158265
H8    H     H_    0.919201 0.469546 0.848650 0.139549
H9    H     H_    0.081592 0.469444 0.848592 0.137309
H10   H     H_    0.221198 0.479745 0.722110 0.151859
H11   H     H_    0.220987 0.527156 0.278657 0.165052
H12   H     H_    0.081120 0.536256 0.152020 0.138648
H13   H     H_    0.918702 0.534336 0.151789 0.139105
N1    N     N_2   0.499020 0.498660 0.846910 -0.294002
N2    N     N_2   0.499000 0.498630 0.153040 -0.298101
O1    O     O_R   0.500020 0.321960 0.617040 -0.587192
O2    O     O_R   0.499980 0.321920 0.382900 -0.536569
O3    O     O_R   0.370270 0.499990 0.617090 -0.590164
O4    O     O_R   0.370240 0.499950 0.382940 -0.534791
O5    O     O_R   0.500020 0.678080 0.617100 -0.612070
O6    O     O_R   0.499980 0.678040 0.382960 -0.526487
O7    O     O_R   0.629760 0.500050 0.617060 -0.574311
O8    O     O_R   0.629730 0.500010 0.382910 -0.593670
O9    O     O_3   0.561621 0.927439 0.606536 -0.587147
C27   C     C_3   0.526347 0.905638 0.740038 0.075301
H14   H     H_    0.555414 0.821128 0.783411 0.184836
H15   H     H_    0.452501 0.898653 0.739386 0.118221
C28   C     C_3   0.553036 0.009662 0.837522 -0.801436
H16   H     H_    0.523855 0.097196 0.803272 0.240820
H17   H     H_    0.528958 0.990073 0.943779 0.206474
H18   H     H_    0.626383 0.019131 0.840356 0.262708
O10   O     O_3   0.392483 0.348569 0.151904 -0.534733
C29   C     C_3   0.329343 0.288193 0.067387 0.008735
H19   H     H_    0.361281 0.211687 0.010156 0.131960
H20   H     H_    0.296945 0.352343 0.994102 0.136010
C30   C     C_3   0.257396 0.233738 0.158724 -0.784834
H21   H     H_    0.218474 0.307543 0.208504 0.248012
H22   H     H_    0.211944 0.176175 0.095041 0.200060
H23   H     H_    0.287540 0.176696 0.240654 0.239821
O11   O     O_3   0.456559 0.874090 0.270279 -0.579828
C31   C     C_3   0.387399 0.939190 0.206004 0.062064
H24   H     H_    0.413833 0.021587 0.153179 0.154274
H25   H     H_    0.335759 0.966035 0.282715 0.137266
C32   C     C_3   0.343936 0.857725 0.096819 -0.789255
H26   H     H_    0.316039 0.774552 0.146001 0.250997
H27   H     H_    0.289572 0.908037 0.044993 0.196629
H28   H     H_    0.393556 0.830122 0.017762 0.238012

loop_
_geom_bond_atom_site_label_1
_geom_bond_atom_site_label_2
_ccdc_geom_bond_type
Cu1   O5    S    
C2    C22   A    
C31   C32   S    
C11   C12   S    
Cu1   O7    S    
Cu2   O4    S    
C20   O6    A    
C22   H1    S    
C19   O10   S    
C29   C30   S    
C8    H12   S    
Cu2   O6    S    
Cu2   N2    S    
C1    C17   S    
C28   H18   S    
C7    C13   A    
C10   H10   S    
C30   H21   S    
C12   O4    A    
C6    C26   A    
C24   C25   A    
C5    C10   A    
C2    C26   A    
C30   H22   S    
C20   O5    A    
C15   O9    S    
C28   H16   S    
C11   C13   A    
Cu1   N1    S    
C1    O2    A    
C29   H19   S    
C3    H8    S    
O10   C29   S    
C32   H28   S    
C5    C6    A    
Cu1   O3    S    
C32   H27   S    
C21   O7    A    
C28   H17   S    
C6    C7    A    
C31   H24   S    
C27   H15   S    
C21   C23   S    
C15   C20   S    
C17   H3    S    
Cu2   O8    S    
C14   C16   S    
Cu2   O2    S    
C13   H11   S    
C24   H7    S    
C7    C8    A    
C10   C11   A    
H5    N1    S    
C23   C24   A    
C16   H2    S    
C3    C4    A    
C30   H23   S    
C21   O8    A    
C3    C25   A    
C18   H4    S    
C4    H9    S    
C32   H26   S    
C12   O3    A    
C18   C19   S    
C27   C28   S    
Cu1   Cu2   S    
C31   H25   S    
C14   O11   S    
C14   C15   D    
C4    C5    A    
C1    O1    A    
C18   N1    D    
C25   C26   A    
C27   H14   S    
C2    C9    A    
C9    H13   S    
Cu1   O1    S    
O11   C31   S    
C22   C23   A    
H6    N2    S    
C16   C17   D    
O9    C27   S    
C8    C9    A    
C29   H20   S    
C19   N2    D    
