data_mof_unit_54926.cif
_audit_creation_date              2012-12-10T19:45:02-0500
_audit_creation_method            fapswitch 2.2
_symmetry_space_group_name_H-M    P1
_symmetry_Int_Tables_number       1
_space_group_crystal_system       triclinic
_cell_length_a                    15.055019
_cell_length_b                    10.948228
_cell_length_c                    13.860494
_cell_angle_alpha                 91.000332
_cell_angle_beta                  88.529765
_cell_angle_gamma                 85.823835
_cell_volume                      2277.32280255

loop_
_atom_site_label
_atom_site_type_symbol
_atom_type_description
_atom_site_fract_x
_atom_site_fract_y
_atom_site_fract_z
_atom_type_partial_charge
C1    C     C_R   0.500238 0.262375 0.499041 0.852746
C2    C     C_R   0.404853 0.892055 0.656865 -0.002893
C3    C     C_R   0.688272 0.116304 0.345291 0.125491
C4    C     C_R   0.311695 0.883681 0.654617 0.125473
C5    C     C_R   0.736480 0.133360 0.258539 0.171430
C6    C     C_R   0.263438 0.866614 0.741336 0.171389
C7    C     C_R   0.692057 0.141130 0.171076 -0.173685
C8    C     C_R   0.307806 0.858871 0.828834 -0.173668
C9    C     C_R   0.548800 0.927458 0.428502 0.155943
C10   C     C_R   0.451207 0.072541 0.571502 0.155938
C11   C     C_R   0.501149 0.871394 0.502431 -0.150987
C12   C     C_R   0.499763 0.737624 0.500959 0.852745
C13   C     C_R   0.498856 0.128605 0.497571 -0.150998
C14   C     C_R   0.453513 0.944409 0.574927 -0.012209
C15   C     C_R   0.546490 0.055591 0.425073 -0.012209
C16   C     C_R   0.328727 0.503535 0.501094 0.824246
C17   C     C_R   0.671273 0.496465 0.498906 0.824248
C18   C     C_R   0.571071 0.445273 0.792181 0.317046
C19   C     C_R   0.428929 0.554724 0.207818 0.317052
C20   C     C_R   0.426585 0.547372 0.798302 0.266826
C21   C     C_R   0.573415 0.452628 0.201698 0.266819
C22   C     C_R   0.423769 0.540594 0.900250 -0.008835
C23   C     C_R   0.054723 0.334845 0.616437 0.091725
C24   C     C_R   0.576232 0.459404 0.099750 -0.008831
C25   C     C_R   0.500461 0.500476 0.948547 -0.000641
C26   C     C_R   0.499540 0.499522 0.051453 -0.000666
C27   C     C_R   0.577756 0.460828 0.894056 -0.096467
C28   C     C_R   0.422244 0.539168 0.105943 -0.096472
C29   C     C_R   0.344721 0.570583 0.954724 -0.203032
C30   C     C_R   0.655279 0.429413 0.045276 -0.203024
C31   C     C_R   0.342562 0.565363 0.055624 0.176032
C32   C     C_R   0.657438 0.434631 0.944376 0.176032
C33   C     C_R   0.810821 0.572885 0.437164 -0.172176
C34   C     C_R   0.945276 0.665146 0.383556 0.091720
C35   C     C_R   0.189177 0.427115 0.562835 -0.172172
C36   C     C_R   0.768207 0.493238 0.496599 -0.100012
C37   C     C_R   0.231792 0.506761 0.503400 -0.100017
C38   C     C_R   0.817694 0.413052 0.555342 -0.134428
C39   C     C_R   0.182305 0.586943 0.444653 -0.134427
C40   C     C_R   0.910767 0.412238 0.556400 0.052308
C41   C     C_R   0.089232 0.587755 0.443593 0.052315
C42   C     C_R   0.953572 0.497694 0.498915 -0.013459
C43   C     C_R   0.046427 0.502301 0.501080 -0.013455
C44   C     C_R   0.903225 0.578510 0.439064 0.115385
C45   C     C_R   0.599250 0.135730 0.168971 0.178932
C46   C     C_R   0.096774 0.421486 0.560932 0.115384
C47   C     C_R   0.961785 0.329116 0.613716 0.140988
C48   C     C_R   0.038215 0.670872 0.386273 0.140998
C49   C     C_R   0.400609 0.864302 0.831006 0.178963
C50   C     C_R   0.551373 0.119644 0.255086 -0.121556
C51   C     C_R   0.448538 0.880379 0.744921 -0.121583
C52   C     C_R   0.595110 0.107945 0.343108 -0.002894
Cu1   Cu    Cu3+1 0.500010 0.499980 0.597420 0.991281
Cu2   Cu    Cu3+1 0.499990 0.500020 0.402580 0.991278
H1    H     H_    0.770870 0.633132 0.391877 0.200495
H2    H     H_    0.519516 0.890684 0.747311 0.177524
H3    H     H_    0.307557 0.533538 0.735555 0.258326
H4    H     H_    0.368531 0.653465 0.695999 0.265557
H5    H     H_    0.692444 0.466461 0.264444 0.258328
H6    H     H_    0.631469 0.346535 0.304001 0.265558
H7    H     H_    0.085328 0.262863 0.746616 0.266844
H8    H     H_    0.099486 0.162051 0.651368 0.283500
H9    H     H_    0.914669 0.737116 0.253375 0.266846
H10   H     H_    0.900516 0.837938 0.348615 0.283508
H11   H     H_    0.597454 0.155607 0.022351 0.240451
H12   H     H_    0.229128 0.366869 0.608124 0.200494
H13   H     H_    0.507951 0.219419 0.083676 0.225057
H14   H     H_    0.402313 0.844479 0.977634 0.240467
H15   H     H_    0.491862 0.780664 0.916386 0.225066
H16   H     H_    0.282620 0.592420 0.918994 0.196020
H17   H     H_    0.717379 0.407575 0.081006 0.196034
H18   H     H_    0.782723 0.351051 0.599028 0.201792
H19   H     H_    0.217276 0.648941 0.400965 0.201800
H20   H     H_    0.729878 0.153057 0.104845 0.173805
H21   H     H_    0.269946 0.846942 0.895039 0.173804
H22   H     H_    0.480391 0.109359 0.252748 0.177528
I1    I     I_    0.632611 0.821252 0.322656 -0.309611
I2    I     I_    0.244851 0.907765 0.522106 -0.285067
I3    I     I_    0.876238 0.147883 0.253503 -0.241969
I4    I     I_    0.123683 0.852041 0.746268 -0.242031
I5    I     I_    0.367385 0.178746 0.677338 -0.309633
I6    I     I_    0.640908 0.285361 0.730408 -0.239999
I7    I     I_    0.359092 0.714637 0.269588 -0.239965
I8    I     I_    0.212918 0.560880 0.119669 -0.260977
I9    I     I_    0.787084 0.439103 0.880331 -0.260944
I10   I     I_    0.903115 0.189785 0.695343 -0.216131
I11   I     I_    0.096883 0.810189 0.304628 -0.216123
I12   I     I_    0.755190 0.092240 0.477759 -0.285073
N1    N     N_R   0.499960 0.499900 0.743810 -0.219656
N2    N     N_R   0.500040 0.500100 0.256190 -0.219663
N3    N     N_3   0.349481 0.601676 0.754022 -0.599453
N4    N     N_3   0.650519 0.398323 0.245978 -0.599439
N5    N     N_3   0.107508 0.251798 0.674700 -0.557236
N6    N     N_3   0.892492 0.748189 0.325291 -0.557231
N7    N     N_3   0.552991 0.142088 0.079728 -0.533945
N8    N     N_3   0.446811 0.857986 0.920288 -0.533945
O1    O     O_R   0.500000 0.319630 0.582270 -0.531221
O2    O     O_R   0.500000 0.680370 0.417730 -0.531219
O3    O     O_R   0.499990 0.319660 0.417730 -0.601727
O4    O     O_R   0.500010 0.680340 0.582270 -0.601720
O5    O     O_R   0.370260 0.499960 0.582280 -0.605746
O6    O     O_R   0.629740 0.500040 0.417720 -0.605747
O7    O     O_R   0.370250 0.499990 0.417740 -0.556636
O8    O     O_R   0.629750 0.500010 0.582260 -0.556635

loop_
_geom_bond_atom_site_label_1
_geom_bond_atom_site_label_2
_ccdc_geom_bond_type
C33   H1    S    
C40   C47   A    
C38   C40   A    
C22   C29   A    
H15   N8    S    
C1    O3    A    
C30   H17   S    
C39   C41   A    
Cu1   Cu2   S    
H9    N6    S    
H14   N8    S    
C7    C45   A    
C35   C37   A    
C17   O8    A    
C24   C26   A    
Cu2   N2    S    
C11   C14   A    
H7    N5    S    
Cu1   O8    S    
C33   C36   A    
C51   H2    S    
Cu1   O5    S    
C49   C51   A    
C22   C25   A    
C50   C52   A    
C17   C36   S    
C5    I3    S    
H4    N3    S    
C12   O2    A    
C16   C37   S    
C40   C42   A    
C3    I12   S    
C23   C46   A    
H13   N7    S    
C41   C43   A    
C42   C44   A    
C19   I7    S    
C7    H20   S    
C21   N2    A    
H6    N4    S    
Cu1   O4    S    
C20   N3    S    
C38   H18   S    
C23   C47   A    
C47   I10   S    
Cu2   O7    S    
C34   C44   A    
C4    C6    A    
C10   C14   A    
C1    O1    A    
C5    C7    A    
C6    C8    A    
C18   N1    A    
C35   H12   S    
Cu1   O1    S    
C25   C26   A    
C8    H21   S    
C31   I8    S    
C23   N5    S    
C2    C4    A    
C17   O6    A    
C4    I2    S    
C50   H22   S    
C16   O7    A    
C6    I4    S    
C3    C52   A    
C48   I11   S    
C9    I1    S    
C15   C52   S    
C19   C28   A    
C9    C11   A    
C20   C22   A    
C13   C15   A    
Cu1   N1    S    
Cu2   O3    S    
C21   C24   A    
C1    C13   S    
C42   C43   A    
C45   N7    S    
C29   H16   S    
H3    N3    S    
C27   C32   A    
C33   C44   A    
Cu2   O6    S    
C28   C31   A    
C18   C27   A    
C34   N6    S    
C3    C5    A    
C10   C13   A    
C11   C12   S    
C25   C27   A    
C20   N1    A    
C10   I5    S    
C26   C28   A    
C36   C38   A    
C9    C15   A    
H10   N6    S    
C37   C39   A    
C19   N2    A    
C30   C32   A    
C45   C50   A    
C32   I9    S    
C18   I6    S    
C41   C48   A    
H5    N4    S    
C39   H19   S    
C49   N8    S    
C2    C14   S    
C43   C46   A    
C24   C30   A    
C12   O4    A    
C2    C51   A    
C16   O5    A    
H11   N7    S    
C34   C48   A    
C29   C31   A    
H8    N5    S    
Cu2   O2    S    
C35   C46   A    
C8    C49   A    
C21   N4    S    
