data_mof_unit_27640.cif
_audit_creation_date              2012-12-10T18:03:32-0500
_audit_creation_method            fapswitch 2.2
_symmetry_space_group_name_H-M    P1
_symmetry_Int_Tables_number       1
_space_group_crystal_system       triclinic
_cell_length_a                    10.787492
_cell_length_b                    9.75968
_cell_length_c                    19.424252
_cell_angle_alpha                 89.908925
_cell_angle_beta                  93.908724
_cell_angle_gamma                 90.751392
_cell_volume                      2040.10035702

loop_
_atom_site_label
_atom_site_type_symbol
_atom_type_description
_atom_site_fract_x
_atom_site_fract_y
_atom_site_fract_z
_atom_type_partial_charge
C1    C     C_R   0.871852 0.499571 0.500380 -0.012110
C2    C     C_R   0.129245 0.496861 0.500884 -0.001914
C3    C     C_R   0.532539 0.616796 0.965175 -0.178393
C4    C     C_R   0.400266 0.416933 0.034198 -0.179795
C5    C     C_R   0.536061 0.616992 0.036971 -0.179118
C6    C     C_R   0.394953 0.417993 0.962374 -0.180233
C7    C     C_R   0.471305 0.515986 0.071791 0.096460
C8    C     C_R   0.462540 0.516740 0.927127 0.100577
C9    C     C_R   0.263004 0.499014 0.499926 0.762209
C10   C     C_R   0.737327 0.500415 0.500151 0.759344
C11   C     C_R   0.499569 0.500555 0.368008 0.760587
C12   C     C_R   0.495140 0.500269 0.631861 0.754704
C13   C     C_R   0.059044 0.389963 0.469091 -0.192789
C14   C     C_R   0.943035 0.603067 0.534203 -0.212732
C15   C     C_R   0.930444 0.391665 0.468556 -0.184216
C16   C     C_R   0.070964 0.602068 0.534321 -0.176136
C17   C     C_R   0.471613 0.382097 0.745338 -0.184901
C18   C     C_R   0.461872 0.625655 0.256833 -0.192816
C19   C     C_R   0.524117 0.388158 0.254065 -0.189316
C20   C     C_R   0.475994 0.629557 0.741536 -0.188010
C21   C     C_R   0.464834 0.386393 0.816592 -0.168038
C22   C     C_R   0.454715 0.629767 0.185032 -0.173238
C23   C     C_R   0.514847 0.391616 0.182224 -0.173033
C24   C     C_R   0.467238 0.634119 0.812698 -0.175993
C25   C     C_R   0.464064 0.512476 0.851159 0.110874
C26   C     C_R   0.479808 0.512316 0.147407 0.106666
C27   C     C_R   0.429606 0.070220 0.451864 0.181498
C28   C     C_R   0.590417 0.929260 0.537371 0.166249
C29   C     C_R   0.574215 0.073212 0.547292 0.160873
C30   C     C_R   0.408906 0.928305 0.464157 0.172125
C31   C     C_R   0.482153 0.503345 0.707159 -0.028986
C32   C     C_R   0.495363 0.504214 0.292109 -0.022619
Cu1   Cu    Cu3+1 0.500000 0.640660 0.500000 0.934587
Cu2   Cu    Cu3+1 0.500000 0.359340 0.500000 0.934682
H1    H     H_    0.103049 0.306533 0.443991 0.137765
H2    H     H_    0.901608 0.682674 0.562389 0.147940
H3    H     H_    0.876897 0.309619 0.442848 0.139911
H4    H     H_    0.124260 0.681745 0.561978 0.130353
H5    H     H_    0.467096 0.283451 0.720924 0.128878
H6    H     H_    0.440196 0.717497 0.284550 0.146240
H7    H     H_    0.555921 0.295522 0.279338 0.133566
H8    H     H_    0.476530 0.725388 0.713622 0.142291
H9    H     H_    0.462123 0.290552 0.844617 0.120503
H10   H     H_    0.427791 0.723910 0.158789 0.126458
H11   H     H_    0.537179 0.300874 0.153742 0.127152
H12   H     H_    0.462367 0.732983 0.837514 0.121165
H13   H     H_    0.587320 0.692721 0.939624 0.125666
H14   H     H_    0.348551 0.339253 0.060510 0.129224
H15   H     H_    0.592110 0.693556 0.065443 0.129520
H16   H     H_    0.338049 0.341436 0.934517 0.125095
N1    N     N_R   0.500000 0.852070 0.500000 -0.197030
N2    N     N_R   0.500000 0.147930 0.500000 -0.199287
O1    O     O_R   0.319640 0.618740 0.500000 -0.579413
O2    O     O_R   0.680360 0.381260 0.500000 -0.570979
O3    O     O_R   0.680360 0.618740 0.500000 -0.576073
O4    O     O_R   0.319640 0.381260 0.500000 -0.579123
O5    O     O_R   0.500020 0.618830 0.400190 -0.580429
O6    O     O_R   0.499980 0.381170 0.599810 -0.578391
O7    O     O_R   0.499980 0.618830 0.599810 -0.571531
O8    O     O_R   0.500020 0.381170 0.400190 -0.578591
C33   C     C_3   0.412218 0.111057 0.376669 -0.321386
C34   C     C_3   0.293719 0.190035 0.356708 -0.809475
H17   H     H_    0.209890 0.127086 0.365072 0.223628
H18   H     H_    0.289180 0.286328 0.385704 0.274898
H19   H     H_    0.291715 0.216357 0.301015 0.228177
H20   H     H_    0.497111 0.162580 0.361420 0.201708
H21   H     H_    0.409818 0.018280 0.343479 0.162796
C35   C     C_3   0.716743 0.873805 0.562014 -0.322862
C36   C     C_3   0.718956 0.791606 0.629600 -0.775730
H22   H     H_    0.639432 0.817249 0.660014 0.231763
H23   H     H_    0.718957 0.679965 0.620620 0.255737
H24   H     H_    0.805468 0.816145 0.661804 0.203128
H25   H     H_    0.760791 0.825735 0.519020 0.202389
H26   H     H_    0.783860 0.959607 0.571676 0.165368
C37   C     C_3   0.626312 0.130653 0.616411 -0.327904
C38   C     C_3   0.746394 0.215980 0.615488 -0.740212
H27   H     H_    0.794087 0.199305 0.567410 0.242655
H28   H     H_    0.727784 0.326192 0.622557 0.250439
H29   H     H_    0.811763 0.185856 0.659430 0.203091
H30   H     H_    0.553077 0.179003 0.642864 0.199093
H31   H     H_    0.646458 0.046360 0.653392 0.163477
C39   C     C_3   0.273551 0.883621 0.454863 -0.311591
C40   C     C_3   0.237738 0.804505 0.388393 -0.802303
H32   H     H_    0.242433 0.871838 0.342636 0.223258
H33   H     H_    0.297701 0.715758 0.381960 0.274843
H34   H     H_    0.140542 0.766251 0.389790 0.231680
H35   H     H_    0.245040 0.832097 0.501776 0.203566
H36   H     H_    0.213185 0.975062 0.454033 0.161842

loop_
_geom_bond_atom_site_label_1
_geom_bond_atom_site_label_2
_ccdc_geom_bond_type
Cu1   O3    S    
C30   N1    A    
Cu2   O4    S    
C23   H11   S    
C38   H29   S    
C7    C26   S    
C28   C29   A    
C28   C35   S    
C38   H28   S    
C13   H1    S    
C14   H2    S    
C28   N1    A    
C35   H26   S    
C39   H35   S    
C17   H5    S    
C23   C26   A    
C36   H23   S    
C2    C13   A    
C18   H6    S    
C15   H3    S    
C34   H18   S    
C27   C33   S    
C21   H9    S    
C12   O7    A    
C33   H20   S    
C22   H10   S    
C20   C24   A    
C35   C36   S    
C1    C15   A    
C2    C16   A    
C37   H30   S    
C12   O6    A    
Cu1   O7    S    
C27   C30   A    
Cu2   O8    S    
C8    C25   S    
C5    H15   S    
C33   C34   S    
C4    C7    A    
C19   C32   A    
C38   H27   S    
Cu1   O1    S    
C24   C25   A    
C4    C6    A    
C3    C8    A    
C5    C7    A    
C37   H31   S    
C6    C8    A    
C35   H25   S    
C17   C21   A    
C30   C39   S    
C36   H24   S    
C19   C23   A    
C37   C38   S    
C34   H17   S    
C33   H21   S    
C40   H32   S    
Cu1   Cu2   S    
C9    O4    A    
C6    H16   S    
C10   O3    A    
C40   H33   S    
C11   C32   S    
Cu2   O2    S    
C13   C15   A    
C12   C31   S    
C17   C31   A    
C14   C16   A    
C9    O1    A    
C11   O8    A    
C27   N2    A    
C4    H14   S    
C21   C25   A    
Cu1   O5    S    
C34   H19   S    
C18   C22   A    
C1    C10   S    
C3    C5    A    
C20   H8    S    
C29   C37   S    
Cu1   N1    S    
Cu2   N2    S    
C24   H12   S    
C39   H36   S    
C3    H13   S    
C36   H22   S    
C10   O2    A    
C40   H34   S    
C18   C32   A    
C39   C40   S    
C22   C26   A    
Cu2   O6    S    
C1    C14   A    
C11   O5    A    
C2    C9    S    
C29   N2    A    
C19   H7    S    
C16   H4    S    
C20   C31   A    
