data_mof_unit_6356.cif
_audit_creation_date              2012-12-10T17:00:03-0500
_audit_creation_method            fapswitch 2.2
_symmetry_space_group_name_H-M    P1
_symmetry_Int_Tables_number       1
_space_group_crystal_system       triclinic
_cell_length_a                    23.439076
_cell_length_b                    10.948262
_cell_length_c                    9.686969
_cell_angle_alpha                 90.945685
_cell_angle_beta                  90.437644
_cell_angle_gamma                 89.832909
_cell_volume                      2485.4215486

loop_
_atom_site_label
_atom_site_type_symbol
_atom_type_description
_atom_site_fract_x
_atom_site_fract_y
_atom_site_fract_z
_atom_type_partial_charge
C1    C     C_R   0.500809 0.265668 0.498400 0.909389
C2    C     C_R   0.968436 0.383074 0.291629 -0.092707
C3    C     C_R   0.027689 0.375770 0.293858 -0.091554
C4    C     C_R   0.058896 0.419303 0.408780 -0.010112
C5    C     C_R   0.030122 0.469645 0.524127 -0.054773
C6    C     C_R   0.061306 0.512756 0.641451 -0.153300
C7    C     C_R   0.030449 0.557512 0.758851 0.419260
C8    C     C_R   0.970889 0.567833 0.750683 -0.191329
C9    C     C_R   0.118468 0.415017 0.409940 0.610996
C10   C     C_R   0.121724 0.511280 0.633118 0.671680
C11   C     C_R   0.233961 0.558602 0.432838 -0.204816
C12   C     C_R   0.390994 0.499843 0.499693 0.874153
C13   C     C_R   0.293168 0.571888 0.426246 0.318758
C14   C     C_R   0.328502 0.490921 0.500215 -0.221628
C15   C     C_R   0.303816 0.398850 0.579048 -0.307224
C16   C     C_R   0.244580 0.385001 0.584387 0.486327
C17   C     C_R   0.209458 0.466939 0.511875 0.155918
C18   C     C_R   0.760123 0.410652 0.562830 -0.125439
C19   C     C_R   0.701064 0.411337 0.560731 -0.099524
C20   C     C_R   0.671280 0.508412 0.502306 -0.140929
C21   C     C_R   0.701021 0.611032 0.452682 -0.187924
C22   C     C_R   0.761789 0.609867 0.452866 0.380229
C23   C     C_R   0.503651 0.735169 0.500561 0.859184
C24   C     C_R   0.790735 0.507513 0.508100 0.196990
C25   C     C_2   0.519658 0.937089 0.389635 0.349103
C26   C     C_2   0.519556 0.865163 0.504230 -0.358680
C27   C     C_2   0.531307 0.068056 0.404507 0.439406
C28   C     C_2   0.498494 0.134250 0.491456 -0.420584
C29   C     C_2   0.481826 0.409325 0.919651 0.008954
C30   C     C_2   0.473408 0.417606 0.073933 0.067960
C31   C     C_R   0.608839 0.502828 0.500575 0.810797
C32   C     C_R   0.880819 0.540551 0.625670 0.598895
C33   C     C_R   0.879415 0.444835 0.402495 0.635004
C34   C     C_R   0.939091 0.434549 0.404026 -0.013055
C35   C     C_R   0.969920 0.477702 0.520641 0.001210
C36   C     C_R   0.940509 0.529630 0.632950 -0.086409
Cu1   Cu    Cu3+1 0.500010 0.500020 0.638630 1.005869
Cu2   Cu    Cu3+1 0.499990 0.499980 0.361370 1.079445
H1    H     H_    0.945778 0.349371 0.200940 0.201175
H2    H     H_    0.678426 0.335123 0.604248 0.203852
H3    H     H_    0.466128 0.090400 0.553182 0.124176
H4    H     H_    0.468962 0.326325 0.865618 0.202820
H5    H     H_    0.506834 0.580845 0.896582 0.217961
H6    H     H_    0.048984 0.336773 0.204524 0.208431
H7    H     H_    0.529288 0.553061 0.107621 0.231163
H8    H     H_    0.947766 0.604863 0.838194 0.238186
H9    H     H_    0.206190 0.621076 0.378530 0.206426
H10   H     H_    0.331085 0.336952 0.635818 0.203922
H11   H     H_    0.782555 0.333684 0.606735 0.181075
N1    N     N_R   0.851786 0.499575 0.511069 -0.451528
N2    N     N_R   0.148387 0.461430 0.520084 -0.452893
N3    N     N_2   0.499380 0.498660 0.846910 -0.300258
N4    N     N_2   0.499370 0.498630 0.153040 -0.293866
O1    O     O_R   0.500010 0.321960 0.617040 -0.579554
O2    O     O_2   0.849203 0.402108 0.292905 -0.484758
O3    O     O_2   0.146573 0.366050 0.301120 -0.496506
O4    O     O_2   0.154082 0.562729 0.733438 -0.401484
O5    O     O_R   0.499990 0.321920 0.382900 -0.575244
O6    O     O_R   0.417890 0.499980 0.617100 -0.568989
O7    O     O_R   0.417870 0.499940 0.382950 -0.565752
O8    O     O_R   0.500010 0.678080 0.617100 -0.604600
O9    O     O_R   0.499990 0.678040 0.382960 -0.485295
O10   O     O_R   0.582130 0.500060 0.617050 -0.562742
O11   O     O_R   0.582110 0.500020 0.382900 -0.563469
O12   O     O_2   0.851927 0.591287 0.732188 -0.506476
C37   C     C_2   0.667685 0.719547 0.408315 0.498075
H12   H     H_    0.628769 0.708083 0.348468 0.090156
O13   O     O_2   0.681669 0.822567 0.444335 -0.399637
S1    S     S_3+6 0.800885 0.734628 0.384247 0.109480
O14   O     O_2   0.861575 0.701752 0.351216 -0.262610
O15   O     O_2   0.772394 0.777223 0.254030 -0.185265
O16   O     O_3   0.801076 0.850396 0.500437 -0.425292
H13   H     H_    0.819558 0.816485 0.583790 0.364443
S2    S     S_3+6 0.500703 0.888620 0.218544 0.080043
O17   O     O_2   0.544919 0.800561 0.164902 -0.301219
O18   O     O_2   0.443331 0.828055 0.217254 -0.175290
O19   O     O_3   0.497405 0.009049 0.113222 -0.459318
H14   H     H_    0.490460 0.973545 0.019901 0.378902
C38   C     C_2   0.541519 0.911050 0.641110 0.346765
H15   H     H_    0.523769 0.876536 0.735942 0.120586
O20   O     O_2   0.581259 0.982800 0.649352 -0.458103
S3    S     S_3+6 0.590462 0.129008 0.315070 0.109231
O21   O     O_2   0.570120 0.204968 0.196517 -0.243417
O22   O     O_2   0.625216 0.207315 0.412392 -0.303397
O23   O     O_3   0.631369 0.014253 0.253761 -0.435451
H16   H     H_    0.664250 0.054816 0.210370 0.399761
C39   C     C_2   0.433721 0.326325 0.132058 0.522848
H17   H     H_    0.418518 0.332824 0.236062 0.109282
O24   O     O_2   0.416199 0.240819 0.061299 -0.517460
S4    S     S_3+6 0.062304 0.595863 0.921240 0.074647
O25   O     O_2   0.095356 0.712584 0.908777 -0.188789
O26   O     O_2   0.017498 0.613378 0.030155 -0.281442
O27   O     O_3   0.106388 0.482834 0.970260 -0.466077
H18   H     H_    0.124263 0.512979 0.057274 0.398463
S5    S     S_3+6 0.321266 0.695885 0.334250 0.094050
O28   O     O_2   0.350644 0.647751 0.207134 -0.195622
O29   O     O_2   0.274763 0.782632 0.291653 -0.217146
O30   O     O_3   0.368758 0.771164 0.434639 -0.502572
H19   H     H_    0.347386 0.795049 0.518707 0.347211
S6    S     S_3+6 0.215792 0.265747 0.683004 0.077217
O31   O     O_2   0.163676 0.213703 0.612672 -0.256405
O32   O     O_2   0.259353 0.166086 0.700914 -0.245223
O33   O     O_3   0.197803 0.322201 0.839130 -0.448007
H20   H     H_    0.178686 0.253881 0.885855 0.401268

loop_
_geom_bond_atom_site_label_1
_geom_bond_atom_site_label_2
_ccdc_geom_bond_type
C33   O2    S    
C37   O13   D    
C39   H17   S    
C4    C9    A    
O27   H18   S    
C29   H4    S    
C11   H9    S    
S5    O28   D    
C9    N2    A    
C17   N2    S    
S5    O30   S    
C7    C8    A    
O19   H14   S    
Cu1   Cu2   S    
S2    O18   D    
C13   S5    S    
C18   C24   A    
C32   C36   A    
C18   C19   A    
C5    C6    A    
C21   C37   S    
H5    N3    S    
C15   C16   A    
C28   H3    S    
C25   S2    S    
C8    C36   A    
C23   C26   S    
S1    O15   D    
Cu2   O5    S    
C12   O6    A    
C2    H1    S    
C23   O9    A    
C35   C36   A    
C16   C17   A    
S2    O19   S    
C1    C28   S    
C22   S1    S    
C2    C34   A    
C37   H12   S    
H7    N4    S    
C21   C22   A    
C15   H10   S    
C34   C35   A    
C10   N2    A    
Cu1   O10   S    
Cu2   O11   S    
C24   N1    S    
C30   N4    D    
C3    H6    S    
S2    O17   D    
C31   O10   A    
C10   O4    S    
C38   O20   D    
Cu1   N3    S    
C4    C5    A    
C33   N1    A    
O23   H16   S    
C7    S4    S    
S6    O33   S    
S1    O16   S    
C1    O1    A    
C29   C30   S    
S4    O26   D    
S6    O32   D    
C33   C34   A    
C9    O3    S    
C32   N1    A    
Cu1   O6    S    
Cu2   O7    S    
Cu1   O1    S    
C12   C14   S    
S3    O21   D    
S3    O22   D    
C39   O24   D    
C22   C24   A    
C3    C4    A    
C27   C28   D    
S4    O27   S    
C11   C17   A    
C31   O11   A    
C27   S3    S    
C16   S6    S    
O16   H13   S    
C6    C10   A    
Cu1   O8    S    
S5    O29   D    
C6    C7    A    
C25   C27   S    
S3    O23   S    
C26   C38   S    
C19   C20   A    
C2    C3    A    
C25   C26   D    
C1    O5    A    
C11   C13   A    
S4    O25   D    
Cu2   N4    S    
C5    C35   A    
S6    O31   D    
S1    O14   D    
C8    H8    S    
C19   H2    S    
C38   H15   S    
C12   O7    A    
C23   O8    A    
C20   C21   A    
O30   H19   S    
O33   H20   S    
C14   C15   A    
C30   C39   S    
C13   C14   A    
C29   N3    D    
C18   H11   S    
C32   O12   S    
Cu2   O9    S    
C20   C31   S    
