data_mof_unit_29317.cif
_audit_creation_date              2012-12-10T18:58:45-0500
_audit_creation_method            fapswitch 2.2
_symmetry_space_group_name_H-M    P1
_symmetry_Int_Tables_number       1
_space_group_crystal_system       triclinic
_cell_length_a                    13.072895
_cell_length_b                    10.815408
_cell_length_c                    9.540229
_cell_angle_alpha                 89.584035
_cell_angle_beta                  94.973378
_cell_angle_gamma                 91.490248
_cell_volume                      1343.33060663

loop_
_atom_site_label
_atom_site_type_symbol
_atom_type_description
_atom_site_fract_x
_atom_site_fract_y
_atom_site_fract_z
_atom_type_partial_charge
C1    C     C_R   0.496907 0.262013 0.500004 0.810606
C2    C     C_R   0.023226 0.479353 0.570472 0.149424
C3    C     C_R   0.972129 0.500732 0.435991 0.153185
C4    C     C_R   0.865271 0.504209 0.420549 -0.254765
C5    C     C_R   0.858597 0.445691 0.665179 -0.216188
C6    C     C_R   0.964458 0.445005 0.682414 -0.248895
C7    C     C_R   0.495187 0.060473 0.624289 0.123164
C8    C     C_R   0.488943 0.127867 0.498682 -0.129094
C9    C     C_R   0.463351 0.066053 0.371225 -0.236404
C10   C     C_R   0.446015 0.937831 0.367999 0.091951
C11   C     C_R   0.470088 0.869172 0.493944 -0.137715
C12   C     C_R   0.300441 0.502857 0.476358 0.790471
C13   C     C_R   0.485133 0.932136 0.621720 0.093166
C14   C     C_3   0.408870 0.933424 0.730616 -0.469514
C15   C     C_3   0.424680 0.071353 0.738334 -0.471353
C16   C     C_R   0.511864 0.607875 0.075196 0.205708
C17   C     C_R   0.478976 0.394915 0.072424 -0.075168
C18   C     C_R   0.478648 0.395150 0.923975 -0.087276
C19   C     C_R   0.514775 0.608035 0.928779 0.220184
C20   C     C_3   0.602092 0.704254 0.940465 -0.161654
C21   C     C_3   0.597372 0.699753 0.099697 -0.526173
C22   C     C_R   0.487543 0.736321 0.497506 0.782165
C23   C     C_R   0.698478 0.494796 0.524659 0.807194
C24   C     C_R   0.809008 0.482215 0.536942 -0.031887
C25   C     C_R   0.187445 0.506324 0.468539 -0.084427
C26   C     C_R   0.028055 0.521335 0.319649 -0.226059
C27   C     C_R   0.134423 0.519937 0.335130 -0.233939
C28   C     C_R   0.131008 0.494410 0.590498 0.019887
Cu1   Cu    Cu3+1 0.499990 0.499980 0.640670 0.924667
Cu2   Cu    Cu3+1 0.500010 0.500020 0.359330 0.926891
H1    H     H_    0.826318 0.526908 0.318943 0.142401
H2    H     H_    0.434453 0.886289 0.830282 0.180380
H3    H     H_    0.354102 0.123256 0.705703 0.191194
H4    H     H_    0.466364 0.101082 0.839346 0.181245
H5    H     H_    0.462169 0.309252 0.125363 0.135960
H6    H     H_    0.461427 0.310304 0.867851 0.138597
H7    H     H_    0.576145 0.794906 0.898721 0.155678
H8    H     H_    0.664260 0.658723 0.161618 0.207987
H9    H     H_    0.573235 0.787887 0.143168 0.183013
H10   H     H_    0.815787 0.421327 0.754064 0.153364
H11   H     H_    0.989422 0.536378 0.215960 0.135830
H12   H     H_    0.998539 0.418410 0.784962 0.156527
H13   H     H_    0.175472 0.532660 0.242051 0.168420
H14   H     H_    0.450060 0.118395 0.274405 0.151435
H15   H     H_    0.330049 0.904843 0.687419 0.193732
N1    N     N_R   0.500660 0.500930 0.148010 -0.179211
N2    N     N_R   0.500660 0.500890 0.852110 -0.188430
O1    O     O_R   0.500000 0.319640 0.618810 -0.589414
O2    O     O_R   0.500010 0.319680 0.381230 -0.591792
O3    O     O_R   0.348990 0.499960 0.599490 -0.593658
O4    O     O_R   0.349000 0.500000 0.361910 -0.586710
O5    O     O_R   0.499990 0.680320 0.618770 -0.579727
O6    O     O_R   0.500000 0.680360 0.381190 -0.590944
O7    O     O_R   0.651000 0.500000 0.638090 -0.591711
O8    O     O_R   0.651010 0.500040 0.400510 -0.580123
C29   C     C_3   0.709452 0.671423 0.897345 -0.303641
C30   C     C_3   0.742275 0.756706 0.777875 -0.318373
C31   C     C_3   0.858771 0.762968 0.773002 -0.881249
H16   H     H_    0.895000 0.814465 0.865493 0.247991
H17   H     H_    0.890684 0.669350 0.774327 0.270099
H18   H     H_    0.878491 0.811817 0.675786 0.247754
H19   H     H_    0.705547 0.724557 0.675145 0.233911
H20   H     H_    0.717361 0.852845 0.793120 0.207148
H21   H     H_    0.767466 0.685063 0.988667 0.187781
H22   H     H_    0.712154 0.572661 0.869092 0.212950
C32   C     C_3   0.179570 0.510584 0.741494 -0.370149
C33   C     C_3   0.209710 0.386066 0.810412 -0.328460
C34   C     C_3   0.220821 0.395952 0.970571 -0.869313
H23   H     H_    0.274151 0.473760 0.004456 0.261705
H24   H     H_    0.144803 0.411879 0.010037 0.244199
H25   H     H_    0.251232 0.308563 0.017351 0.239594
H26   H     H_    0.150899 0.312851 0.780252 0.207290
H27   H     H_    0.282953 0.355358 0.773689 0.236303
H28   H     H_    0.244249 0.579021 0.749913 0.209891
H29   H     H_    0.124900 0.557624 0.805026 0.178658
C35   C     C_3   0.392055 0.883777 0.233461 -0.416932
C36   C     C_3   0.281636 0.929388 0.208548 -0.345444
C37   C     C_3   0.226262 0.871795 0.076282 -0.870346
H30   H     H_    0.267349 0.896871 0.982531 0.255592
H31   H     H_    0.221809 0.769425 0.086804 0.249443
H32   H     H_    0.146963 0.906774 0.060590 0.245193
H33   H     H_    0.238444 0.904050 0.300460 0.223277
H34   H     H_    0.281865 0.031657 0.196235 0.217556
H35   H     H_    0.435271 0.912433 0.142823 0.181730
H36   H     H_    0.386114 0.781996 0.234580 0.233650

loop_
_geom_bond_atom_site_label_1
_geom_bond_atom_site_label_2
_ccdc_geom_bond_type
Cu2   O4    S    
C16   C21   S    
C1    C8    S    
C19   C20   S    
C20   C29   S    
C18   N2    A    
C35   H35   S    
C30   H19   S    
C36   C37   S    
C25   C28   A    
C26   C27   A    
Cu1   N2    S    
C34   H25   S    
C5    C6    A    
C4    C24   A    
C19   N2    A    
Cu1   O7    S    
C36   H34   S    
C31   H17   S    
C29   H22   S    
C32   H28   S    
C29   C30   S    
C33   H26   S    
C10   C35   S    
C21   H8    S    
C8    C9    A    
C23   C24   S    
C29   H21   S    
C33   H27   S    
C14   H15   S    
C9    C10   A    
C15   H4    S    
C31   H18   S    
C7    C15   S    
C32   C33   S    
C13   C14   S    
C2    C6    A    
C30   H20   S    
C22   O6    A    
Cu1   O3    S    
Cu2   O6    S    
Cu1   O1    S    
C33   C34   S    
C7    C8    A    
C17   N1    A    
C16   N1    A    
C37   H30   S    
C34   H23   S    
C31   H16   S    
C28   C32   S    
Cu1   Cu2   S    
C21   H9    S    
C17   C18   A    
C35   C36   S    
Cu2   O2    S    
C3    C4    A    
C12   O4    A    
C23   O7    A    
C22   O5    A    
C9    H14   S    
Cu2   N1    S    
C3    C26   A    
C14   H2    S    
C12   O3    A    
C1    O1    A    
C23   O8    A    
C25   C27   A    
Cu2   O8    S    
C11   C22   S    
C12   C25   S    
C2    C3    A    
C20   H7    S    
C11   C13   A    
C37   H32   S    
C30   C31   S    
C5    C24   A    
C1    O2    A    
C36   H33   S    
C16   C19   A    
C32   H29   S    
C37   H31   S    
C4    H1    S    
C10   C11   A    
C27   H13   S    
C7    C13   A    
C20   C21   S    
C34   H24   S    
C6    H12   S    
C5    H10   S    
C14   C15   S    
C2    C28   A    
C17   H5    S    
C18   H6    S    
C35   H36   S    
C15   H3    S    
C26   H11   S    
Cu1   O5    S    
