data_mof_unit_59276.cif
_audit_creation_date              2013-03-05T15:53:46-0500
_audit_creation_method            fapswitch 2.2
_symmetry_space_group_name_H-M    P1
_symmetry_Int_Tables_number       1
_space_group_crystal_system       triclinic
_cell_length_a                    10.710457
_cell_length_b                    10.710197
_cell_length_c                    9.933636
_cell_angle_alpha                 87.683293
_cell_angle_beta                  88.51016
_cell_angle_gamma                 88.640259
_cell_volume                      1137.88868374

loop_
_atom_site_label
_atom_site_type_symbol
_atom_site_description
_atom_site_fract_x
_atom_site_fract_y
_atom_site_fract_z
_atom_type_partial_charge
O1    O     O_R   0.500000 0.316780 0.614690 -0.626238
O2    O     O_R   0.499990 0.316750 0.385360 -0.598777
C1    C     C_R   0.519285 0.261019 0.503291 0.991152
O3    O     O_R   0.314800 0.499990 0.614670 -0.608787
O4    O     O_R   0.314790 0.499970 0.385330 -0.651926
C2    C     C_R   0.257857 0.504091 0.499767 0.941769
Zn1   Zn    Zn3+2 0.500010 0.500020 0.653130 1.011739
Zn2   Zn    Zn3+2 0.499990 0.499980 0.346870 1.018458
O5    O     O_R   0.500010 0.683250 0.614640 -0.604455
O6    O     O_R   0.500000 0.683220 0.385310 -0.589129
O7    O     O_R   0.685210 0.500030 0.614670 -0.627910
O8    O     O_R   0.685200 0.500010 0.385330 -0.597549
C3    C     C_R   0.495561 0.741251 0.499092 0.912491
C4    C     C_R   0.742125 0.503005 0.497229 0.867108
C5    C     C_3   0.072443 0.379005 0.560839 0.134742
H1    H     H_    0.096686 0.375226 0.669338 0.133241
C6    C     C_3   0.928522 0.378908 0.552746 -0.409741
H2    H     H_    0.892624 0.301150 0.495534 0.237919
H3    H     H_    0.890856 0.366061 0.657211 0.198302
H4    H     H_    0.104140 0.626767 0.667873 0.208626
H5    H     H_    0.897054 0.589063 0.687958 0.202994
C7    C     C_3   0.065464 0.620982 0.565700 -0.001436
C8    C     C_3   0.076752 0.510601 0.346278 -0.375855
C9    C     C_3   0.121347 0.503971 0.494703 -0.125697
H6    H     H_    0.121985 0.585843 0.283501 0.206048
H7    H     H_    0.104307 0.422718 0.296887 0.225045
C10   C     C_3   0.878670 0.504390 0.490975 -0.011144
C11   C     C_3   0.922723 0.609857 0.580112 -0.483338
C12   C     C_3   0.935434 0.530897 0.344141 0.050575
H8    H     H_    0.915510 0.630898 0.316882 0.176744
H9    H     H_    0.874998 0.700081 0.551543 0.211528
C13   C     C_R   0.548574 0.097657 0.764885 0.124710
C14   C     C_R   0.491709 0.039408 0.879874 0.242143
C15   C     C_R   0.412651 0.940689 0.861797 -0.244736
H10   H     H_    0.359001 0.901633 0.946703 0.227962
C16   C     C_R   0.399880 0.890338 0.735728 0.357581
C17   C     C_R   0.468692 0.940645 0.621307 -0.059479
C18   C     C_R   0.519411 0.058528 0.634715 -0.039195
C19   C     C_R   0.549722 0.127378 0.515436 -0.186680
C20   C     C_R   0.600050 0.064128 0.406611 0.197277
C21   C     C_R   0.584881 0.935473 0.403129 0.159899
C22   C     C_R   0.504899 0.876047 0.501371 -0.182135
H11   H     H_    0.646122 0.625416 0.113764 0.177694
C23   C     C_R   0.332141 0.348414 0.150126 -0.159591
H12   H     H_    0.330111 0.336239 0.256339 0.242882
C24   C     C_R   0.248191 0.275653 0.086481 -0.180989
H13   H     H_    0.185729 0.217036 0.147137 0.238491
C25   C     C_R   0.249065 0.272301 0.947110 0.274245
C26   C     C_R   0.334320 0.345600 0.871398 -0.242400
H14   H     H_    0.334971 0.336321 0.765345 0.238864
C27   C     C_R   0.416761 0.425762 0.933099 0.189359
C28   C     C_R   0.416149 0.426675 0.077487 0.206744
N1    N     N_R   0.498810 0.498800 0.142780 -0.119829
C29   C     C_R   0.579513 0.569927 0.065536 -0.044370
H15   H     H_    0.644741 0.627880 0.865061 0.147454
C30   C     C_R   0.579378 0.570375 0.922893 -0.035048
N2    N     N_R   0.498760 0.498720 0.857170 -0.096832
I1    I     I_    0.108001 0.794380 0.451284 -0.161548
I2    I     I_    0.732333 0.156918 0.278680 -0.056985
I3    I     I_    0.714323 0.201256 0.786038 -0.174730
N3    N     N_R   0.508540 0.080998 0.014172 0.233144
O9    O     O_R   0.550848 0.191181 0.033497 -0.367851
O10   O     O_R   0.465208 0.016118 0.118056 -0.380305
N4    N     N_R   0.298309 0.807893 0.725638 0.198163
O11   O     O_R   0.187643 0.860414 0.727435 -0.302618
O12   O     O_R   0.309024 0.697384 0.783836 -0.414029
I4    I     I_    0.705615 0.834360 0.267422 -0.252082
N5    N     N_R   0.130974 0.268542 0.497744 0.236349
O13   O     O_R   0.246399 0.237666 0.522256 -0.387953
O14   O     O_R   0.072086 0.203399 0.412597 -0.346736
N6    N     N_R   0.166423 0.190576 0.883282 0.207507
O15   O     O_R   0.199618 0.140398 0.770561 -0.321351
O16   O     O_R   0.062638 0.156457 0.943663 -0.309940
I5    I     I_    0.874971 0.441405 0.167301 -0.249556

loop_
_geom_bond_atom_site_label_1
_geom_bond_atom_site_label_2
_geom_bond_distance
_ccdc_geom_bond_type
Zn2   N1    2.028276 S    
C7    I1    2.188794 S    
O4    Zn2   2.010258 S    
H15   C30   1.081842 S    
C26   H14   1.061989 S    
C5    C6    1.545660 S    
C12   H8    1.111157 S    
C27   N2    1.378859 A    
C13   C18   1.419937 A    
C4    C10   1.462566 S    
C10   C12   1.583135 S    
C21   C22   1.422495 A    
H11   C29   1.073574 S    
C15   C16   1.394575 A    
H4    C7    1.110734 S    
Zn2   O8    2.029880 S    
C2    C9    1.464284 S    
N4    O11   1.299881 A    
C23   C28   1.409230 A    
C26   C27   1.413906 A    
C28   N1    1.379870 A    
C14   C15   1.390273 A    
C1    C19   1.461310 S    
N6    O15   1.299195 A    
C21   I4    2.150146 S    
C20   I2    2.116851 S    
C7    C11   1.538793 S    
N1    C29   1.365912 A    
C30   N2    1.364561 A    
Zn1   O7    2.010259 S    
O4    C2    1.277803 A    
C17   C18   1.398841 A    
C16   C17   1.432185 A    
O3    Zn1   2.029878 S    
C25   C26   1.402250 A    
C5    N5    1.479806 S    
C8    C12   1.524567 S    
C14   N3    1.440486 S    
C3    C22   1.450645 S    
C6    H3    1.108094 S    
H5    C11   1.114074 S    
C23   C24   1.384961 A    
C6    H2    1.108696 S    
C29   C30   1.416824 A    
C8    H6    1.111389 S    
N3    O9    1.297299 A    
O7    C4    1.301744 A    
C7    C9    1.562080 S    
O3    C2    1.306739 A    
C13   I3    2.135062 S    
C25   N6    1.436113 S    
C27   C28   1.434561 A    
C6    C10   1.544057 S    
C24   C25   1.386153 A    
Zn1   O5    1.984100 S    
C10   C11   1.552561 S    
C18   C19   1.404924 A    
C23   H12   1.057590 S    
Zn2   O6    2.014437 S    
C15   H10   1.083608 S    
C24   H13   1.083108 S    
C8    H7    1.109227 S    
N6    O16   1.302229 A    
C17   C22   1.441655 A    
N3    O10   1.302145 A    
N5    O14   1.302437 A    
O5    C3    1.284301 A    
C19   C20   1.389119 A    
C20   C21   1.393208 A    
O2    C1    1.312087 A    
C12   I5    2.156076 S    
C8    C9    1.559995 S    
O1    Zn1   2.014437 S    
C16   N4    1.425350 S    
C5    C9    1.562558 S    
Zn1   N2    2.026043 S    
C11   H9    1.112436 S    
O2    Zn2   1.984100 S    
C5    H1    1.114102 S    
C13   C14   1.410375 A    
O8    C4    1.283505 A    
N5    O13   1.298733 A    
O1    C1    1.288242 A    
O6    C3    1.310975 A    
N4    O12   1.299973 A    
