data_mof_unit_53389.cif
_audit_creation_date              2012-12-11T15:20:44-0500
_audit_creation_method            fapswitch 2.2
_symmetry_space_group_name_H-M    P1
_symmetry_Int_Tables_number       1
_space_group_crystal_system       triclinic
_cell_length_a                    21.592244
_cell_length_b                    7.250241
_cell_length_c                    19.896243
_cell_angle_alpha                 89.786123
_cell_angle_beta                  87.675738
_cell_angle_gamma                 89.676573
_cell_volume                      3112.10522502

loop_
_atom_site_label
_atom_site_type_symbol
_atom_type_description
_atom_site_fract_x
_atom_site_fract_y
_atom_site_fract_z
_atom_type_partial_charge
O1    O     O_R   0.688010 0.379840 0.189360 -0.527623
O2    O     O_R   0.311990 0.620160 0.810640 -0.527624
O3    O     O_R   0.811990 0.879840 0.310640 -0.525018
O4    O     O_R   0.188010 0.120160 0.689360 -0.525018
O5    O     O_R   0.808630 0.708850 0.184280 -0.521421
O6    O     O_R   0.191370 0.291150 0.815720 -0.521421
O7    O     O_R   0.691370 0.208850 0.315720 -0.527126
O8    O     O_R   0.308630 0.791150 0.684280 -0.527126
C1    C     C_R   0.830468 0.540872 0.166739 0.737082
C2    C     C_R   0.169532 0.459128 0.833261 0.737082
C3    C     C_R   0.669527 0.041110 0.333256 0.736991
C4    C     C_R   0.330473 0.958889 0.666744 0.737003
O9    O     O_R   0.688260 0.709510 0.181570 -0.526710
O10   O     O_R   0.311740 0.290490 0.818430 -0.526711
O11   O     O_R   0.811740 0.209510 0.318430 -0.526535
O12   O     O_R   0.188260 0.790490 0.681570 -0.526534
O13   O     O_R   0.690760 0.880550 0.307920 -0.520931
O14   O     O_R   0.309240 0.119450 0.692080 -0.520929
O15   O     O_R   0.809240 0.380550 0.192080 -0.528249
O16   O     O_R   0.190760 0.619450 0.807920 -0.528250
C5    C     C_R   0.668615 0.541633 0.165951 0.792388
C6    C     C_R   0.331385 0.458367 0.834049 0.792386
C7    C     C_R   0.831294 0.040258 0.334042 0.792570
C8    C     C_R   0.168706 0.959743 0.665957 0.792574
O17   O     O_3   0.750960 0.546580 0.291460 -0.363851
O18   O     O_3   0.249040 0.453420 0.708540 -0.363849
O19   O     O_3   0.749040 0.046580 0.208540 -0.369737
O20   O     O_3   0.250960 0.953420 0.791460 -0.369739
V1    V     V_3+5 0.749820 0.821150 0.242310 1.491792
V2    V     V_3+5 0.250180 0.178850 0.757690 1.491796
V3    V     V_3+5 0.750180 0.321150 0.257690 1.486332
V4    V     V_3+5 0.249820 0.678850 0.742310 1.486339
C9    C     C_R   0.056690 0.941920 0.638811 0.241565
C10   C     C_R   0.943312 0.058105 0.361181 0.241562
C11   C     C_R   0.443608 0.486737 0.859676 0.242796
C12   C     C_R   0.556392 0.513263 0.140324 0.242796
C13   C     C_R   0.118792 0.972606 0.617302 -0.137956
C14   C     C_R   0.881212 0.027399 0.382693 -0.137957
C15   C     C_R   0.381476 0.464684 0.882718 -0.139638
C16   C     C_R   0.618524 0.535316 0.117281 -0.139639
C17   C     C_R   0.133439 0.019483 0.549929 0.171992
C18   C     C_R   0.866569 0.980537 0.450067 0.171961
C19   C     C_R   0.366741 0.450804 0.951998 0.172863
C20   C     C_R   0.633260 0.549198 0.048002 0.172866
C21   C     C_R   0.087265 0.007524 0.500995 -0.024628
C22   C     C_R   0.912744 0.992525 0.498998 -0.024632
C23   C     C_R   0.412759 0.488168 0.999434 -0.022536
C24   C     C_R   0.587241 0.511834 0.000565 -0.022537
C25   C     C_R   0.023981 0.994723 0.523514 -0.069832
C26   C     C_R   0.976026 0.005319 0.476478 -0.069829
C27   C     C_R   0.476076 0.492478 0.976519 -0.068979
C28   C     C_R   0.523924 0.507523 0.023481 -0.068979
C29   C     C_R   0.008574 0.974360 0.593233 -0.043250
C30   C     C_R   0.991431 0.025686 0.406759 -0.043260
C31   C     C_R   0.491631 0.478878 0.906662 -0.040855
C32   C     C_R   0.508369 0.521123 0.093337 -0.040855
C33   C     C_R   0.101975 0.003086 0.430671 0.271125
C34   C     C_R   0.898031 0.997030 0.569320 0.271164
C35   C     C_R   0.397856 0.526580 0.068293 0.273494
C36   C     C_R   0.602144 0.473425 0.931705 0.273491
C37   C     C_R   0.054159 0.004692 0.384504 0.240017
C38   C     C_R   0.945848 0.995404 0.615487 0.240006
C39   C     C_R   0.445543 0.549834 0.113820 0.241958
C40   C     C_R   0.554458 0.450169 0.886179 0.241957
C41   C     C_1   0.382734 0.968775 0.614632 -0.158409
C42   C     C_1   0.617267 0.031225 0.385368 -0.158419
C43   C     C_1   0.117278 0.469355 0.885358 -0.158702
C44   C     C_1   0.882722 0.530645 0.114642 -0.158707
C45   C     C_1   0.426325 0.979630 0.571836 0.028159
C46   C     C_1   0.573675 0.020370 0.428164 0.028156
C47   C     C_1   0.073683 0.480091 0.928157 0.030965
C48   C     C_1   0.926317 0.519909 0.071843 0.030962
C49   C     C_1   0.478137 0.993860 0.521295 0.026216
C50   C     C_1   0.521863 0.006140 0.478705 0.026216
C51   C     C_1   0.021867 0.494007 0.978702 0.029239
C52   C     C_1   0.978133 0.505992 0.021299 0.029238
N1    N     N_2   0.044010 0.855959 0.702762 -0.520778
H1    H     H_    0.006152 0.769962 0.706852 0.290892
C53   C     C_3   0.058718 0.955186 0.763310 -0.426077
H2    H     H_    0.018197 0.955313 0.799489 0.221151
H3    H     H_    0.071452 0.100809 0.752149 0.190474
H4    H     H_    0.097624 0.884880 0.787827 0.177037
N2    N     N_2   0.955985 0.144064 0.297229 -0.520782
H5    H     H_    0.993835 0.230094 0.293136 0.290891
C54   C     C_3   0.941280 0.044821 0.236684 -0.426075
H6    H     H_    0.981801 0.044702 0.200504 0.221158
H7    H     H_    0.902371 0.115109 0.212165 0.177038
H8    H     H_    0.928552 0.899195 0.247848 0.190461
N3    N     N_2   0.456355 0.541877 0.791357 -0.523477
H9    H     H_    0.494130 0.625813 0.781898 0.289761
C55   C     C_3   0.441465 0.415922 0.737844 -0.426200
H10   H     H_    0.482048 0.398797 0.702298 0.219756
H11   H     H_    0.402734 0.474013 0.709324 0.176117
H12   H     H_    0.428366 0.277526 0.757833 0.191701
N4    N     N_2   0.543645 0.458122 0.208642 -0.523476
H13   H     H_    0.505870 0.374185 0.218101 0.289760
C56   C     C_3   0.558535 0.584076 0.262155 -0.426197
H14   H     H_    0.517952 0.601201 0.297702 0.219757
H15   H     H_    0.571635 0.722471 0.242168 0.191701
H16   H     H_    0.597266 0.525983 0.290677 0.176116
Br1   Br    Br    0.215156 0.120251 0.530253 -0.583439
Br2   Br    Br    0.784858 0.879736 0.469756 -0.583428
Br3   Br    Br    0.285066 0.358758 0.977599 -0.580486
Br4   Br    Br    0.714934 0.641244 0.022401 -0.580490
N5    N     N_2   0.163527 0.965202 0.405433 -0.483316
H17   H     H_    0.190574 0.873030 0.430936 0.294578
C57   C     C_3   0.194627 0.103172 0.363385 -0.332316
H18   H     H_    0.236923 0.152116 0.387448 0.211932
H19   H     H_    0.164063 0.223958 0.354318 0.197158
H20   H     H_    0.208963 0.040726 0.314317 0.217029
N6    N     N_2   0.836484 0.035053 0.594547 -0.483331
H21   H     H_    0.809452 0.127186 0.569009 0.294558
C58   C     C_3   0.805356 0.897218 0.636630 -0.332314
H22   H     H_    0.763063 0.848249 0.612567 0.211925
H23   H     H_    0.791010 0.959808 0.685670 0.217031
H24   H     H_    0.835903 0.776428 0.645751 0.197196
N7    N     N_2   0.336170 0.573609 0.090618 -0.482459
H25   H     H_    0.309008 0.650791 0.059561 0.297136
C59   C     C_3   0.305263 0.457017 0.140889 -0.327741
H26   H     H_    0.263256 0.394855 0.120311 0.213754
H27   H     H_    0.290505 0.541987 0.185012 0.216445
H28   H     H_    0.336116 0.344133 0.157783 0.198383
N8    N     N_2   0.663832 0.426407 0.909379 -0.482455
H29   H     H_    0.690995 0.349221 0.940434 0.297134
C60   C     C_3   0.694737 0.543011 0.859109 -0.327736
H30   H     H_    0.736742 0.605176 0.879688 0.213751
H31   H     H_    0.663882 0.655896 0.842217 0.198380
H32   H     H_    0.709495 0.458049 0.814984 0.216438
Br5   Br    Br    0.075536 0.922795 0.293882 -0.560707
Br6   Br    Br    0.924484 0.077370 0.706104 -0.560724
Br7   Br    Br    0.423811 0.673705 0.197685 -0.561841
Br8   Br    Br    0.576190 0.326300 0.802314 -0.561854

loop_
_geom_bond_atom_site_label_1
_geom_bond_atom_site_label_2
_ccdc_geom_bond_type
C34   C38   A    
C33   N5    S    
O1    C5    A    
O19   V1    S    
N4    H13   S    
O13   V1    S    
C49   C50   T    
C38   Br6   S    
O3    C7    A    
N6    H21   S    
C48   C52   S    
O15   V3    S    
C56   H14   S    
C20   Br4   S    
N8    H29   S    
C54   H6    S    
O7    C3    A    
N5    C57   S    
C21   C33   A    
C26   C30   A    
O9    V1    S    
C14   C18   A    
N7    C59   S    
O4    C8    A    
C25   C29   A    
N8    C60   S    
O1    V3    S    
O2    V4    S    
C18   C22   A    
O3    V1    S    
C46   C50   S    
C1    O15   A    
C40   Br8   S    
C2    O16   A    
O2    C6    A    
C60   H32   S    
C57   H18   S    
C45   C49   S    
O14   V2    S    
C39   Br7   S    
N3    C55   S    
C16   C20   A    
C27   C31   A    
C3    C42   S    
C37   Br5   S    
C58   H24   S    
O11   C7    A    
O12   C8    A    
C22   C34   A    
C57   H19   S    
O10   V2    S    
C18   Br2   S    
C56   H15   S    
C24   C36   A    
O5    V1    S    
C59   H27   S    
C9    C29   A    
O7    V3    S    
C54   H7    S    
C11   C31   A    
C27   C28   A    
O8    V4    S    
C12   C16   A    
N1    C53   S    
C55   H10   S    
C53   H3    S    
O18   V4    S    
C15   C19   A    
C2    C43   S    
C9    C13   A    
C34   N6    S    
C44   C48   T    
C36   N8    S    
C11   C15   A    
C51   C52   T    
O5    C1    A    
C12   C32   A    
C55   H11   S    
C29   C38   A    
C4    C41   S    
N2    H5    S    
C21   C25   A    
O8    C4    A    
C31   C40   A    
C8    C13   S    
C32   C39   A    
O9    C5    A    
N6    C58   S    
C33   C37   A    
C11   N3    S    
O6    V2    S    
C10   C30   A    
C60   H30   S    
C57   H20   S    
C10   N2    S    
C56   H16   S    
C58   H22   S    
O16   V4    S    
C54   H8    S    
C3    O13   A    
N2    C54   S    
C10   C14   A    
O17   V3    S    
O6    C2    A    
C53   H4    S    
C23   C27   A    
C59   H26   S    
N4    C56   S    
O11   V3    S    
C30   C37   A    
O12   V4    S    
C7    C14   S    
N5    H17   S    
C22   C26   A    
C35   C39   A    
C36   C40   A    
O10   C6    A    
O20   V2    S    
C1    C44   S    
N7    H25   S    
C55   H12   S    
C47   C51   S    
C12   N4    S    
C9    N1    S    
C42   C46   T    
C5    C16   S    
C41   C45   T    
C6    C15   S    
C59   H28   S    
C17   Br1   S    
C43   C47   T    
C13   C17   A    
C19   Br3   S    
C23   C35   A    
C53   H2    S    
C28   C32   A    
C24   C28   A    
C35   N7    S    
C25   C26   A    
C4    O14   A    
C60   H31   S    
C17   C21   A    
N1    H1    S    
N3    H9    S    
C19   C23   A    
O4    V2    S    
C20   C24   A    
C58   H23   S    
