data_mof_unit_40130.cif
_audit_creation_date              2012-12-10T17:58:20-0500
_audit_creation_method            fapswitch 2.2
_symmetry_space_group_name_H-M    P1
_symmetry_Int_Tables_number       1
_space_group_crystal_system       triclinic
_cell_length_a                    9.633679
_cell_length_b                    10.814508
_cell_length_c                    15.494615
_cell_angle_alpha                 88.521347
_cell_angle_beta                  71.264561
_cell_angle_gamma                 89.315419
_cell_volume                      1528.22474383

loop_
_atom_site_label
_atom_site_type_symbol
_atom_type_description
_atom_site_fract_x
_atom_site_fract_y
_atom_site_fract_z
_atom_type_partial_charge
C1    C     C_R   0.000262 0.262506 0.500509 0.937295
C2    C     C_R   0.999730 0.737482 0.499505 0.968851
C3    C     C_R   0.590786 0.632845 0.095467 0.400595
C4    C     C_R   0.430915 0.684007 0.910676 0.389804
C5    C     C_R   0.709403 0.556913 0.054508 0.648343
C6    C     C_R   0.290341 0.637006 0.950285 0.703965
C7    C     C_R   0.869660 0.063811 0.542672 0.507949
C8    C     C_R   0.130312 0.936123 0.457371 0.526920
C9    C     C_R   0.869050 0.935774 0.541740 0.528726
C10   C     C_R   0.130951 0.064152 0.458401 0.503384
C11   C     C_R   0.999368 0.871472 0.499148 -0.498597
C12   C     C_R   0.000612 0.128479 0.500915 -0.480782
C13   C     C_R   0.542243 0.438752 0.566483 0.027378
C14   C     C_R   0.457791 0.561579 0.433712 0.021493
C15   C     C_R   0.395153 0.436679 0.566497 0.507376
C16   C     C_R   0.605021 0.563199 0.433413 0.518088
C17   C     C_R   0.913989 0.501784 0.672608 0.924711
C18   C     C_R   0.086016 0.504647 0.327138 0.843887
C19   C     C_R   0.856337 0.509421 0.772713 -0.266543
C20   C     C_R   0.143399 0.525555 0.227008 -0.331472
C21   C     C_R   0.842509 0.431683 0.923122 0.447473
C22   C     C_R   0.129228 0.509466 0.073732 0.516261
C23   C     C_R   0.908103 0.429152 0.827891 0.367304
C24   C     C_R   0.077432 0.474386 0.166978 0.292732
C25   C     C_R   0.735131 0.587158 0.812001 0.556775
C26   C     C_R   0.271176 0.597484 0.190939 0.598198
C27   C     C_R   0.673669 0.596387 0.907954 -0.124996
C28   C     C_R   0.333333 0.620244 0.096116 -0.158187
C29   C     C_R   0.742475 0.527551 0.962296 -0.290631
C30   C     C_R   0.247619 0.591193 0.040593 -0.286862
C31   C     C_R   0.536526 0.656251 0.954157 -0.154705
C32   C     C_R   0.484377 0.650945 0.051455 -0.152814
Cu1   Cu    Cu3+1 0.140660 0.500020 0.500000 1.078623
Cu2   Cu    Cu3+1 0.859340 0.499980 0.500000 1.066398
H1    H     H_    0.571835 0.388616 0.619410 0.200828
H2    H     H_    0.428277 0.612300 0.381153 0.257481
N1    N     N_R   0.352080 0.500030 0.499980 -0.278005
N2    N     N_R   0.647920 0.499970 0.500020 -0.269474
O1    O     O_R   0.118740 0.319660 0.500000 -0.570558
O2    O     O_R   0.881260 0.680340 0.500000 -0.560990
O3    O     O_R   0.881170 0.319630 0.500010 -0.545978
O4    O     O_R   0.118830 0.680370 0.499990 -0.527225
O5    O     O_R   0.055570 0.500030 0.629830 -0.556584
O6    O     O_R   0.944430 0.499970 0.370170 -0.583938
O7    O     O_R   0.818000 0.500000 0.629840 -0.545470
O8    O     O_R   0.182000 0.500000 0.370160 -0.527267
F1    F     F_    0.797803 0.520281 0.102989 -0.567736
F2    F     F_    0.194539 0.640815 0.902240 -0.567015
F3    F     F_    0.326167 0.652491 0.250160 -0.624768
F4    F     F_    0.683624 0.655216 0.754365 -0.594448
O9    O     O_3   0.964153 0.390116 0.195870 -0.628038
H3    H     H_    0.967601 0.347641 0.252472 0.334809
O10   O     O_3   0.014069 0.342788 0.786713 -0.671056
H4    H     H_    0.048926 0.300335 0.833355 0.397640
O11   O     O_3   0.862747 0.330679 0.974207 -0.697796
H5    H     H_    0.781004 0.326270 0.032570 0.368734
O12   O     O_3   0.081002 0.450628 0.011253 -0.603932
H6    H     H_    0.056996 0.364503 0.034010 0.384611
O13   O     O_3   0.587341 0.691396 0.173882 -0.582948
H7    H     H_    0.532212 0.769926 0.175580 0.382772
O14   O     O_3   0.456555 0.762053 0.835707 -0.568750
H8    H     H_    0.539213 0.816650 0.834676 0.381132
F5    F     F_    0.743046 0.124198 0.586390 -0.578005
F6    F     F_    0.256886 0.875732 0.413548 -0.554811
F7    F     F_    0.742138 0.874857 0.584738 -0.532767
F8    F     F_    0.257926 0.125041 0.415548 -0.573077
O15   O     O_3   0.299178 0.368543 0.635611 -0.654377
H9    H     H_    0.224023 0.335260 0.612474 0.387198
O16   O     O_3   0.701382 0.630553 0.363855 -0.636071
H10   H     H_    0.776610 0.664228 0.386788 0.368940

loop_
_geom_bond_atom_site_label_1
_geom_bond_atom_site_label_2
_ccdc_geom_bond_type
C19   C23   A    
O11   H5    S    
C17   O5    A    
Cu2   O3    S    
C18   O6    A    
C27   C29   A    
C5    F1    S    
C18   C20   S    
C31   C32   A    
C18   O8    A    
C15   O15   S    
O14   H8    S    
C22   O12   S    
C13   C15   A    
Cu1   Cu2   S    
O12   H6    S    
C21   O11   S    
O13   H7    S    
Cu2   O7    S    
O10   H4    S    
C14   N1    A    
Cu1   O8    S    
C9    C11   A    
C7    F5    S    
C13   N2    A    
Cu1   O1    S    
C1    C12   S    
C20   C26   A    
C2    O4    A    
C8    C11   A    
Cu2   O2    S    
Cu1   O4    S    
C10   C12   A    
C23   O10   S    
C1    O3    A    
C26   C28   A    
C17   C19   S    
C8    F6    S    
Cu1   N1    S    
C13   H1    S    
C5    C29   A    
O16   H10   S    
C10   F8    S    
C21   C23   A    
C14   H2    S    
C3    C32   A    
C19   C25   A    
C14   C16   A    
C7    C12   A    
C26   F3    S    
C4    C31   A    
C25   C27   A    
C1    O1    A    
C27   C31   A    
O15   H9    S    
Cu1   O5    S    
C2    O2    A    
C28   C32   A    
Cu2   O6    S    
C4    C6    A    
C22   C24   A    
C16   N2    A    
C6    F2    S    
C7    C9    A    
C20   C24   A    
C25   F4    S    
C24   O9    S    
C2    C11   S    
C22   C30   A    
C9    F7    S    
C6    C30   A    
Cu2   N2    S    
C21   C29   A    
C4    O14   S    
C8    C10   A    
C15   N1    A    
C16   O16   S    
O9    H3    S    
C17   O7    A    
C28   C30   A    
C3    C5    A    
C3    O13   S    
