data_mof_unit_53898.cif
_audit_creation_date              2012-12-10T17:33:44-0500
_audit_creation_method            fapswitch 2.2
_symmetry_space_group_name_H-M    P1
_symmetry_Int_Tables_number       1
_space_group_crystal_system       triclinic
_cell_length_a                    11.677149
_cell_length_b                    12.36935
_cell_length_c                    13.260126
_cell_angle_alpha                 116.96433
_cell_angle_beta                  76.255585
_cell_angle_gamma                 101.218484
_cell_volume                      1649.82460965

loop_
_atom_site_label
_atom_site_type_symbol
_atom_type_description
_atom_site_fract_x
_atom_site_fract_y
_atom_site_fract_z
_atom_type_partial_charge
C1    C     C_R   0.503727 0.855764 0.287790 0.914651
C2    C     C_R   0.458513 0.230402 0.836457 -0.388477
C3    C     C_R   0.566873 0.817300 0.084426 -0.390204
C4    C     C_R   0.603152 0.735688 0.971700 0.387853
C5    C     C_R   0.579681 0.610796 0.940776 0.665833
C6    C     C_R   0.498035 0.566255 0.015130 -0.122956
C7    C     C_R   0.456585 0.650410 0.128161 -0.159424
C8    C     C_R   0.460951 0.440387 0.982634 -0.134873
C9    C     C_R   0.401060 0.398481 0.066570 -0.292091
C10   C     C_R   0.348103 0.483005 0.173803 0.415396
C11   C     C_R   0.370350 0.607885 0.200309 0.559700
C12   C     C_R   0.715634 0.000527 0.500534 0.823038
C13   C     C_R   0.471938 0.356174 0.867398 0.655477
C14   C     C_R   0.418878 0.188727 0.922384 0.430864
C15   C     C_R   0.502441 0.774822 0.165360 -0.127940
C16   C     C_R   0.726729 0.374394 0.390618 0.612476
C17   C     C_R   0.332535 0.756653 0.637266 -0.082267
C18   C     C_R   0.296357 0.664096 0.673241 0.489082
C19   C     C_R   0.362713 0.565455 0.629620 0.527161
C20   C     C_R   0.467145 0.557981 0.547775 -0.283941
C21   C     C_R   0.505524 0.658555 0.517057 0.006497
C22   C     C_R   0.536337 0.455608 0.495372 -0.097023
C23   C     C_R   0.480171 0.145647 0.713785 0.895274
C24   C     C_R   0.655270 0.471377 0.444319 -0.135332
C25   C     C_R   0.699731 0.582031 0.441530 0.459905
C26   C     C_R   0.620260 0.657160 0.445977 0.362089
C27   C     C_R   0.494446 0.338376 0.491100 0.144811
C28   C     C_R   0.679250 0.261591 0.386543 -0.058016
C29   C     C_R   0.284220 0.000161 0.500444 0.834241
C30   C     C_1   0.837415 0.001011 0.500860 -0.159256
C31   C     C_1   0.939970 0.000767 0.500820 0.034261
C32   C     C_1   0.059797 0.000257 0.500625 0.051153
C33   C     C_1   0.162383 0.000010 0.500511 -0.101597
C34   C     C_R   0.387844 0.271855 0.037230 0.433331
Cu1   Cu    Cu3+1 0.526510 0.098270 0.475420 0.988821
Cu2   Cu    Cu3+1 0.473490 0.901730 0.524580 1.029954
H1    H     H_    0.405400 0.318019 0.528519 0.208292
H2    H     H_    0.280341 0.832955 0.672666 0.209731
H3    H     H_    0.598307 0.912889 0.110164 0.201723
H4    H     H_    0.734373 0.187197 0.347097 0.168624
N1    N     N_R   0.566700 0.246290 0.438210 -0.256789
N2    N     N_R   0.434010 0.754320 0.561170 -0.217106
O1    O     O_R   0.533340 0.972510 0.318140 -0.625472
O2    O     O_R   0.488570 0.806530 0.359650 -0.478231
O3    O     O_R   0.685190 0.083000 0.479260 -0.579772
O4    O     O_R   0.640410 0.917020 0.520770 -0.539763
O5    O     O_R   0.511430 0.193470 0.640350 -0.495430
O6    O     O_R   0.466660 0.027490 0.681860 -0.545421
O7    O     O_R   0.359590 0.082980 0.479230 -0.602992
O8    O     O_R   0.314810 0.917000 0.520740 -0.550520
F1    F     F_    0.401349 0.067412 0.894882 -0.638726
F2    F     F_    0.819114 0.609062 0.421393 -0.621781
F3    F     F_    0.840505 0.386646 0.338525 -0.594633
F4    F     F_    0.327890 0.483493 0.675201 -0.600420
F5    F     F_    0.196791 0.671022 0.752474 -0.579842
O9    O     O_3   0.643699 0.711381 0.369790 -0.558868
C35   C     C_3   0.754751 0.692352 0.294658 0.109141
H5    H     H_    0.767196 0.593515 0.246440 0.191451
H6    H     H_    0.827613 0.744322 0.343900 0.220246
C36   C     C_3   0.763197 0.739781 0.205522 -0.792503
H7    H     H_    0.854325 0.734347 0.155069 0.246356
H8    H     H_    0.701276 0.682149 0.145454 0.237412
H9    H     H_    0.743816 0.836347 0.247508 0.234830
O10   O     O_3   0.253563 0.442237 0.237738 -0.483813
C37   C     C_3   0.280847 0.469414 0.345280 0.108074
H10   H     H_    0.289190 0.569245 0.399576 0.184927
H11   H     H_    0.364433 0.432225 0.335030 0.107827
C38   C     C_3   0.180267 0.411043 0.406881 -0.630821
H12   H     H_    0.163971 0.312150 0.351547 0.264228
H13   H     H_    0.202876 0.422261 0.487856 0.192666
H14   H     H_    0.097936 0.454574 0.427180 0.295530
O11   O     O_3   0.340739 0.228276 0.119446 -0.496319
C39   C     C_3   0.434134 0.196959 0.149062 0.072030
H15   H     H_    0.493187 0.279870 0.193030 0.101330
H16   H     H_    0.488270 0.131037 0.072428 0.175678
C40   C     C_3   0.382582 0.136737 0.229913 -0.717557
H17   H     H_    0.320415 0.055774 0.189354 0.270448
H18   H     H_    0.455220 0.106819 0.248848 0.217656
H19   H     H_    0.334897 0.201978 0.311607 0.225930
F6    F     F_    0.475728 0.396591 0.786742 -0.557805
F7    F     F_    0.645386 0.536166 0.842752 -0.583578
O12   O     O_3   0.675932 0.777629 0.895607 -0.526989
C41   C     C_3   0.603362 0.800609 0.837530 0.098264
H20   H     H_    0.543743 0.871856 0.899042 0.165150
H21   H     H_    0.548940 0.715737 0.788857 0.173657
C42   C     C_3   0.680961 0.846456 0.752364 -0.683660
H22   H     H_    0.738779 0.775821 0.687199 0.271356
H23   H     H_    0.624285 0.867167 0.708255 0.218568
H24   H     H_    0.737021 0.930839 0.797948 0.248126
F8    F     F_    0.299478 0.686199 0.290646 -0.648911

loop_
_geom_bond_atom_site_label_1
_geom_bond_atom_site_label_2
_ccdc_geom_bond_type
C16   C28   A    
C21   C26   A    
C8    C13   A    
C39   H15   S    
Cu2   N2    S    
Cu1   Cu2   S    
C40   H19   S    
Cu1   O5    S    
Cu2   O8    S    
C29   O7    A    
C7    C11   A    
C36   H9    S    
C40   H18   S    
C14   F1    S    
C30   C31   T    
C42   H23   S    
C35   H6    S    
C28   H4    S    
C29   C33   S    
C28   N1    A    
O9    C35   S    
C36   H8    S    
C18   C19   A    
C2    C13   A    
C17   N2    A    
C16   F3    S    
C1    O1    A    
C19   C20   A    
C38   H12   S    
C37   H11   S    
Cu1   O7    S    
Cu2   O4    S    
C1    C15   S    
Cu1   O1    S    
C9    C10   A    
C7    C15   A    
C13   F6    S    
C3    H3    S    
C16   C24   A    
C39   H16   S    
C2    C14   A    
C29   O8    A    
C23   O5    A    
C24   C25   A    
C12   O4    A    
C42   H22   S    
C12   O3    A    
C35   C36   S    
C6    C8    A    
C25   C26   A    
C36   H7    S    
C5    F7    S    
C27   N1    A    
C1    O2    A    
C41   H20   S    
C37   C38   S    
C17   C18   A    
C8    C9    A    
C40   H17   S    
C18   F5    S    
C19   F4    S    
C41   H21   S    
C20   C22   A    
C37   H10   S    
C22   C27   A    
C9    C34   A    
C39   C40   S    
C22   C24   A    
Cu2   O2    S    
C3    C4    A    
Cu1   O3    S    
C34   O11   S    
C3    C15   A    
C23   O6    A    
C12   C30   S    
C31   C32   S    
C10   O10   S    
O11   C39   S    
C42   H24   S    
C26   O9    S    
C14   C34   A    
C6    C7    A    
C32   C33   T    
C25   F2    S    
O10   C37   S    
C11   F8    S    
C35   H5    S    
C5    C6    A    
C27   H1    S    
C38   H14   S    
Cu2   O6    S    
C17   H2    S    
Cu1   N1    S    
C10   C11   A    
C21   N2    A    
C4    C5    A    
C41   C42   S    
C4    O12   S    
C20   C21   A    
C38   H13   S    
O12   C41   S    
C2    C23   S    
