data_mof_unit_25576.cif
_audit_creation_date              2012-12-10T20:55:49-0500
_audit_creation_method            fapswitch 2.2
_symmetry_space_group_name_H-M    P1
_symmetry_Int_Tables_number       1
_space_group_crystal_system       triclinic
_cell_length_a                    15.843676
_cell_length_b                    15.020557
_cell_length_c                    10.661742
_cell_angle_alpha                 89.425936
_cell_angle_beta                  89.883143
_cell_angle_gamma                 90.558414
_cell_volume                      2537.03665282

loop_
_atom_site_label
_atom_site_type_symbol
_atom_type_description
_atom_site_fract_x
_atom_site_fract_y
_atom_site_fract_z
_atom_type_partial_charge
C1    C     C_1   0.250448 0.498978 0.498984 -0.181863
C2    C     C_R   0.423620 0.046793 0.487856 0.342237
C3    C     C_R   0.957546 0.580954 0.510291 -0.182296
C4    C     C_R   0.042562 0.419217 0.486696 -0.181532
C5    C     C_R   0.045047 0.580318 0.509961 -0.181049
C6    C     C_R   0.955056 0.419851 0.487025 -0.180144
C7    C     C_R   0.338786 0.499694 0.499601 0.863892
C8    C     C_R   0.661206 0.500392 0.500070 0.931360
C9    C     C_R   0.479778 0.500230 0.264139 0.904574
C10   C     C_R   0.497323 0.499256 0.742847 0.895274
C11   C     C_R   0.913201 0.500708 0.498900 0.170518
C12   C     C_1   0.749587 0.501170 0.499866 -0.188703
C13   C     C_R   0.086892 0.499455 0.498241 0.168725
C14   C     C_1   0.500250 0.807190 0.499298 0.196511
C15   C     C_1   0.499931 0.192819 0.498992 0.220113
C16   C     C_1   0.824428 0.501233 0.499491 -0.070912
C17   C     C_1   0.175637 0.498900 0.498519 -0.068980
C18   C     C_R   0.436372 0.666792 0.111373 0.022518
C19   C     C_R   0.404556 0.348663 0.872354 -0.012937
C20   C     C_R   0.548899 0.649932 0.909425 0.030200
C21   C     C_R   0.401880 0.341958 0.129383 -0.007714
C22   C     C_R   0.472869 0.743545 0.056283 0.415629
C23   C     C_R   0.481793 0.497673 0.878321 -0.114919
C24   C     C_R   0.400926 0.265114 0.932670 0.422601
C25   C     C_R   0.532093 0.734744 0.958474 0.409799
C26   C     C_R   0.404091 0.261655 0.063074 0.446201
C27   C     C_R   0.498241 0.575872 0.949087 -0.057091
C28   C     C_R   0.431468 0.421795 0.069330 -0.031045
C29   C     C_R   0.458611 0.581778 0.065364 -0.033196
C30   C     C_R   0.439725 0.422842 0.937377 -0.046337
C31   C     C_3   0.471151 0.154590 0.172118 -0.317510
C32   C     C_3   0.527059 0.853655 0.826044 -0.263012
C33   C     C_3   0.446119 0.150369 0.815072 -0.234968
C34   C     C_R   0.449362 0.501712 0.133999 -0.127809
C35   C     C_3   0.511925 0.862225 0.174840 -0.266764
C36   C     C_3   0.298181 0.071572 0.382719 -0.129467
C37   C     C_3   0.680813 0.873090 0.406106 -0.263535
C38   C     C_3   0.683444 0.121802 0.400555 -0.253578
C39   C     C_3   0.318055 0.897257 0.616151 -0.267686
C40   C     C_3   0.368225 0.677658 0.209257 -0.684171
C41   C     C_3   0.347422 0.360574 0.761166 -0.660091
C42   C     C_3   0.628080 0.639364 0.831713 -0.708635
C43   C     C_3   0.349580 0.342070 0.247486 -0.698708
C44   C     C_R   0.500807 0.905094 0.497418 -0.320908
C45   C     C_R   0.500196 0.094925 0.496469 -0.315545
C46   C     C_R   0.423918 0.951798 0.493551 0.362894
C47   C     C_R   0.577061 0.048199 0.502040 0.381462
C48   C     C_R   0.577589 0.953914 0.501878 0.370111
H1    H     H_    0.079953 0.642342 0.518904 0.145578
H2    H     H_    0.473631 0.887941 0.872095 0.187603
H3    H     H_    0.486445 0.119977 0.888599 0.153642
H4    H     H_    0.483893 0.198380 0.757360 0.154525
H5    H     H_    0.424537 0.095929 0.753082 0.192022
H6    H     H_    0.534648 0.812535 0.244765 0.141983
H7    H     H_    0.485020 0.918743 0.227092 0.170605
H8    H     H_    0.565769 0.888835 0.118768 0.196840
H9    H     H_    0.246738 0.025659 0.413559 0.188024
H10   H     H_    0.333412 0.041302 0.303553 0.170426
H11   H     H_    0.268355 0.133026 0.345983 0.173149
H12   H     H_    0.920154 0.357816 0.478199 0.144370
H13   H     H_    0.663545 0.912806 0.321323 0.109262
H14   H     H_    0.655879 0.804148 0.397819 0.163812
H15   H     H_    0.750657 0.868921 0.407741 0.193021
H16   H     H_    0.638911 0.166861 0.351216 0.130230
H17   H     H_    0.698220 0.064012 0.340496 0.150661
H18   H     H_    0.743075 0.159619 0.414829 0.189995
H19   H     H_    0.305999 0.963868 0.656973 0.192646
H20   H     H_    0.362067 0.859069 0.676865 0.142006
H21   H     H_    0.257104 0.860330 0.614873 0.187071
H22   H     H_    0.316937 0.719446 0.170311 0.236785
H23   H     H_    0.924589 0.643457 0.519451 0.145839
H24   H     H_    0.339365 0.613027 0.238154 0.196626
H25   H     H_    0.394481 0.710979 0.293137 0.261483
H26   H     H_    0.283274 0.334776 0.784523 0.222903
H27   H     H_    0.339671 0.431897 0.737118 0.200481
H28   H     H_    0.371484 0.321972 0.680796 0.274828
H29   H     H_    0.682854 0.667298 0.883491 0.234219
H30   H     H_    0.642628 0.568509 0.813962 0.193640
H31   H     H_    0.622386 0.676145 0.741305 0.266937
H32   H     H_    0.289194 0.305745 0.231502 0.220964
H33   H     H_    0.383189 0.307806 0.324733 0.270043
H34   H     H_    0.075536 0.356712 0.477655 0.146135
H35   H     H_    0.331798 0.410509 0.273461 0.198025
H36   H     H_    0.494529 0.202119 0.243488 0.163813
H37   H     H_    0.519234 0.148183 0.096698 0.139789
H38   H     H_    0.464208 0.088329 0.217586 0.176621
H39   H     H_    0.502951 0.808071 0.752596 0.152392
H40   H     H_    0.566656 0.905396 0.779075 0.208294
N1    N     N_1   0.500000 0.270550 0.500000 -0.127101
N2    N     N_1   0.500000 0.729450 0.500000 -0.120784
O1    O     O_R   0.378020 0.573650 0.500040 -0.611046
O2    O     O_3   0.576986 0.808164 0.914614 -0.602578
O3    O     O_3   0.374671 0.190368 0.868398 -0.566231
O4    O     O_3   0.448627 0.826831 0.096622 -0.595827
O5    O     O_3   0.348918 0.094466 0.486654 -0.603039
O6    O     O_3   0.653749 0.911126 0.519752 -0.550954
O7    O     O_3   0.652241 0.094141 0.518820 -0.552013
O8    O     O_3   0.348748 0.904264 0.492186 -0.591423
O9    O     O_R   0.621980 0.426350 0.499960 -0.599213
O10   O     O_R   0.621980 0.573650 0.499960 -0.613543
O11   O     O_R   0.378020 0.426350 0.500040 -0.639206
O12   O     O_R   0.499990 0.573670 0.316780 -0.612754
O13   O     O_R   0.500010 0.426330 0.683220 -0.610688
O14   O     O_R   0.500010 0.573670 0.683220 -0.607332
O15   O     O_R   0.499990 0.426330 0.316780 -0.610432
O16   O     O_3   0.392257 0.180903 0.123929 -0.574431
Zn1   Zn    Zn3+2 0.500000 0.598370 0.500000 0.951197
Zn2   Zn    Zn3+2 0.500000 0.401630 0.500000 0.946593

loop_
_geom_bond_atom_site_label_1
_geom_bond_atom_site_label_2
_ccdc_geom_bond_type
C21   C26   A    
C31   H37   S    
C27   C29   A    
C43   H35   S    
C39   H20   S    
C36   H11   S    
C26   O16   S    
C37   H14   S    
C2    C46   A    
C33   H4    S    
O9    Zn2   S    
C40   H22   S    
C10   O13   A    
C8    O9    A    
C24   C26   A    
N2    Zn1   S    
C36   H10   S    
C15   N1    T    
C20   C25   A    
C9    O15   A    
C32   H40   S    
C40   H25   S    
C4    C13   A    
C18   C40   S    
C14   N2    T    
C41   H26   S    
C21   C43   S    
C12   C16   T    
C9    O12   A    
O10   Zn1   S    
C22   C25   A    
O13   Zn2   S    
C23   C27   A    
C48   O6    S    
C5    C13   A    
O11   Zn2   S    
C46   O8    S    
C28   C34   A    
C42   H31   S    
C31   H38   S    
C1    C7    S    
C35   H6    S    
C22   O4    S    
C5    H1    S    
C38   O7    S    
C37   H15   S    
C44   C46   A    
C38   H16   S    
C45   C47   A    
C2    C45   A    
C33   H5    S    
O15   Zn2   S    
C35   H7    S    
C23   C30   A    
O1    Zn1   S    
C4    C6    A    
C36   H9    S    
C6    C11   A    
C39   O8    S    
C43   H32   S    
C32   H39   S    
C29   C34   A    
C31   H36   S    
C37   O6    S    
C3    H23   S    
C6    H12   S    
C41   H27   S    
C11   C16   S    
C37   H13   S    
C47   C48   A    
C38   H17   S    
C8    C12   S    
C7    O1    A    
C39   H21   S    
O12   Zn1   S    
C18   C29   A    
C32   H2    S    
C21   C28   A    
C42   H30   S    
C9    C34   S    
C43   H33   S    
C31   O16   S    
C15   C45   S    
C14   C44   S    
C35   O4    S    
C38   H18   S    
C2    O5    S    
C25   O2    S    
C40   H24   S    
C35   H8    S    
C18   C22   A    
C39   H19   S    
C3    C5    A    
C33   O3    S    
C20   C42   S    
C20   C27   A    
C10   C23   S    
C33   H3    S    
C1    C17   T    
C47   O7    S    
C13   C17   S    
C10   O14   A    
C19   C24   A    
C8    O10   A    
C24   O3    S    
C41   H28   S    
C36   O5    S    
C32   O2    S    
N1    Zn2   S    
C28   C30   A    
C3    C11   A    
C19   C41   S    
C4    H34   S    
C42   H29   S    
C7    O11   A    
C19   C30   A    
O14   Zn1   S    
C44   C48   A    
