data_mof_unit_55835.cif
_audit_creation_date              2012-12-10T16:58:27-0500
_audit_creation_method            fapswitch 2.2
_symmetry_space_group_name_H-M    P1
_symmetry_Int_Tables_number       1
_space_group_crystal_system       triclinic
_cell_length_a                    7.803448
_cell_length_b                    8.547047
_cell_length_c                    23.351342
_cell_angle_alpha                 91.498954
_cell_angle_beta                  85.974437
_cell_angle_gamma                 93.216622
_cell_volume                      1550.77506697

loop_
_atom_site_label
_atom_site_type_symbol
_atom_type_description
_atom_site_fract_x
_atom_site_fract_y
_atom_site_fract_z
_atom_type_partial_charge
C1    C     C_R   0.545306 0.794449 0.498638 0.964133
C2    C     C_R   0.454684 0.205548 0.501380 0.963594
C3    C     C_R   0.360779 0.421383 0.764009 0.206272
C4    C     C_R   0.621739 0.577726 0.235299 0.205948
C5    C     C_R   0.358863 0.431963 0.704655 -0.261748
C6    C     C_R   0.622641 0.581860 0.294940 -0.264086
C7    C     C_R   0.504933 0.491440 0.672364 -0.118760
C8    C     C_R   0.493233 0.499017 0.327945 -0.112011
C9    C     C_R   0.652796 0.543111 0.699434 -0.277138
C10   C     C_R   0.361924 0.412154 0.301798 -0.278391
C11   C     C_R   0.654278 0.537804 0.758754 0.404203
C12   C     C_R   0.361733 0.404437 0.242368 0.403456
C13   C     C_R   0.508845 0.475952 0.790998 0.213584
C14   C     C_R   0.491551 0.487322 0.209135 0.212419
C15   C     C_2   0.569366 0.957769 0.498008 -0.377867
C16   C     C_2   0.430581 0.042223 0.502053 -0.376555
C17   C     C_R   0.501960 0.499072 0.610439 0.902759
C18   C     C_R   0.497876 0.500195 0.389699 0.900768
C19   C     C_R   0.558098 0.359622 0.118125 0.566568
C20   C     C_R   0.433067 0.597919 0.882214 0.594669
C21   C     C_R   0.420686 0.603493 0.122036 0.560773
C22   C     C_R   0.580359 0.359219 0.878130 0.549760
C23   C     C_R   0.421097 0.604183 0.062294 -0.026408
C24   C     C_R   0.575473 0.356138 0.937943 -0.020169
C25   C     C_R   0.494455 0.479667 0.030246 -0.013330
C26   C     C_R   0.499194 0.479106 0.970036 -0.015406
C27   C     C_R   0.563587 0.355983 0.058259 -0.028422
C28   C     C_R   0.428306 0.601888 0.942057 -0.029964
C29   C     C_R   0.351514 0.726275 0.034021 -0.158355
C30   C     C_R   0.644092 0.233545 0.966234 -0.155692
C31   C     C_R   0.354666 0.724918 0.974357 -0.148183
C32   C     C_R   0.637433 0.233072 0.025947 -0.150378
H1    H     H_    0.294559 0.823041 0.057845 0.201224
H2    H     H_    0.702524 0.137555 0.942389 0.198381
H3    H     H_    0.299883 0.820599 0.953680 0.194448
H4    H     H_    0.691165 0.136856 0.046637 0.198878
H5    H     H_    0.244349 0.391254 0.683752 0.168060
H6    H     H_    0.723125 0.650491 0.315481 0.162579
H7    H     H_    0.764903 0.591703 0.674781 0.182994
H8    H     H_    0.262497 0.347491 0.327462 0.181313
H9    H     H_    0.700789 0.007933 0.494303 0.174013
H10   H     H_    0.299134 0.992047 0.505783 0.174938
N1    N     N_R   0.489255 0.482904 0.148297 -0.331575
N2    N     N_R   0.507437 0.477525 0.851931 -0.331713
N3    N     N_2   0.950330 0.457950 0.484560 0.027075
N4    N     N_2   0.049670 0.542050 0.515440 0.027132
O1    O     O_R   0.389250 0.738570 0.503790 -0.619827
O2    O     O_R   0.610750 0.261430 0.496210 -0.620692
O3    O     O_R   0.678390 0.711620 0.493890 -0.616333
O4    O     O_R   0.321610 0.288380 0.506110 -0.615744
O5    O     O_R   0.355400 0.513520 0.588790 -0.632571
O6    O     O_R   0.644600 0.486480 0.411210 -0.628465
O7    O     O_R   0.644550 0.486570 0.578900 -0.609896
O8    O     O_R   0.355450 0.513430 0.421100 -0.610964
O9    O     O_2   0.621979 0.242081 0.146153 -0.521523
O10   O     O_2   0.364725 0.713233 0.854280 -0.524116
O11   O     O_2   0.353067 0.722081 0.153821 -0.543086
O12   O     O_2   0.656304 0.245074 0.846238 -0.549421
Zn1   Zn    Zn3+2 0.306930 0.518000 0.506610 0.967371
Zn2   Zn    Zn3+2 0.693070 0.482000 0.493390 0.968565
N5    N     N_2   0.211678 0.362251 0.796787 -0.293606
H11   H     H_    0.098547 0.391519 0.780545 0.285695
C33   C     C_3   0.209856 0.196421 0.807764 -0.662085
H12   H     H_    0.092500 0.161569 0.835148 0.264311
H13   H     H_    0.323544 0.168588 0.830729 0.265733
H14   H     H_    0.208799 0.127551 0.766724 0.241738
N6    N     N_2   0.747590 0.668441 0.201619 -0.310649
H15   H     H_    0.774539 0.778160 0.219333 0.257872
C34   C     C_3   0.902799 0.588744 0.185388 -0.634482
H16   H     H_    0.988405 0.663413 0.156091 0.260847
H17   H     H_    0.872394 0.476299 0.162501 0.272021
H18   H     H_    0.971859 0.565984 0.224111 0.259228
Cl1   Cl    Cl    0.836083 0.616061 0.792271 -0.602408
Cl2   Cl    Cl    0.198527 0.290076 0.210246 -0.597700
N7    N     N_2   0.029440 0.397927 0.435125 -0.189071
H19   H     H_    0.013826 0.465741 0.400180 0.225321
C35   C     C_3   0.979171 0.235231 0.424646 -0.668131
H20   H     H_    0.061637 0.188043 0.388333 0.213057
H21   H     H_    0.843215 0.222910 0.413332 0.244612
H22   H     H_    0.995792 0.165642 0.463220 0.221244
N8    N     N_2   0.971512 0.597350 0.565780 -0.188645
H23   H     H_    0.993111 0.528802 0.599953 0.220358
C36   C     C_3   0.015985 0.760821 0.577074 -0.672404
H24   H     H_    0.934936 0.802926 0.614688 0.214301
H25   H     H_    0.992268 0.831602 0.539461 0.223094
H26   H     H_    0.153126 0.777283 0.586797 0.242663

loop_
_geom_bond_atom_site_label_1
_geom_bond_atom_site_label_2
_ccdc_geom_bond_type
C33   H13   S    
N3    Zn2   S    
C12   Cl2   S    
N4    Zn1   S    
C20   O10   S    
C17   O5    A    
C2    O4    A    
N8    H23   S    
C18   O6    A    
C35   H20   S    
O3    Zn2   S    
O4    Zn1   S    
C23   C29   A    
C24   C26   A    
C5    H5    S    
C15   C16   D    
C29   H1    S    
C9    H7    S    
C10   H8    S    
C34   H17   S    
O6    Zn2   S    
N8    C36   S    
C21   N1    A    
C22   N2    A    
C7    C17   S    
C6    H6    S    
C1    C15   S    
C19   C27   A    
C3    C13   A    
C3    N5    S    
C33   H14   S    
N5    H11   S    
C20   N2    A    
O7    Zn2   S    
C19   N1    A    
O2    Zn2   S    
O8    Zn1   S    
C35   H21   S    
C30   H2    S    
N6    H15   S    
C15   H9    S    
C4    C6    A    
C11   Cl1   S    
C5    C7    A    
C1    O1    A    
C6    C8    A    
C20   C28   A    
C2    O2    A    
C25   C26   A    
N3    N4    D    
C8    C18   S    
N6    C34   S    
C34   H18   S    
N7    H19   S    
C21   O11   S    
N4    N8    S    
C9    C11   A    
C36   H24   S    
N5    C33   S    
N7    C35   S    
C10   C12   A    
C36   H25   S    
C12   C14   A    
C21   C23   A    
C22   C24   A    
O5    Zn1   S    
C17   O7    A    
C2    C16   S    
C35   H22   S    
C19   O9    S    
C7    C9    A    
C27   C32   A    
C16   H10   S    
C28   C31   A    
C3    C5    A    
C22   O12   S    
C4    N6    S    
C32   H4    S    
C25   C27   A    
C26   C28   A    
N3    N7    S    
C29   C31   A    
C30   C32   A    
C11   C13   A    
C31   H3    S    
C23   C25   A    
C4    C14   A    
C34   H16   S    
C24   C30   A    
C18   O8    A    
O1    Zn1   S    
C33   H12   S    
C36   H26   S    
C8    C10   A    
C1    O3    A    
C13   N2    S    
C14   N1    S    
