data_mof_unit_27981.cif
_audit_creation_date              2012-12-11T16:43:08-0500
_audit_creation_method            fapswitch 2.2
_symmetry_space_group_name_H-M    P1
_symmetry_Int_Tables_number       1
_space_group_crystal_system       triclinic
_cell_length_a                    6.920678
_cell_length_b                    23.273816
_cell_length_c                    25.832392
_cell_angle_alpha                 104.722663
_cell_angle_beta                  90.106173
_cell_angle_gamma                 90.567659
_cell_volume                      4023.98837989

loop_
_atom_site_label
_atom_site_type_symbol
_atom_type_description
_atom_site_fract_x
_atom_site_fract_y
_atom_site_fract_z
_atom_type_partial_charge
O1    O     O_R   0.505750 0.453350 0.547660 -0.536398
O2    O     O_R   0.170990 0.432220 0.437590 -0.548793
O3    O     O_R   0.005600 0.546650 0.452340 -0.541331
C1    C     C_R   0.340331 0.414291 0.418301 0.749408
O4    O     O_R   0.175720 0.446240 0.546340 -0.545204
O5    O     O_R   0.010370 0.560770 0.561860 -0.541117
C2    C     C_R   0.344404 0.434113 0.562836 0.693085
O6    O     O_R   0.500990 0.439230 0.438140 -0.515115
O7    O     O_3   0.340820 0.537560 0.504970 -0.372427
V1    V     V_3+5 0.064050 0.493030 0.499080 1.408379
O8    O     O_R   0.680940 0.567780 0.562410 -0.541240
C3    C     C_R   0.850743 0.584208 0.582771 0.709442
O9    O     O_R   0.676210 0.553760 0.453660 -0.544620
C4    C     C_R   0.845402 0.565825 0.437125 0.687410
V2    V     V_3+5 0.564640 0.506970 0.500920 1.428176
O10   O     O_3   0.837740 0.462440 0.495030 -0.357691
C5    C     C_R   0.785836 0.897943 0.133217 -0.215865
H1    H     H_    0.667856 0.927271 0.130359 0.124341
C6    C     C_R   0.772373 0.863036 0.170232 0.214986
C7    C     C_R   0.924189 0.824516 0.174839 0.094188
C8    C     C_R   0.089213 0.823089 0.142875 -0.215057
H2    H     H_    0.206944 0.793603 0.145418 0.120176
C9    C     C_R   0.103376 0.858932 0.106898 -0.172181
H3    H     H_    0.232581 0.856669 0.082900 0.128439
C10   C     C_R   0.951064 0.896393 0.101311 -0.073769
C11   C     C_R   0.067019 0.785250 0.248445 -0.167354
H4    H     H_    0.194338 0.812729 0.248515 0.129732
C12   C     C_R   0.056195 0.749886 0.284890 -0.150486
H5    H     H_    0.175424 0.751413 0.312407 0.111552
C13   C     C_R   0.892013 0.714110 0.286532 0.082059
C14   C     C_R   0.739618 0.714535 0.250435 -0.168501
H6    H     H_    0.612814 0.686696 0.249590 0.107415
C15   C     C_R   0.750341 0.750055 0.214153 -0.100402
H7    H     H_    0.631670 0.748816 0.186485 0.121153
C16   C     C_R   0.913445 0.786169 0.213032 0.111454
C17   C     C_R   0.702848 0.667627 0.349294 -0.139592
H8    H     H_    0.572873 0.688956 0.340527 0.101545
C18   C     C_R   0.691410 0.631912 0.385450 -0.165438
H9    H     H_    0.552620 0.626226 0.402903 0.120280
C19   C     C_R   0.857023 0.604291 0.399096 -0.054687
C20   C     C_R   0.034237 0.613305 0.375529 -0.160278
H10   H     H_    0.164696 0.592477 0.384721 0.119613
C21   C     C_R   0.045433 0.648699 0.339158 -0.145991
H11   H     H_    0.183682 0.653486 0.321076 0.100150
C22   C     C_R   0.879967 0.676420 0.325491 0.097228
C23   C     C_R   0.029833 0.638083 0.665569 -0.201506
C24   C     C_R   0.865175 0.633032 0.632524 -0.107824
C25   C     C_R   0.716460 0.674598 0.647256 -0.178219
C26   C     C_R   0.732729 0.721286 0.693826 0.114498
C27   C     C_R   0.898070 0.725880 0.726952 -0.008119
C28   C     C_R   0.047310 0.683740 0.713122 0.072686
C29   C     C_R   0.585923 0.763506 0.707889 -0.153524
C30   C     C_R   0.600998 0.809548 0.754593 -0.200920
C31   C     C_R   0.763814 0.814482 0.787934 0.099859
C32   C     C_R   0.913609 0.772725 0.773976 0.047941
C33   C     C_R   0.078602 0.777838 0.807025 0.059098
C34   C     C_R   0.224923 0.735521 0.793481 -0.226068
C35   C     C_R   0.210572 0.688265 0.747087 0.193373
C36   C     C_R   0.779313 0.860533 0.834940 -0.213780
C37   C     C_R   0.944457 0.866382 0.867905 -0.086462
C38   C     C_R   0.094173 0.824985 0.853378 -0.210727
H12   H     H_    0.143696 0.605769 0.654224 0.156988
H13   H     H_    0.589185 0.671145 0.622067 0.129862
H14   H     H_    0.458262 0.760612 0.682963 0.132687
H15   H     H_    0.484684 0.841223 0.764741 0.132271
H16   H     H_    0.663471 0.892369 0.845484 0.124945
H17   H     H_    0.221483 0.828875 0.878609 0.126651
H18   H     H_    0.350819 0.739178 0.819195 0.130920
C39   C     C_R   0.296764 0.178935 0.134663 0.162866
C40   C     C_R   0.455244 0.138885 0.128086 -0.121505
C41   C     C_R   0.596066 0.146969 0.168583 -0.254454
C42   C     C_R   0.577671 0.191531 0.216384 0.089045
C43   C     C_R   0.413643 0.228183 0.225000 0.018940
C44   C     C_R   0.270897 0.221283 0.184556 0.065326
C45   C     C_R   0.719620 0.199124 0.256307 -0.159508
C46   C     C_R   0.701153 0.242912 0.304248 -0.197539
C47   C     C_R   0.538661 0.280203 0.313908 0.041854
C48   C     C_R   0.393301 0.272249 0.274060 0.037241
C49   C     C_R   0.227932 0.308417 0.282992 0.101730
C50   C     C_R   0.084588 0.300144 0.243386 -0.183031
C51   C     C_R   0.105400 0.257276 0.194931 -0.183084
C52   C     C_R   0.518779 0.325501 0.362176 0.143775
C53   C     C_R   0.354694 0.362899 0.370210 -0.084570
C54   C     C_R   0.209040 0.352899 0.330922 -0.297088
H19   H     H_    0.718625 0.117387 0.163389 0.142450
H20   H     H_    0.846530 0.171324 0.250325 0.132376
H21   H     H_    0.816283 0.247232 0.333394 0.134484
H22   H     H_    0.083334 0.381242 0.336895 0.132767
H23   H     H_    0.955675 0.327065 0.249806 0.133350
H24   H     H_    0.989156 0.252217 0.165993 0.155666
C55   C     C_R   0.284149 0.108233 0.871500 -0.213232
H25   H     H_    0.160237 0.081207 0.876107 0.158322
C56   C     C_R   0.269230 0.144338 0.835894 -0.159008
H26   H     H_    0.133700 0.144872 0.815011 0.119830
C57   C     C_R   0.425661 0.179930 0.827921 0.072599
C58   C     C_R   0.597561 0.178606 0.856652 -0.180581
H27   H     H_    0.720216 0.205371 0.850564 0.104422
C59   C     C_R   0.614144 0.142862 0.893078 0.202215
C60   C     C_R   0.455737 0.106535 0.900478 -0.072084
C61   C     C_R   0.492720 0.276001 0.802791 -0.187624
H28   H     H_    0.562955 0.292644 0.841277 0.108378
C62   C     C_R   0.481339 0.312925 0.767286 0.157136
C63   C     C_R   0.386142 0.291492 0.717237 0.054272
C64   C     C_R   0.300566 0.234655 0.705088 -0.193014
H29   H     H_    0.226700 0.217641 0.667186 0.128006
C65   C     C_R   0.312379 0.198688 0.740871 -0.156203
H30   H     H_    0.248176 0.154637 0.729549 0.119411
C66   C     C_R   0.409942 0.218656 0.789989 0.067392
C67   C     C_R   0.195542 0.345542 0.661970 -0.157125
H31   H     H_    0.063922 0.334393 0.680036 0.106552
C68   C     C_R   0.184975 0.379800 0.624598 -0.166637
H32   H     H_    0.044667 0.394330 0.614697 0.119024
C69   C     C_R   0.353858 0.395851 0.601062 -0.051591
C70   C     C_R   0.532903 0.375722 0.615160 -0.156540
H33   H     H_    0.665736 0.386565 0.597502 0.122606
C71   C     C_R   0.543007 0.341268 0.652287 -0.145985
H34   H     H_    0.682404 0.325924 0.662025 0.098405
C72   C     C_R   0.374984 0.326904 0.676842 0.107358
O11   O     O_R   0.308350 0.060850 0.061810 -0.529045
O12   O     O_R   0.633860 0.053770 0.953650 -0.517964
O13   O     O_R   0.798960 0.939210 0.938150 -0.540041
C73   C     C_R   0.465332 0.066697 0.937670 0.695559
O14   O     O_R   0.638360 0.067800 0.062400 -0.537329
O15   O     O_R   0.803500 0.953330 0.047670 -0.541366
C74   C     C_R   0.468983 0.086437 0.080976 0.705434
O16   O     O_R   0.303810 0.046730 0.952290 -0.544373
O17   O     O_3   0.468430 0.962490 0.995010 -0.374142
V3    V     V_3+5 0.745300 0.006960 0.000930 1.446116
O18   O     O_R   0.132880 0.946160 0.046390 -0.543535
C75   C     C_R   0.963605 0.934303 0.062973 0.698419
O19   O     O_R   0.128380 0.932130 0.937650 -0.545653
C76   C     C_R   0.958587 0.915620 0.917349 0.707041
V4    V     V_3+5 0.244670 0.992930 0.999140 1.416616
O20   O     O_3   0.971670 0.037510 0.005000 -0.351431
N1    N     N_3   0.607282 0.868470 0.204418 -0.689581
H35   H     H_    0.484156 0.858931 0.180190 0.220694
H36   H     H_    0.598894 0.912733 0.226529 0.233654
N2    N     N_3   0.361575 0.644987 0.734360 -0.676377
H37   H     H_    0.306546 0.605239 0.740452 0.219445
H38   H     H_    0.478196 0.657448 0.760764 0.235433
N3    N     N_3   0.165846 0.178688 0.090940 -0.649271
H39   H     H_    0.227079 0.157264 0.054354 0.224899
H40   H     H_    0.155580 0.222355 0.087501 0.204700
N4    N     N_3   0.662186 0.333448 0.403739 -0.650538
H41   H     H_    0.673605 0.293983 0.415766 0.218969
H42   H     H_    0.794975 0.343351 0.388628 0.229244
N5    N     N_3   0.790176 0.144373 0.923058 -0.652737
H43   H     H_    0.760602 0.165997 0.962885 0.220300
H44   H     H_    0.895853 0.169979 0.910202 0.217879
C77   C     C_3   0.566082 0.375188 0.784883 -0.369694
C78   C     C_3   0.407947 0.421721 0.799692 -0.741142
H45   H     H_    0.316884 0.422177 0.764430 0.232213
H46   H     H_    0.315106 0.412425 0.831722 0.223793
H47   H     H_    0.475071 0.466428 0.814636 0.214200
H48   H     H_    0.659647 0.384895 0.753322 0.177304
H49   H     H_    0.660657 0.379623 0.820559 0.173611

loop_
_geom_bond_atom_site_label_1
_geom_bond_atom_site_label_2
_ccdc_geom_bond_type
C32   C33   A    
C45   C46   A    
C56   H26   S    
C20   H10   S    
C13   C22   S    
C57   C58   A    
C1    O6    A    
C37   C76   S    
C64   C65   A    
C70   H33   S    
C34   C35   A    
N1    H35   S    
C30   C31   A    
C33   C34   A    
C12   H5    S    
C11   H4    S    
O11   V4    S    
C23   H12   S    
C53   C54   A    
C17   H8    S    
N5    H44   S    
C69   C70   A    
C67   C68   A    
C36   H16   S    
O5    C3    A    
C49   C54   A    
O14   C74   A    
C65   H30   S    
C39   N3    S    
V2    O10   S    
C71   H34   S    
C43   C44   A    
C78   H47   S    
C50   H23   S    
C5    C6    A    
C23   C24   A    
C7    C16   S    
O8    V2    S    
N5    H43   S    
O16   V4    S    
C71   C72   A    
C12   C13   A    
C58   C59   A    
C43   C48   A    
C14   C15   A    
C40   C41   A    
O1    V2    S    
C30   H15   S    
O7    V1    S    
O15   V3    S    
C35   N2    S    
C78   H46   S    
C36   C37   A    
C56   C57   A    
C77   H49   S    
O9    C4    A    
C20   C21   A    
C62   C63   A    
C3    C24   S    
C10   C75   S    
C64   H29   S    
O12   C73   A    
C67   C72   A    
C27   C28   A    
C31   C36   A    
C8    C9    A    
C18   H9    S    
C61   C66   A    
C54   H22   S    
C17   C22   A    
C46   C47   A    
O13   V3    S    
C52   N4    S    
C29   H14   S    
C55   H25   S    
O4    C2    A    
C48   C49   A    
C50   C51   A    
C25   H13   S    
C47   C48   A    
C23   C28   A    
C52   C53   A    
C37   C38   A    
C73   O16   A    
O2    C1    A    
C21   H11   S    
V3    O20   S    
C55   C56   A    
C38   H17   S    
C45   H20   S    
C24   C25   A    
C78   H45   S    
C26   C29   A    
C58   H27   S    
C61   C62   A    
C5    H1    S    
O15   C75   A    
C39   C44   A    
C68   C69   A    
C28   C35   A    
C21   C22   A    
C46   H21   S    
O3    C4    A    
N2    H38   S    
C57   C66   S    
C62   C77   S    
C60   C73   S    
O18   V4    S    
C51   H24   S    
O11   C74   A    
C40   C74   S    
N4    H42   S    
C25   C26   A    
C59   C60   A    
O6    V2    S    
C77   H48   S    
O9    V2    S    
V4    O20   S    
C63   C72   S    
C34   H18   S    
O17   V3    S    
O2    V1    S    
C29   C30   A    
O18   C75   A    
N1    H36   S    
C31   C32   A    
C19   C20   A    
C68   H32   S    
O1    C2    A    
C14   H6    S    
O17   V4    S    
N4    H41   S    
O19   V4    S    
O5    V1    S    
C70   C71   A    
O8    C3    A    
O12   V3    S    
C11   C12   A    
C27   C32   A    
C77   C78   S    
C5    C10   A    
O13   C76   A    
C2    C69   S    
C6    C7    A    
N3    H40   S    
O7    V2    S    
O4    V1    S    
O3    V1    S    
V1    O10   S    
N3    H39   S    
C18   C19   A    
C42   C45   A    
O14   V3    S    
C13   C14   A    
C1    C53   S    
C65   C66   A    
C47   C52   A    
C42   C43   A    
C41   H19   S    
C17   C18   A    
C61   H28   S    
C15   C16   A    
C15   H7    S    
C9    C10   A    
C39   C40   A    
N2    H37   S    
C9    H3    S    
C4    C19   S    
C49   C50   A    
C11   C16   A    
C41   C42   A    
C7    C8    A    
C26   C27   A    
C59   N5    S    
C67   H31   S    
C63   C64   A    
C33   C38   A    
C44   C51   A    
C55   C60   A    
C8    H2    S    
C6    N1    S    
O19   C76   A    
