data_mof_unit_40790.cif
_audit_creation_date              2012-12-10T18:20:35-0500
_audit_creation_method            fapswitch 2.2
_symmetry_space_group_name_H-M    P1
_symmetry_Int_Tables_number       1
_space_group_crystal_system       triclinic
_cell_length_a                    14.10911
_cell_length_b                    13.62557
_cell_length_c                    14.921023
_cell_angle_alpha                 89.254992
_cell_angle_beta                  92.424444
_cell_angle_gamma                 81.99118
_cell_volume                      2837.44938487

loop_
_atom_site_label
_atom_site_type_symbol
_atom_type_description
_atom_site_fract_x
_atom_site_fract_y
_atom_site_fract_z
_atom_type_partial_charge
C1    C     C_R   0.498244 0.498542 0.326985 0.863103
C2    C     C_R   0.501515 0.501547 0.673145 0.873461
C3    C     C_R   0.485941 0.513967 0.952809 -0.058978
C4    C     C_R   0.483387 0.513382 0.046065 -0.062018
C5    C     C_R   0.445476 0.440000 0.904271 -0.039290
C6    C     C_R   0.533662 0.579491 0.095525 -0.036863
C7    C     C_R   0.563051 0.664931 0.958080 0.349624
C8    C     C_R   0.376812 0.385299 0.039153 0.353168
C9    C     C_R   0.578586 0.651933 0.051365 0.309812
C10   C     C_R   0.394977 0.371783 0.948068 0.303136
C11   C     C_R   0.809360 0.440901 0.561166 0.203845
C12   C     C_R   0.190762 0.558128 0.438112 0.215495
C13   C     C_R   0.787809 0.558090 0.440224 0.006858
C14   C     C_R   0.212175 0.442337 0.560107 0.000171
C15   C     C_R   0.887340 0.560540 0.440562 -0.036353
C16   C     C_R   0.112706 0.439531 0.559480 -0.038436
C17   C     C_R   0.949726 0.498344 0.499907 0.007443
C18   C     C_R   0.050340 0.501475 0.499946 0.006566
C19   C     C_R   0.911442 0.433353 0.559047 -0.084558
C20   C     C_R   0.088692 0.566074 0.440501 -0.074809
C21   C     C_R   0.924536 0.626291 0.383800 -0.233960
C22   C     C_R   0.075613 0.373591 0.616065 -0.235852
C23   C     C_R   0.517826 0.314187 0.500186 0.896736
C24   C     C_R   0.482173 0.685809 0.499890 0.896422
C25   C     C_R   0.023058 0.633006 0.384668 0.460119
C26   C     C_R   0.977204 0.366317 0.614792 0.461053
C27   C     C_1   0.467742 0.789771 0.500309 -0.133826
C28   C     C_1   0.532265 0.210204 0.500503 -0.137285
C29   C     C_2   0.458199 0.981947 0.501092 0.114008
C30   C     C_2   0.541811 0.017995 0.501083 0.110294
C31   C     C_1   0.540508 0.122279 0.500808 0.033161
C32   C     C_1   0.459491 0.877679 0.500716 0.033129
C33   C     C_R   0.452472 0.439222 0.811989 -0.123759
C34   C     C_R   0.534282 0.574004 0.188491 -0.123791
C35   C     C_R   0.503065 0.504636 0.769050 -0.149117
C36   C     C_R   0.492588 0.501254 0.231251 -0.146223
C37   C     C_R   0.544281 0.577759 0.815764 0.112140
C38   C     C_R   0.444132 0.434229 0.183643 0.117926
C39   C     C_R   0.530714 0.587075 0.908239 -0.022258
C40   C     C_R   0.433074 0.444576 0.090082 -0.021469
H1    H     H_    0.417361 0.388843 0.771177 0.208339
H2    H     H_    0.565557 0.626929 0.229606 0.205234
H3    H     H_    0.739777 0.604835 0.393807 0.168341
H4    H     H_    0.260183 0.395976 0.606828 0.162596
H5    H     H_    0.875318 0.675192 0.340036 0.217516
H6    H     H_    0.124909 0.324869 0.659897 0.219162
N1    N     N_R   0.750030 0.500040 0.500070 -0.138781
N2    N     N_R   0.249970 0.499960 0.499930 -0.138979
O1    O     O_R   0.580280 0.500020 0.367860 -0.597499
O2    O     O_R   0.419720 0.499980 0.632140 -0.600938
O3    O     O_R   0.419730 0.500030 0.367840 -0.659988
O4    O     O_R   0.580270 0.499970 0.632160 -0.662038
O5    O     O_R   0.591830 0.359650 0.500030 -0.620603
O6    O     O_R   0.408170 0.640350 0.499970 -0.615998
O7    O     O_R   0.431280 0.359660 0.500010 -0.607996
O8    O     O_R   0.568720 0.640340 0.499990 -0.609070
Zn1   Zn    Zn3+2 0.607200 0.499990 0.500020 0.956709
Zn2   Zn    Zn3+2 0.392800 0.500010 0.499980 0.960542
N3    N     N_3   0.631694 0.953832 0.501083 -0.432867
H7    H     H_    0.672882 0.969555 0.557621 0.217236
H8    H     H_    0.667403 0.971747 0.444420 0.220323
N4    N     N_3   0.368312 0.046096 0.501168 -0.432942
H9    H     H_    0.332582 0.028000 0.557760 0.224622
H10   H     H_    0.327143 0.030527 0.444564 0.208861
N5    N     N_3   0.603304 0.638738 0.770697 -0.349260
H11   H     H_    0.663727 0.593974 0.748772 0.204559
H12   H     H_    0.564612 0.674450 0.715374 0.211798
N6    N     N_3   0.417869 0.348621 0.228533 -0.361322
H13   H     H_    0.478339 0.310993 0.263303 0.177905
H14   H     H_    0.365663 0.370994 0.274438 0.235050
S1    S     S_3+6 0.557749 0.786266 0.909359 0.107138
O9    O     O_2   0.479186 0.802091 0.837174 -0.298992
O10   O     O_2   0.536624 0.863967 0.979092 -0.191280
O11   O     O_3   0.662766 0.798946 0.864288 -0.478183
H15   H     H_    0.652326 0.865427 0.834935 0.389182
S2    S     S_3+6 0.268877 0.352329 0.082013 0.108633
O12   O     O_2   0.229636 0.428507 0.147869 -0.302364
O13   O     O_2   0.194714 0.348816 0.007213 -0.182996
O14   O     O_3   0.290957 0.240696 0.134052 -0.480514
H16   H     H_    0.229258 0.230242 0.159310 0.387926
S3    S     S_3+6 0.660227 0.719701 0.110938 0.083162
O15   O     O_2   0.604232 0.800094 0.162979 -0.268451
O16   O     O_2   0.723616 0.651105 0.175127 -0.317047
O17   O     O_3   0.730952 0.770575 0.041079 -0.433259
H17   H     H_    0.768677 0.810735 0.079878 0.403360
S4    S     S_3+6 0.361719 0.265809 0.891546 0.087081
O18   O     O_2   0.275047 0.297750 0.830548 -0.273529
O19   O     O_2   0.442875 0.220628 0.836457 -0.305807
O20   O     O_3   0.337212 0.178374 0.964119 -0.427286
H18   H     H_    0.319419 0.124150 0.926104 0.405133
N7    N     N_3   0.768582 0.395658 0.634119 -0.350586
H19   H     H_    0.715288 0.355675 0.610891 0.250197
H20   H     H_    0.742141 0.450642 0.678033 0.209564
N8    N     N_3   0.231639 0.601147 0.363981 -0.348026
H21   H     H_    0.285604 0.640826 0.386306 0.248087
H22   H     H_    0.257537 0.544675 0.321142 0.230379
S5    S     S_3+6 0.055938 0.733904 0.321695 0.061892
O21   O     O_2   0.100347 0.695840 0.236778 -0.240772
O22   O     O_2   0.969305 0.808312 0.297344 -0.258781
O23   O     O_3   0.134397 0.790893 0.382773 -0.550534
H23   H     H_    0.156930 0.838381 0.340503 0.390427
S6    S     S_3+6 0.944803 0.264977 0.677598 0.060616
O24   O     O_2   0.876865 0.212303 0.622031 -0.292758
O25   O     O_2   0.032018 0.192249 0.704118 -0.243498
O26   O     O_3   0.892393 0.307429 0.771403 -0.516506
H24   H     H_    0.868873 0.249199 0.798640 0.399054

loop_
_geom_bond_atom_site_label_1
_geom_bond_atom_site_label_2
_ccdc_geom_bond_type
C2    C35   S    
C8    C10   A    
C11   N1    A    
C34   H2    S    
S2    O14   S    
C12   N2    A    
S5    O23   S    
C6    C9    A    
S3    O15   D    
C11   C19   A    
N4    H9    S    
C35   C37   A    
S2    O13   D    
C29   C32   S    
C7    S1    S    
C30   C31   S    
C33   C35   A    
S4    O19   D    
N1    Zn1   S    
C20   C25   A    
C24   O6    A    
S5    O21   D    
C8    S2    S    
O1    Zn1   S    
O8    Zn1   S    
S6    O26   S    
C15   C17   A    
C19   C26   A    
N4    H10   S    
C2    O2    A    
S5    O22   D    
C4    C40   A    
N6    H13   S    
N5    H12   S    
C5    C33   A    
C24   C27   S    
C18   C20   A    
C3    C39   A    
N3    H7    S    
C12   N8    S    
S6    O24   D    
S3    O16   D    
C23   O5    A    
C21   H5    S    
N3    H8    S    
O11   H15   S    
O2    Zn2   S    
S2    O12   D    
C4    C6    A    
N7    H19   S    
C13   N1    A    
O5    Zn1   S    
S4    O18   D    
C14   N2    A    
C6    C34   A    
C37   N5    S    
S6    O25   D    
C29   C30   D    
N7    H20   S    
C30   N3    S    
C12   C20   A    
C17   C18   A    
O3    Zn2   S    
C23   C28   S    
O17   H17   S    
N8    H22   S    
C1    O3    A    
C2    O4    A    
C25   S5    S    
C22   H6    S    
C38   N6    S    
C13   C15   A    
C14   C16   A    
C3    C4    A    
C13   H3    S    
S3    O17   S    
C14   H4    S    
O6    Zn2   S    
C7    C9    A    
C21   C25   A    
C29   N4    S    
C10   S4    S    
C16   C22   A    
C27   C32   T    
C28   C31   T    
C3    C5    A    
S4    O20   S    
S1    O11   S    
N2    Zn2   S    
C23   O7    A    
C24   O8    A    
O26   H24   S    
C33   H1    S    
C36   C38   A    
C5    C10   A    
C37   C39   A    
C26   S6    S    
C38   C40   A    
O23   H23   S    
C17   C19   A    
C34   C36   A    
N8    H21   S    
O4    Zn1   S    
O14   H16   S    
C11   N7    S    
C15   C21   A    
S1    O9    D    
C16   C18   A    
N5    H11   S    
C22   C26   A    
O7    Zn2   S    
S1    O10   D    
N6    H14   S    
C7    C39   A    
C8    C40   A    
O20   H18   S    
C1    O1    A    
C1    C36   S    
C9    S3    S    
