data_mof_unit_24586.cif
_audit_creation_date              2012-12-11T16:26:31-0500
_audit_creation_method            fapswitch 2.2
_symmetry_space_group_name_H-M    P1
_symmetry_Int_Tables_number       1
_space_group_crystal_system       triclinic
_cell_length_a                    14.023653
_cell_length_b                    13.998789
_cell_length_c                    31.568566
_cell_angle_alpha                 89.858436
_cell_angle_beta                  90.129004
_cell_angle_gamma                 120.145853
_cell_volume                      5359.14272044

loop_
_atom_site_label
_atom_site_type_symbol
_atom_type_description
_atom_site_fract_x
_atom_site_fract_y
_atom_site_fract_z
_atom_type_partial_charge
C1    C     C_R   0.564748 0.445126 0.809736 0.540504
C2    C     C_R   0.445015 0.564647 0.190259 0.540201
C3    C     C_3   0.633323 0.826067 0.438653 -0.412924
C4    C     C_3   0.252019 0.353314 0.064678 -0.260989
C5    C     C_3   0.224383 0.236138 0.054126 -0.403970
C6    C     C_3   0.051919 0.724381 0.432656 -0.258770
C7    C     C_3   0.173777 0.792717 0.444267 -0.430485
C8    C     C_3   0.693570 0.976078 0.068425 -0.263200
C9    C     C_3   0.663550 0.856440 0.060991 -0.410948
C10   C     C_3   0.304564 0.475481 0.451546 -0.250224
C11   C     C_3   0.272529 0.562596 0.441667 -0.408003
C12   C     C_3   0.723889 0.052942 0.567170 -0.263543
C13   C     C_R   0.435850 0.881692 0.309603 0.537122
C14   C     C_3   0.792676 0.174015 0.554319 -0.424197
C15   C     C_3   0.976677 0.694464 0.931581 -0.263538
C16   C     C_3   0.857479 0.664947 0.939176 -0.410757
C17   C     C_3   0.417132 0.290351 0.550979 -0.254717
C18   C     C_3   0.302225 0.257446 0.534565 -0.363755
C19   C     C_3   0.742235 0.103151 0.937900 -0.256187
C20   C     C_3   0.768368 0.013673 0.950554 -0.401384
C21   C     C_3   0.956298 0.680625 0.565318 -0.253628
C22   C     C_3   0.834000 0.643216 0.561077 -0.410587
C23   C     C_3   0.352164 0.251481 0.935076 -0.261235
C24   C     C_R   0.119535 0.554735 0.190117 0.543234
C25   C     C_3   0.235604 0.225336 0.945523 -0.404234
C26   C     C_3   0.953641 0.325781 0.153990 -0.238588
C27   C     C_3   0.870817 0.313298 0.188029 -0.414271
C28   C     C_3   0.378160 0.054326 0.342367 -0.248701
C29   C     C_3   0.254222 0.987693 0.349944 -0.374128
C30   C     C_3   0.672634 0.635589 0.151933 -0.242680
C31   C     C_3   0.692077 0.572479 0.187311 -0.406431
C32   C     C_3   0.943965 0.319465 0.342774 -0.228925
C33   C     C_3   0.854233 0.311720 0.313027 -0.427188
C34   C     C_3   0.363050 0.041210 0.154899 -0.236726
C35   C     C_1   0.006237 0.531867 0.017738 0.054072
C36   C     C_3   0.430094 0.122106 0.190209 -0.418931
C37   C     C_3   0.664846 0.585263 0.332830 -0.251036
C38   C     C_3   0.746546 0.709266 0.332699 -0.368233
C39   C     C_3   0.319531 0.950813 0.655456 -0.231417
C40   C     C_3   0.309713 0.861005 0.685798 -0.423384
C41   C     C_3   0.040169 0.362280 0.845290 -0.237251
C42   C     C_3   0.121223 0.429334 0.810033 -0.417825
C43   C     C_3   0.598247 0.670780 0.665552 -0.246566
C44   C     C_3   0.723241 0.746415 0.665422 -0.365176
C45   C     C_3   0.326036 0.953758 0.846080 -0.238784
C46   C     C_1   0.528929 0.010477 0.480565 0.040432
C47   C     C_3   0.313534 0.870801 0.812030 -0.413543
C48   C     C_3   0.048265 0.371609 0.655763 -0.246623
C49   C     C_3   0.978279 0.247444 0.648736 -0.376358
C50   C     C_3   0.637057 0.673128 0.848390 -0.243214
C51   C     C_3   0.574182 0.693298 0.813163 -0.405796
C52   C     C_1   0.461187 0.463328 0.019043 0.049108
C53   C     C_1   0.002356 0.524504 0.480329 0.035430
C54   C     C_1   0.530682 0.004688 0.020466 0.053452
C55   C     C_1   0.521350 0.523205 0.481421 0.035721
C56   C     C_1   0.527799 0.011688 0.518866 0.043763
C57   C     C_R   0.881583 0.435733 0.690304 0.539799
C58   C     C_1   0.004037 0.530681 0.979618 0.053360
C59   C     C_1   0.524416 0.515400 0.519062 0.030073
C60   C     C_1   0.531812 0.006864 0.982345 0.053754
C61   C     C_1   0.002512 0.525786 0.518658 0.037168
C62   C     C_1   0.464461 0.460253 0.981106 0.048730
C63   C     C_R   0.952694 0.485426 0.847648 0.000638
C64   C     C_R   0.529637 0.047749 0.652125 0.005045
C65   C     C_R   0.516181 0.461218 0.849199 0.000711
C66   C     C_R   0.951775 0.484964 0.651386 -0.009235
C67   C     C_R   0.537593 0.054453 0.849671 0.000595
C68   C     C_R   0.554735 0.119553 0.809882 0.542610
C69   C     C_R   0.520692 0.465793 0.650760 -0.003645
C70   C     C_R   0.486094 0.952586 0.348255 -0.011852
C71   C     C_R   0.054511 0.537707 0.150352 0.000372
C72   C     C_R   0.464384 0.522982 0.350110 -0.002339
C73   C     C_R   0.485457 0.953025 0.152419 0.000509
C74   C     C_R   0.046028 0.529932 0.347390 -0.002501
C75   C     C_R   0.460967 0.515734 0.150842 0.000402
C76   C     C_R   0.961765 0.581983 0.866206 0.071335
C77   C     C_R   0.615597 0.039389 0.633201 0.070707
C78   C     C_R   0.428100 0.366361 0.868621 0.074404
C79   C     C_R   0.564905 0.445631 0.690442 0.538107
C80   C     C_R   0.956978 0.578461 0.631868 0.071653
C81   C     C_R   0.631511 0.063096 0.870296 0.076630
C82   C     C_R   0.454360 0.375391 0.624140 0.077845
C83   C     C_R   0.577490 0.954722 0.368269 0.072747
C84   C     C_R   0.063224 0.631883 0.129746 0.076630
C85   C     C_R   0.375983 0.471399 0.378760 0.085975
C86   C     C_R   0.581732 0.961892 0.133837 0.071443
C87   C     C_R   0.039459 0.617068 0.366420 0.071321
C88   C     C_R   0.366096 0.428020 0.131311 0.074501
C89   C     C_R   0.981692 0.600095 0.910086 0.019651
C90   C     C_R   0.881773 0.435794 0.809368 0.546440
C91   C     C_R   0.618599 0.031600 0.588784 0.030453
C92   C     C_R   0.417314 0.362257 0.912768 0.007054
C93   C     C_R   0.972140 0.593254 0.587598 0.016710
C94   C     C_R   0.632859 0.055994 0.914574 0.006677
C95   C     C_R   0.462700 0.390207 0.580111 0.003377
C96   C     C_R   0.591997 0.971026 0.412456 0.013712
C97   C     C_R   0.055777 0.633194 0.085475 0.006872
C98   C     C_R   0.396494 0.488660 0.422159 0.005713
C99   C     C_R   0.599757 0.981768 0.089954 0.019804
C100  C     C_R   0.028327 0.618466 0.410722 0.028559
C101  C     C_R   0.553145 0.117831 0.690755 0.547952
C102  C     C_R   0.362470 0.417188 0.087177 0.007397
C103  C     C_R   0.001167 0.526174 0.933946 0.040410
C104  C     C_R   0.525147 0.012560 0.564831 0.038106
C105  C     C_R   0.473512 0.461321 0.935749 0.039306
C106  C     C_R   0.001109 0.524946 0.564674 0.032362
C107  C     C_R   0.532416 0.011739 0.936699 0.039754
C108  C     C_R   0.517682 0.498729 0.563877 0.025872
C109  C     C_R   0.527551 0.006107 0.434619 0.029699
C110  C     C_R   0.011242 0.532525 0.063381 0.040147
C111  C     C_R   0.503953 0.523910 0.436860 0.024908
C112  C     C_R   0.445301 0.565211 0.309746 0.534814
C113  C     C_R   0.526246 0.001776 0.066138 0.040504
C114  C     C_R   0.003923 0.522759 0.434319 0.029577
C115  C     C_R   0.461787 0.472299 0.064393 0.039545
C116  C     C_R   0.018117 0.446835 0.913451 0.099169
C117  C     C_R   0.426686 0.988374 0.585890 0.100643
C118  C     C_R   0.538724 0.562679 0.914745 0.102527
C119  C     C_R   0.030736 0.456310 0.586876 0.099731
C120  C     C_R   0.432246 0.971950 0.914435 0.108589
C121  C     C_R   0.556280 0.589997 0.591119 0.098890
C122  C     C_R   0.461757 0.038112 0.411734 0.103209
C123  C     C_R   0.435750 0.881830 0.190660 0.545541
C124  C     C_R   0.971434 0.432186 0.085670 0.109299
C125  C     C_R   0.590086 0.548728 0.408236 0.103940
C126  C     C_R   0.447347 0.019152 0.086682 0.099624
C127  C     C_R   0.978642 0.424275 0.412851 0.112413
C128  C     C_R   0.562846 0.536664 0.085582 0.103056
C129  C     C_R   0.000645 0.430536 0.869302 -0.000678
C130  C     C_R   0.427112 0.000737 0.630484 0.013216
C131  C     C_R   0.564197 0.563839 0.871224 -0.009038
C132  C     C_R   0.005719 0.435125 0.630618 -0.011911
C133  C     C_R   0.433693 0.996074 0.870615 -0.006178
C134  C     C_R   0.117386 0.553083 0.309126 0.546170
C135  C     C_R   0.560807 0.574510 0.635130 -0.006039
C136  C     C_R   0.439545 0.010655 0.368208 -0.014298
C137  C     C_R   0.995900 0.433625 0.129444 -0.006221
C138  C     C_R   0.572326 0.554494 0.364385 -0.006472
C139  C     C_R   0.430963 0.001445 0.130825 -0.000564
C140  C     C_R   0.994703 0.426236 0.368410 0.014667
C141  C     C_R   0.563663 0.562877 0.129006 -0.009585
C142  C     C_3   0.102792 0.742749 0.062115 -0.256074
C143  C     C_3   0.013481 0.769042 0.049574 -0.401280
C144  C     C_3   0.675042 0.949770 0.435353 -0.250412
Cr1   Cr    Cr6+3 0.504240 0.249200 0.750000 1.078885
Cr2   Cr    Cr6+3 0.744960 0.495760 0.750000 1.073277
Cr3   Cr    Cr6+3 0.750800 0.255040 0.750000 1.072118
Cr4   Cr    Cr6+3 0.249200 0.504240 0.250000 1.076404
Cr5   Cr    Cr6+3 0.495760 0.744960 0.250000 1.073501
Cr6   Cr    Cr6+3 0.255040 0.750800 0.250000 1.072035
H1    H     H_    0.972070 0.777568 0.078018 0.205748
H2    H     H_    0.692505 0.984838 0.467634 0.157227
H3    H     H_    0.970368 0.285902 0.832331 0.211600
H4    H     H_    0.749288 0.799222 0.694134 0.183957
H5    H     H_    0.764295 0.696886 0.665494 0.207128
H6    H     H_    0.751229 0.800591 0.637133 0.198907
H7    H     H_    0.557541 0.719137 0.657623 0.193272
H8    H     H_    0.571379 0.640314 0.698361 0.143645
H9    H     H_    0.381342 0.909289 0.788565 0.150555
H10   H     H_    0.313841 0.798853 0.826821 0.168694
H11   H     H_    0.234127 0.840928 0.795046 0.173649
H12   H     H_    0.252427 0.911956 0.866453 0.191413
H13   H     H_    0.288887 0.238624 0.033237 0.181348
H14   H     H_    0.319339 0.022350 0.831930 0.207296
H15   H     H_    0.997182 0.202934 0.673513 0.181500
H16   H     H_    0.890034 0.222183 0.650390 0.203665
H17   H     H_    0.994524 0.223248 0.617385 0.185209
H18   H     H_    0.135333 0.400200 0.647271 0.184463
H19   H     H_    0.050625 0.389327 0.690137 0.155867
H20   H     H_    0.546223 0.628701 0.788359 0.151142
H21   H     H_    0.501313 0.693993 0.826535 0.167882
H22   H     H_    0.628820 0.774650 0.798070 0.175221
H23   H     H_    0.669431 0.745133 0.869668 0.189220
H24   H     H_    0.219144 0.189407 0.083279 0.209567
H25   H     H_    0.712563 0.677286 0.835835 0.201306
H26   H     H_    0.143683 0.192387 0.037539 0.167803
H27   H     H_    0.184748 0.350138 0.084248 0.189948
H28   H     H_    0.252287 0.396735 0.035134 0.170555
H29   H     H_    0.195030 0.749698 0.468921 0.177430
H30   H     H_    0.226284 0.806758 0.416004 0.163666
H31   H     H_    0.191512 0.874090 0.456673 0.205195
H32   H     H_    0.029523 0.775181 0.412654 0.195463
H33   H     H_    0.050913 0.847826 0.031528 0.173223
H34   H     H_    0.000953 0.706263 0.461509 0.169499
H35   H     H_    0.648998 0.811692 0.091512 0.186876
H36   H     H_    0.587809 0.813445 0.041317 0.193197
H37   H     H_    0.732044 0.854556 0.044180 0.182871
H38   H     H_    0.714627 0.020139 0.037729 0.161299
H39   H     H_    0.770813 0.019918 0.087069 0.198984
H40   H     H_    0.346233 0.646713 0.443022 0.150740
H41   H     H_    0.234464 0.549193 0.409763 0.172523
H42   H     H_    0.212549 0.557708 0.465571 0.180644
H43   H     H_    0.231409 0.391487 0.448926 0.210455
H44   H     H_    0.951163 0.702449 0.029329 0.179339
H45   H     H_    0.329051 0.486306 0.485302 0.173066
H46   H     H_    0.749427 0.194538 0.529590 0.188439
H47   H     H_    0.808617 0.228563 0.582084 0.167104
H48   H     H_    0.872883 0.189660 0.541591 0.207031
H49   H     H_    0.774789 0.032040 0.587744 0.196611
H50   H     H_    0.704950 0.999693 0.538944 0.172247
H51   H     H_    0.812642 0.650531 0.908712 0.187420
H52   H     H_    0.814414 0.589129 0.958885 0.193841
H53   H     H_    0.856108 0.733779 0.956023 0.182692
H54   H     H_    0.020908 0.715561 0.962223 0.161380
H55   H     H_    0.165620 0.811307 0.081749 0.199609
H56   H     H_    0.020553 0.771716 0.912856 0.198970
H57   H     H_    0.268742 0.179763 0.516125 0.201878
H58   H     H_    0.245114 0.243694 0.561150 0.209789
H59   H     H_    0.305878 0.322555 0.513588 0.165865
H60   H     H_    0.473553 0.307242 0.523778 0.181839
H61   H     H_    0.413904 0.218752 0.567570 0.196678
H62   H     H_    0.777438 0.972452 0.922153 0.205994
H63   H     H_    0.846666 0.051096 0.968798 0.173838
H64   H     H_    0.701513 0.951057 0.970621 0.179597
H65   H     H_    0.810669 0.165921 0.918202 0.199706
H66   H     H_    0.147702 0.741688 0.033365 0.180596
H67   H     H_    0.741253 0.148342 0.966599 0.181042
H68   H     H_    0.791015 0.565604 0.542426 0.181721
H69   H     H_    0.794942 0.628945 0.592768 0.177427
H70   H     H_    0.824363 0.707889 0.544471 0.186172
H71   H     H_    0.999786 0.760519 0.582345 0.201502
H72   H     H_    0.993584 0.699298 0.533384 0.156642
H73   H     H_    0.189456 0.220800 0.916327 0.209379
H74   H     H_    0.190931 0.144502 0.962080 0.167591
H75   H     H_    0.238922 0.290368 0.966385 0.181367
H76   H     H_    0.348173 0.183859 0.915417 0.189984
H77   H     H_    0.555002 0.784420 0.456841 0.173534
H78   H     H_    0.394876 0.250705 0.964646 0.171370
H79   H     H_    0.909252 0.381310 0.211447 0.150222
H80   H     H_    0.798981 0.313536 0.173231 0.168993
H81   H     H_    0.841033 0.233804 0.205058 0.173124
H82   H     H_    0.911980 0.252043 0.133621 0.191643
H83   H     H_    0.022084 0.319088 0.168159 0.207237
H84   H     H_    0.210387 0.005786 0.324650 0.179366
H85   H     H_    0.226879 0.898719 0.349657 0.202382
H86   H     H_    0.231690 0.007832 0.380894 0.188698
H87   H     H_    0.409354 0.142623 0.349851 0.182269
H88   H     H_    0.619079 0.788250 0.406702 0.176798
H89   H     H_    0.394702 0.053515 0.308027 0.153966
H90   H     H_    0.627316 0.544724 0.212000 0.150247
H91   H     H_    0.692622 0.499297 0.174062 0.167629
H92   H     H_    0.773167 0.627031 0.202506 0.173865
H93   H     H_    0.744662 0.667731 0.130732 0.188970
H94   H     H_    0.677039 0.711452 0.164360 0.201124
H95   H     H_    0.888992 0.381045 0.289983 0.148829
H96   H     H_    0.817633 0.232949 0.295092 0.170007
H97   H     H_    0.787990 0.313782 0.331532 0.178242
H98   H     H_    0.006096 0.311593 0.324156 0.211823
H99   H     H_    0.695369 0.812594 0.455352 0.186438
H100  H     H_    0.904994 0.244917 0.362928 0.204251
H101  H     H_    0.453895 0.081526 0.214937 0.154797
H102  H     H_    0.505769 0.193394 0.176906 0.162774
H103  H     H_    0.379926 0.153545 0.205447 0.167600
H104  H     H_    0.334819 0.085988 0.134297 0.191742
H105  H     H_    0.286684 0.971346 0.167826 0.211502
H106  H     H_    0.800093 0.731543 0.304307 0.182657
H107  H     H_    0.702309 0.755741 0.331626 0.207986
H108  H     H_    0.799046 0.734741 0.361439 0.199503
H109  H     H_    0.708666 0.539441 0.339862 0.189365
H110  H     H_    0.756039 0.992033 0.419136 0.202504
H111  H     H_    0.631358 0.559700 0.300296 0.140647
H112  H     H_    0.377958 0.895469 0.709239 0.149391
H113  H     H_    0.230611 0.825483 0.703347 0.174780
H114  H     H_    0.311577 0.793863 0.667794 0.176723
H115  H     H_    0.311616 0.013833 0.673468 0.214484
H116  H     H_    0.245979 0.911711 0.634850 0.203160
H117  H     H_    0.081016 0.453395 0.785255 0.155873
H118  H     H_    0.192436 0.505014 0.823376 0.162846
H119  H     H_    0.152485 0.378906 0.794845 0.169222
H120  H     H_    0.084577 0.333769 0.865946 0.191418
I1    I     I_    0.961558 0.709355 0.827648 -0.384876
I2    I     I_    0.708877 0.961555 0.172350 -0.385912
I3    I     I_    0.012906 0.725089 0.326325 -0.436673
I4    I     I_    0.235157 0.297315 0.167541 -0.390211
I5    I     I_    0.874246 0.281193 0.051485 -0.445790
I6    I     I_    0.403687 0.134387 0.443397 -0.436524
I7    I     I_    0.711308 0.593148 0.049805 -0.475534
I8    I     I_    0.922027 0.275549 0.448723 -0.428469
I9    I     I_    0.348557 0.064027 0.049052 -0.474835
I10   I     I_    0.744621 0.576739 0.432485 -0.468731
I11   I     I_    0.280311 0.938377 0.549267 -0.461528
I12   I     I_    0.717978 0.005226 0.673443 -0.441467
I13   I     I_    0.062019 0.347278 0.951165 -0.476587
I14   I     I_    0.603534 0.748530 0.564531 -0.493663
I15   I     I_    0.281488 0.875572 0.948747 -0.447541
I16   I     I_    0.120388 0.392834 0.553803 -0.477928
I17   I     I_    0.598058 0.711044 0.950993 -0.480699
I18   I     I_    0.297243 0.236196 0.832181 -0.386379
I19   I     I_    0.975368 0.712233 0.670575 -0.413369
I20   I     I_    0.762087 0.061224 0.835328 -0.379498
I21   I     I_    0.323282 0.224099 0.649461 -0.368694
I22   I     I_    0.709910 0.966198 0.330584 -0.402393
I23   I     I_    0.062024 0.762970 0.164754 -0.378773
I24   I     I_    0.217174 0.343354 0.359015 -0.347974
O1    O     O_R   0.480350 0.140770 0.796330 -0.504356
O2    O     O_R   0.140770 0.480350 0.203670 -0.504657
O3    O     O_R   0.519650 0.660420 0.296330 -0.507857
O4    O     O_R   0.339580 0.859230 0.203670 -0.504484
O5    O     O_R   0.514930 0.348530 0.793250 -0.460208
O6    O     O_R   0.833600 0.485070 0.706750 -0.455103
O7    O     O_R   0.651470 0.166400 0.793250 -0.455737
O8    O     O_R   0.514930 0.348530 0.706750 -0.456318
O9    O     O_R   0.833600 0.485070 0.793250 -0.456102
O10   O     O_R   0.651470 0.166400 0.706750 -0.459640
O11   O     O_R   0.348530 0.514930 0.293250 -0.459092
O12   O     O_R   0.660420 0.519650 0.703670 -0.509926
O13   O     O_R   0.485070 0.833600 0.206750 -0.456199
O14   O     O_R   0.166400 0.651470 0.293250 -0.458726
O15   O     O_R   0.348530 0.514930 0.206750 -0.461244
O16   O     O_R   0.485070 0.833600 0.293250 -0.455302
O17   O     O_R   0.166400 0.651470 0.206750 -0.455450
O18   O     O_3   0.666667 0.333333 0.750000 -0.248644
O19   O     O_3   0.333333 0.666667 0.250000 -0.248231
O20   O     O_R   0.859230 0.339580 0.796330 -0.504732
O21   O     O_R   0.480350 0.140770 0.703670 -0.500255
O22   O     O_R   0.660420 0.519650 0.796330 -0.507420
O23   O     O_R   0.859230 0.339580 0.703670 -0.511469
O24   O     O_R   0.140770 0.480350 0.296330 -0.499519
O25   O     O_R   0.519650 0.660420 0.203670 -0.506569
O26   O     O_R   0.339580 0.859230 0.296330 -0.509937

loop_
_geom_bond_atom_site_label_1
_geom_bond_atom_site_label_2
_ccdc_geom_bond_type
C38   H106  S    
C68   O7    A    
C72   C112  S    
C55   C59   T    
C5    H24   S    
C12   C91   S    
C19   C20   S    
C4    H27   S    
C43   H8    S    
C71   C137  A    
Cr6   O4    S    
C21   H71   S    
C32   H98   S    
C8    C99   S    
C13   C70   S    
C11   H42   S    
C64   C77   A    
C118  C131  A    
C101  O21   A    
C90   O9    A    
C27   H79   S    
C77   C91   A    
C4    C102  S    
Cr3   O18   S    
C111  C125  A    
C19   H67   S    
C121  I14   S    
C77   I12   S    
C81   I20   S    
Cr2   O9    S    
C57   O6    A    
C143  H1    S    
C69   C135  A    
C21   C22   S    
C70   C136  A    
C120  I15   S    
C16   H52   S    
C1    O5    A    
C45   C47   S    
C126  C139  A    
C124  C137  A    
C17   H60   S    
Cr1   O1    S    
C10   H43   S    
C84   I23   S    
C6    H34   S    
C43   C44   S    
C37   C38   S    
C28   H87   S    
C96   C144  S    
C39   H115  S    
C33   H96   S    
C121  C135  A    
C24   O17   A    
C86   C99   A    
C122  C136  A    
C118  I17   S    
Cr4   O11   S    
C19   C94   S    
C119  I16   S    
Cr3   O23   S    
C5    H26   S    
C105  C118  A    
C107  C120  A    
C104  C117  A    
C52   C115  S    
C51   H22   S    
C55   C111  S    
C37   H109  S    
C4    C5    S    
C88   C102  A    
Cr1   O5    S    
C6    C7    S    
Cr2   O6    S    
C125  C138  A    
C96   C109  A    
C45   C133  S    
C112  O3    A    
C44   H4    S    
C11   H40   S    
C103  C116  A    
C49   H16   S    
C21   C93   S    
C74   C134  S    
C25   H75   S    
C36   H102  S    
C19   H65   S    
C20   H62   S    
C127  I8    S    
C97   C142  S    
C15   H56   S    
C95   C108  A    
C48   H19   S    
Cr5   O13   S    
C63   C76   A    
C50   H25   S    
C116  I13   S    
C80   C93   A    
C2    C75   S    
C20   H64   S    
C31   H90   S    
Cr3   O7    S    
C31   H92   S    
C57   C66   S    
C26   C137  S    
C72   C85   A    
C47   H9    S    
C30   C141  S    
C6    H32   S    
C35   C58   T    
C5    H13   S    
C120  C133  A    
C28   H89   S    
C76   I1    S    
C29   H85   S    
C69   C82   A    
C75   C141  A    
C134  O14   A    
C53   C61   T    
C73   C123  S    
C1    C65   S    
C74   C87   A    
C76   C89   A    
C72   C138  A    
C30   H94   S    
C89   C103  A    
C13   O26   A    
C38   H108  S    
C78   I18   S    
C24   O2    A    
C41   H3    S    
Cr5   O16   S    
C14   H47   S    
C94   C107  A    
C7    H31   S    
C40   H113  S    
C44   H6    S    
C100  C114  A    
C9    H36   S    
C50   C131  S    
C39   C40   S    
C113  C126  A    
C73   C139  A    
C78   C92   A    
C143  H44   S    
C74   C140  A    
C115  C128  A    
C18   H57   S    
C6    C100  S    
C93   C106  A    
C15   C89   S    
C17   C18   S    
C12   H50   S    
C79   O8    A    
C64   C130  A    
C67   C81   A    
C37   C138  S    
C69   C79   S    
C127  C140  A    
C87   C100  A    
C82   C95   A    
C3    H99   S    
C4    H28   S    
C43   H7    S    
C125  I10   S    
C66   C80   A    
C126  I9    S    
C34   H104  S    
C142  H66   S    
C144  H2    S    
C52   C62   T    
C81   C94   A    
Cr1   O18   S    
Cr5   O3    S    
C83   C96   A    
C7    H30   S    
C11   H41   S    
C10   C11   S    
C3    H88   S    
Cr6   O14   S    
C1    O22   A    
C46   C56   T    
C23   C92   S    
C87   I3    S    
C42   H117  S    
Cr4   O15   S    
C106  C119  A    
C41   C42   S    
C108  C121  A    
C22   H69   S    
C23   H78   S    
C8    H38   S    
C26   C27   S    
C50   H23   S    
C84   C97   A    
C28   C29   S    
C32   C140  S    
Cr4   O24   S    
C30   C31   S    
C124  I5    S    
Cr5   O25   S    
C68   O1    A    
C25   H74   S    
C101  O10   A    
C102  C115  A    
C90   O20   A    
C110  C124  A    
C82   I21   S    
C112  O11   A    
C2    O15   A    
C33   H95   S    
C17   C95   S    
C128  C141  A    
C21   H72   S    
C67   C68   S    
C18   H59   S    
C56   C104  S    
C143  H33   S    
C45   H12   S    
C49   H15   S    
C27   H80   S    
C8    H39   S    
C50   C51   S    
C61   C106  S    
C35   C110  S    
C48   C49   S    
C16   H51   S    
C3    H77   S    
C23   H76   S    
C53   C114  S    
C22   H70   S    
Cr3   O10   S    
C65   C78   A    
C28   C136  S    
C31   H91   S    
C51   H20   S    
C3    C144  S    
C59   C108  S    
C17   H61   S    
C99   C113  A    
C83   I22   S    
Cr5   O19   S    
C32   C33   S    
C79   O12   A    
C86   I2    S    
C114  C127  A    
C33   H97   S    
C63   C129  A    
C117  I11   S    
C80   I19   S    
C37   H111  S    
C29   H84   S    
C47   H11   S    
C92   C105  A    
Cr2   O12   S    
C46   C109  S    
C142  C143  S    
C48   C132  S    
Cr6   O17   S    
C91   C104  A    
C134  O24   A    
C15   H54   S    
C39   H116  S    
C62   C105  S    
C54   C60   T    
C14   H48   S    
C18   H58   S    
C67   C133  A    
C45   H14   S    
C49   H17   S    
C9    H35   S    
C109  C122  A    
Cr6   O26   S    
C15   C16   S    
C54   C113  S    
C32   H100  S    
C34   C139  S    
C36   H101  S    
C2    O25   A    
C123  O13   A    
C13   O16   A    
C142  H55   S    
C10   C98   S    
C88   I4    S    
C85   C98   A    
Cr4   O19   S    
C40   H112  S    
C116  C129  A    
C8    C9    S    
C57   O23   A    
C16   H53   S    
C34   C36   S    
Cr6   O19   S    
C22   H68   S    
C65   C131  A    
C66   C132  A    
C47   H10   S    
C64   C101  S    
Cr4   O2    S    
C26   H82   S    
C34   H105  S    
C29   H86   S    
C70   C83   A    
C122  I6    S    
C48   H18   S    
Cr2   O18   S    
C119  C132  A    
C7    H29   S    
C41   H120  S    
C43   C135  S    
C117  C130  A    
C60   C107  S    
C26   H83   S    
C27   H81   S    
C12   C14   S    
C30   H93   S    
Cr3   O20   S    
C123  O4    A    
C42   H118  S    
C38   H107  S    
C128  I7    S    
Cr1   O8    S    
C71   C84   A    
C14   H46   S    
C98   C111  A    
C44   H5    S    
C9    H37   S    
C39   C130  S    
C36   H103  S    
C20   H63   S    
C42   H119  S    
C51   H21   S    
C10   H45   S    
C41   C129  S    
C97   C110  A    
C40   H114  S    
Cr1   O21   S    
C85   I24   S    
C63   C90   S    
Cr2   O22   S    
C12   H49   S    
C25   H73   S    
C23   C25   S    
C144  H110  S    
C73   C86   A    
C75   C88   A    
C58   C103  S    
C24   C71   S    
