data_mof_unit_57112.cif
_audit_creation_date              2012-12-10T17:34:55-0500
_audit_creation_method            fapswitch 2.2
_symmetry_space_group_name_H-M    P1
_symmetry_Int_Tables_number       1
_space_group_crystal_system       triclinic
_cell_length_a                    12.089158
_cell_length_b                    12.763276
_cell_length_c                    15.736463
_cell_angle_alpha                 91.022973
_cell_angle_beta                  86.106754
_cell_angle_gamma                 95.491887
_cell_volume                      2411.21235044

loop_
_atom_site_label
_atom_site_type_symbol
_atom_type_description
_atom_site_fract_x
_atom_site_fract_y
_atom_site_fract_z
_atom_type_partial_charge
C1    C     C_R   0.523841 0.700327 0.497862 0.879923
C2    C     C_R   0.541691 0.812410 0.498068 -0.067478
C3    C     C_R   0.619211 0.969942 0.564158 -0.191098
C4    C     C_R   0.500051 0.500497 0.661446 0.892401
C5    C     C_R   0.621129 0.863497 0.548030 -0.194011
C6    C     C_R   0.468604 0.867557 0.456232 -0.212239
C7    C     C_R   0.468283 0.975511 0.468253 0.113942
C8    C     C_R   0.538648 0.026024 0.529052 0.141580
C9    C     C_R   0.526737 0.130898 0.553089 0.109302
C10   C     C_R   0.392331 0.138941 0.444374 -0.334437
C11   C     C_R   0.395272 0.033016 0.425179 0.000803
C12   C     C_3   0.452663 0.618693 0.053072 -0.072002
C13   C     C_R   0.955210 0.429580 0.404776 -0.374133
C14   C     C_R   0.839935 0.430437 0.415557 0.127308
C15   C     C_R   0.859027 0.536319 0.540037 -0.070170
C16   C     C_R   0.476305 0.299807 0.503718 0.896931
C17   C     C_R   0.976585 0.534049 0.531751 0.050965
C18   C     C_R   0.023484 0.470312 0.467974 0.122710
C19   C     C_R   0.137811 0.452113 0.468918 0.214764
C20   C     C_R   0.164370 0.589519 0.571914 -0.003686
C21   C     C_R   0.048432 0.594338 0.584067 -0.320088
C22   C     C_R   0.500039 0.500023 0.338577 0.917135
C23   C     C_3   0.504199 0.518218 0.083494 0.244740
C24   C     C_3   0.439465 0.606135 0.954233 -0.215307
C25   C     C_3   0.627781 0.528960 0.946428 -0.140586
C26   C     C_3   0.625024 0.515286 0.044511 -0.382504
C27   C     C_1   0.501068 0.505754 0.249968 -0.193754
C28   C     C_3   0.505316 0.512567 0.917284 0.170346
C29   C     C_3   0.516872 0.726396 0.077532 -0.380976
C30   C     C_3   0.523086 0.748362 0.173047 -0.793375
C31   C     C_3   0.581858 0.181488 0.630626 -0.404641
C32   C     C_3   0.532053 0.130826 0.713749 -0.892648
C33   C     C_2   0.326879 0.990045 0.355305 0.376562
C34   C     C_3   0.434032 0.417837 0.053260 -0.468149
C35   C     C_3   0.180897 0.348547 0.437718 -0.360644
C36   C     C_3   0.102393 0.258403 0.403394 -0.955712
C37   C     C_2   0.461006 0.708725 0.905123 0.379107
C38   C     C_2   0.774448 0.378545 0.348708 0.480836
C39   C     C_2   0.709325 0.463147 0.897078 0.349169
C40   C     C_3   0.494430 0.306297 0.924057 -0.362447
C41   C     C_3   0.411731 0.208477 0.936315 -0.894232
C42   C     C_3   0.442722 0.408438 0.954804 -0.039244
C43   C     C_1   0.502524 0.512459 0.174886 -0.058791
C44   C     C_1   0.502690 0.508548 0.825387 -0.072470
C45   C     C_1   0.500936 0.504465 0.750201 -0.163788
C46   C     C_R   0.459303 0.187479 0.504996 -0.067775
H1    H     H_    0.349558 0.582362 0.946420 0.086117
H2    H     H_    0.015684 0.646840 0.632272 0.155104
H3    H     H_    0.821125 0.583154 0.589988 0.135463
H4    H     H_    0.660910 0.611542 0.932974 0.173529
H5    H     H_    0.681951 0.578173 0.072683 0.165080
H6    H     H_    0.655024 0.439099 0.061448 0.218419
H7    H     H_    0.356385 0.402188 0.933042 0.166687
H8    H     H_    0.345146 0.421209 0.076021 0.161744
H9    H     H_    0.442014 0.724443 0.208116 0.275695
H10   H     H_    0.590489 0.707523 0.198543 0.246051
H11   H     H_    0.543737 0.834007 0.184030 0.272183
H12   H     H_    0.367291 0.618856 0.084639 0.145695
H13   H     H_    0.602278 0.734630 0.046232 0.225980
H14   H     H_    0.472209 0.790881 0.053623 0.209743
H15   H     H_    0.443275 0.146315 0.724485 0.264647
H16   H     H_    0.537229 0.044602 0.713378 0.274800
H17   H     H_    0.578423 0.165346 0.767620 0.259530
H18   H     H_    0.673318 0.177405 0.623902 0.212442
H19   H     H_    0.570169 0.266254 0.638009 0.212503
H20   H     H_    0.248650 0.021955 0.345672 0.066172
H21   H     H_    0.022280 0.247862 0.442514 0.288579
H22   H     H_    0.090026 0.268993 0.335032 0.263143
H23   H     H_    0.461716 0.346862 0.082726 0.201566
H24   H     H_    0.141536 0.183469 0.406777 0.245261
H25   H     H_    0.252587 0.364103 0.390614 0.237883
H26   H     H_    0.207060 0.313640 0.495987 0.243138
H27   H     H_    0.398444 0.764505 0.910072 0.064401
H28   H     H_    0.789375 0.405139 0.283452 0.021106
H29   H     H_    0.718151 0.467534 0.828130 0.090088
H30   H     H_    0.382483 0.198872 0.004363 0.268629
H31   H     H_    0.338893 0.214331 0.897860 0.260273
H32   H     H_    0.452769 0.137495 0.914889 0.263139
H33   H     H_    0.520971 0.310950 0.855261 0.208572
H34   H     H_    0.343872 0.186008 0.407062 0.154869
H35   H     H_    0.569104 0.295277 0.959041 0.253143
H36   H     H_    0.679200 0.006221 0.606120 0.158756
H37   H     H_    0.678895 0.819910 0.579574 0.159018
H38   H     H_    0.408092 0.823743 0.418521 0.196441
H39   H     H_    0.219527 0.638953 0.610397 0.149074
H40   H     H_    0.990589 0.398827 0.345905 0.165738
N1    N     N_R   0.207800 0.519340 0.515510 -0.131649
N2    N     N_R   0.792190 0.480660 0.484490 -0.116413
O1    O     O_R   0.421690 0.658830 0.504140 -0.619794
O2    O     O_2   0.547094 0.730880 0.861347 -0.584819
O3    O     O_2   0.709767 0.301004 0.364219 -0.549427
O4    O     O_2   0.767965 0.407282 0.932775 -0.578507
O5    O     O_R   0.609320 0.646410 0.494190 -0.621578
O6    O     O_R   0.406150 0.506210 0.627840 -0.612462
O7    O     O_R   0.593770 0.493790 0.617880 -0.632351
O8    O     O_R   0.390680 0.353590 0.505810 -0.661898
O9    O     O_R   0.578310 0.341170 0.495860 -0.561151
O10   O     O_R   0.406230 0.506210 0.382120 -0.629208
O11   O     O_R   0.593850 0.493790 0.372160 -0.612058
O12   O     O_2   0.359830 0.924606 0.304584 -0.590373
Zn1   Zn    Zn3+2 0.374720 0.508290 0.506640 0.929464
Zn2   Zn    Zn3+2 0.625280 0.491710 0.493360 0.969685

loop_
_geom_bond_atom_site_label_1
_geom_bond_atom_site_label_2
_ccdc_geom_bond_type
C30   H11   S    
C22   O10   A    
C12   C29   S    
C35   C36   S    
C34   C42   S    
C36   H21   S    
C7    C8    A    
C25   C28   S    
C7    C11   A    
C12   C23   S    
C13   C18   A    
C32   H15   S    
C18   C19   A    
C19   N1    A    
C42   H7    S    
C41   H31   S    
C5    H37   S    
C16   O9    A    
C20   N1    A    
C23   C43   S    
C31   H19   S    
C1    C2    S    
C23   C26   S    
C25   H4    S    
N1    Zn1   S    
C29   H13   S    
O6    Zn1   S    
C8    C9    A    
C13   H40   S    
C10   C46   A    
C39   H29   S    
O9    Zn2   S    
O7    Zn2   S    
C21   H2    S    
C12   H12   S    
C40   C42   S    
C35   H25   S    
C9    C46   A    
C13   C14   A    
C2    C6    A    
C40   H35   S    
C36   H24   S    
C33   H20   S    
C17   C18   A    
C4    C45   S    
C16   O8    A    
C6    H38   S    
C11   C33   S    
C3    C8    A    
C16   C46   S    
C41   H32   S    
C10   H34   S    
C25   C26   S    
C30   H10   S    
C38   O3    D    
C28   C44   S    
C17   C21   A    
C29   C30   S    
C26   H6    S    
C14   C38   S    
C4    O7    A    
C31   C32   S    
C29   H14   S    
C23   C34   S    
C20   H39   S    
C3    H36   S    
C24   C37   S    
C40   H33   S    
C34   H23   S    
C4    O6    A    
C37   O2    D    
C40   C41   S    
C35   H26   S    
C34   H8    S    
C22   C27   S    
C2    C5    A    
C39   O4    D    
C44   C45   T    
C38   H28   S    
C15   C17   A    
C37   H27   S    
C1    O1    A    
C22   O11   A    
O1    Zn1   S    
C24   H1    S    
C31   H18   S    
C24   C28   S    
C32   H17   S    
C3    C5    A    
O5    Zn2   S    
N2    Zn2   S    
C36   H22   S    
C6    C7    A    
O10   Zn1   S    
C30   H9    S    
C12   C24   S    
C33   O12   D    
C32   H16   S    
C19   C35   S    
C26   H5    S    
C25   C39   S    
C41   H30   S    
C28   C42   S    
C15   H3    S    
C10   C11   A    
C9    C31   S    
C14   N2    A    
C27   C43   T    
O11   Zn2   S    
C20   C21   A    
C1    O5    A    
O8    Zn1   S    
C15   N2    A    
