data_mof_unit_46340.cif
_audit_creation_date              2012-12-10T22:11:05-0500
_audit_creation_method            fapswitch 2.2
_symmetry_space_group_name_H-M    P1
_symmetry_Int_Tables_number       1
_space_group_crystal_system       triclinic
_cell_length_a                    12.112036
_cell_length_b                    12.317836
_cell_length_c                    22.993203
_cell_angle_alpha                 90.473376
_cell_angle_beta                  90.634743
_cell_angle_gamma                 90.280858
_cell_volume                      3430.07925574

loop_
_atom_site_label
_atom_site_type_symbol
_atom_type_description
_atom_site_fract_x
_atom_site_fract_y
_atom_site_fract_z
_atom_type_partial_charge
C1    C     C_R   0.657977 0.997747 0.578726 0.870975
C2    C     C_R   0.342023 0.002253 0.421274 0.870975
C3    C     C_R   0.902518 0.819130 0.124335 -0.026621
C4    C     C_R   0.097482 0.180870 0.875665 -0.026621
C5    C     C_R   0.080565 0.835505 0.202829 -0.237889
C6    C     C_R   0.919433 0.164493 0.797172 -0.237880
C7    C     C_R   0.077866 0.751362 0.162689 -0.027353
C8    C     C_R   0.922133 0.248638 0.837311 -0.027355
C9    C     C_R   0.904212 0.166509 0.196695 -0.240904
C10   C     C_R   0.095788 0.833490 0.803305 -0.240904
C11   C     C_R   0.905306 0.249085 0.156647 -0.195788
C12   C     C_R   0.094694 0.750914 0.843353 -0.195788
C13   C     C_R   0.105099 0.913735 0.327605 -0.181837
C14   C     C_R   0.894900 0.086266 0.672396 -0.181836
C15   C     C_R   0.188484 0.911958 0.369056 -0.199984
C16   C     C_R   0.811514 0.088043 0.630945 -0.199983
C17   C     C_R   0.875728 0.099086 0.322891 -0.167514
C18   C     C_R   0.124272 0.900914 0.677109 -0.167513
C19   C     C_R   0.796416 0.097762 0.365461 -0.194728
C20   C     C_R   0.203585 0.902238 0.634539 -0.194727
C21   C     C_3   0.994310 0.006196 0.248392 -0.079704
C22   C     C_3   0.005690 0.993804 0.751608 -0.079704
C23   C     C_R   0.653862 0.001743 0.420366 0.867996
C24   C     C_R   0.346138 0.998256 0.579634 0.867997
C25   C     C_R   0.089428 0.005795 0.292466 0.175321
C26   C     C_R   0.910571 0.994205 0.707534 0.175332
C27   C     C_R   0.253610 0.004405 0.378561 -0.021415
C28   C     C_R   0.746390 0.995595 0.621439 -0.021409
C29   C     C_R   0.893538 0.006922 0.287546 0.111780
C30   C     C_R   0.106462 0.993078 0.712454 0.111778
C31   C     C_R   0.735179 0.003285 0.374822 -0.021717
C32   C     C_R   0.264821 0.996715 0.625178 -0.021717
C33   C     C_R   0.999537 0.103920 0.207553 0.063048
C34   C     C_R   0.000463 0.896080 0.792447 0.063048
C35   C     C_R   0.000313 0.269436 0.124996 -0.062961
C36   C     C_R   0.999687 0.730564 0.875004 -0.062961
C37   C     C_R   0.992674 0.908886 0.206815 0.090041
C38   C     C_R   0.007325 0.091114 0.793185 0.090043
C39   C     C_R   0.990127 0.744222 0.121626 -0.126369
C40   C     C_R   0.009872 0.255778 0.878374 -0.126370
C41   C     C_R   0.992458 0.660816 0.076133 0.862843
C42   C     C_R   0.007541 0.339184 0.923867 0.862843
C43   C     C_R   0.999414 0.352477 0.081034 0.876923
C44   C     C_R   0.000585 0.647523 0.918966 0.876923
C45   C     C_R   0.149326 0.101142 0.306270 -0.138573
C46   C     C_R   0.850676 0.898856 0.693729 -0.138593
C47   C     C_R   0.232093 0.099759 0.348086 -0.209968
C48   C     C_R   0.767910 0.900239 0.651913 -0.209970
C49   C     C_R   0.830687 0.912215 0.297401 -0.179801
C50   C     C_R   0.169312 0.087786 0.702598 -0.179801
C51   C     C_R   0.751874 0.910844 0.340483 -0.197737
C52   C     C_R   0.248125 0.089157 0.659516 -0.197736
C53   C     C_R   0.095652 0.123719 0.173905 0.234696
C54   C     C_R   0.904347 0.876281 0.826095 0.234702
C55   C     C_R   0.094657 0.206844 0.133274 -0.232674
C56   C     C_R   0.905343 0.793156 0.866726 -0.232673
C57   C     C_R   0.903621 0.898747 0.167292 -0.208172
C58   C     C_R   0.096379 0.101253 0.832708 -0.208174
H1    H     H_    0.279245 0.173319 0.356418 0.156333
H2    H     H_    0.720759 0.826678 0.643580 0.156332
H3    H     H_    0.845013 0.837153 0.274086 0.147201
H4    H     H_    0.154986 0.162848 0.725913 0.147200
H5    H     H_    0.835862 0.955812 0.169112 0.151320
H6    H     H_    0.164139 0.044188 0.830887 0.151320
H7    H     H_    0.154226 0.844261 0.229354 0.167075
H8    H     H_    0.845771 0.155737 0.770647 0.167077
H9    H     H_    0.826131 0.149854 0.217099 0.162015
H10   H     H_    0.173870 0.850146 0.782901 0.162015
H11   H     H_    0.053727 0.842131 0.321988 0.141463
H12   H     H_    0.946271 0.157871 0.678013 0.141461
H13   H     H_    0.925516 0.171686 0.318249 0.138691
H14   H     H_    0.074484 0.828313 0.681751 0.138691
H15   H     H_    0.705130 0.836956 0.347415 0.157208
H16   H     H_    0.294868 0.163045 0.652584 0.157208
H17   H     H_    0.166311 0.219881 0.106420 0.174984
H18   H     H_    0.833690 0.780120 0.893581 0.174978
H19   H     H_    0.830741 0.295656 0.149627 0.165785
H20   H     H_    0.169259 0.704343 0.850372 0.165785
H21   H     H_    0.201028 0.838812 0.394064 0.157825
H22   H     H_    0.798970 0.161190 0.605937 0.157824
H23   H     H_    0.785311 0.169778 0.392079 0.156320
H24   H     H_    0.214689 0.830222 0.607922 0.156319
H25   H     H_    0.132231 0.177663 0.285435 0.132482
H26   H     H_    0.867773 0.822335 0.714563 0.132481
O1    O     O_R   0.621380 0.090460 0.561410 -0.629138
O2    O     O_R   0.378620 0.909540 0.438590 -0.629137
O3    O     O_R   0.617150 0.909540 0.438590 -0.626181
O4    O     O_R   0.382850 0.090460 0.561410 -0.626181
O5    O     O_R   0.619720 0.093230 0.440890 -0.630821
O6    O     O_R   0.380280 0.906770 0.559110 -0.630821
O7    O     O_R   0.618800 0.906770 0.559110 -0.627088
O8    O     O_R   0.381200 0.093230 0.440890 -0.627088
O9    O     O_R   0.087590 0.627480 0.058790 -0.611226
O10   O     O_R   0.912410 0.372520 0.941210 -0.611226
O11   O     O_R   0.905660 0.383870 0.059980 -0.627706
O12   O     O_R   0.094340 0.616130 0.940020 -0.627706
O13   O     O_R   0.092570 0.390420 0.063230 -0.620750
O14   O     O_R   0.907430 0.609580 0.936770 -0.620750
O15   O     O_R   0.900680 0.620930 0.055550 -0.616215
O16   O     O_R   0.099320 0.379070 0.944450 -0.616215
Zn1   Zn    Zn3+2 0.501730 0.123520 0.501540 0.943887
Zn2   Zn    Zn3+2 0.498270 0.876480 0.498460 0.943887
Zn3   Zn    Zn3+2 0.125690 0.504390 0.002180 0.984475
Zn4   Zn    Zn3+2 0.874310 0.495610 0.997820 0.984475
N1    N     N_2   0.189267 0.054299 0.177596 -0.309890
H27   H     H_    0.190137 0.996913 0.144711 0.239490
C59   C     C_3   0.295869 0.106512 0.185620 -0.791134
H28   H     H_    0.356199 0.045946 0.201748 0.250541
H29   H     H_    0.291321 0.173679 0.218004 0.247860
H30   H     H_    0.326045 0.138816 0.143708 0.235136
N2    N     N_2   0.810735 0.945705 0.822407 -0.309887
H31   H     H_    0.809866 0.003083 0.855296 0.239488
C60   C     C_3   0.704131 0.893497 0.814378 -0.791136
H32   H     H_    0.643800 0.954075 0.798268 0.250538
H33   H     H_    0.673961 0.861159 0.856284 0.235133
H34   H     H_    0.708670 0.826356 0.781978 0.247864
C61   C     C_1   0.812874 0.820231 0.082279 0.192753
N3    N     N_1   0.741145 0.821369 0.048612 -0.203659
C62   C     C_1   0.187127 0.179770 0.917721 0.192753
N4    N     N_1   0.258857 0.178632 0.951388 -0.203659
C63   C     C_1   0.166544 0.673122 0.165761 0.191773
N5    N     N_1   0.237452 0.610638 0.168384 -0.202725
C64   C     C_1   0.833454 0.326878 0.834239 0.191773
N6    N     N_1   0.762546 0.389362 0.831615 -0.202724

loop_
_geom_bond_atom_site_label_1
_geom_bond_atom_site_label_2
_ccdc_geom_bond_type
C16   C28   A    
C56   H18   S    
C20   H24   S    
C17   C29   A    
N2    H31   S    
C19   C31   A    
O9    Zn3   S    
C9    H9    S    
O4    Zn1   S    
C64   N6    T    
C39   C41   S    
C29   C49   A    
N1    C59   S    
C44   O12   A    
C5    C37   A    
C21   C33   S    
C22   C38   S    
C45   C47   A    
C32   C52   A    
C11   H19   S    
C38   C58   A    
C15   C27   A    
O6    Zn2   S    
N2    C60   S    
C4    C40   A    
C49   C51   A    
C18   H14   S    
C12   H20   S    
C1    C28   S    
C50   C52   A    
C59   H28   S    
C6    C38   A    
C4    C62   S    
C48   H2    S    
C2    C27   S    
C18   C30   A    
C12   C36   A    
C35   C43   S    
C60   H34   S    
C55   H17   S    
C40   C42   S    
O15   Zn4   S    
C30   C50   A    
O10   Zn4   S    
C1    O7    A    
C23   O3    A    
C9    C33   A    
C59   H29   S    
C13   C25   A    
C45   H25   S    
C44   O14   A    
C7    C63   S    
C57   H5    S    
C46   C48   A    
C53   C55   A    
C33   C53   A    
C22   C34   S    
C54   C56   A    
C49   H3    S    
C35   C55   A    
C51   H15   S    
C5    H7    S    
C5    C7    A    
C6    C8    A    
C58   H6    S    
C21   C29   S    
O16   Zn3   S    
C16   H22   S    
C23   C31   S    
C24   C32   S    
C36   C56   A    
C42   O16   A    
O3    Zn2   S    
C24   O4    A    
C43   O11   A    
C23   O5    A    
C10   C34   A    
C14   C26   A    
C2    O8    A    
C9    C11   A    
C63   N5    T    
O13   Zn3   S    
C10   C12   A    
O8    Zn1   S    
C46   H26   S    
C3    C57   A    
C17   H13   S    
C10   H10   S    
C13   C15   A    
C50   H4    S    
C59   H30   S    
C14   C16   A    
C36   C44   S    
C1    O1    A    
O7    Zn2   S    
O2    Zn2   S    
C25   C45   A    
O1    Zn1   S    
O11   Zn4   S    
C60   H32   S    
C20   C32   A    
C27   C47   A    
C21   C25   S    
C28   C48   A    
C22   C30   S    
O5    Zn1   S    
C42   O10   A    
C43   O13   A    
C31   C51   A    
C24   O6    A    
C41   O15   A    
C62   N4    T    
C8    C64   S    
C34   C54   A    
C15   H21   S    
N1    H27   S    
C52   H16   S    
C41   O9    A    
C11   C35   A    
C61   N3    T    
C13   H11   S    
O14   Zn4   S    
C17   C19   A    
C54   N2    S    
C2    O2    A    
C18   C20   A    
C14   H12   S    
C26   C46   A    
C47   H1    S    
C53   N1    S    
C6    H8    S    
C21   C37   S    
C22   C26   S    
O12   Zn3   S    
C4    C58   A    
C7    C39   A    
C8    C40   A    
C3    C61   S    
C19   H23   S    
C37   C57   A    
C3    C39   A    
C60   H33   S    
