data_mof_unit_48566.cif
_audit_creation_date              2012-12-11T14:41:05-0500
_audit_creation_method            fapswitch 2.2
_symmetry_space_group_name_H-M    P1
_symmetry_Int_Tables_number       1
_space_group_crystal_system       triclinic
_cell_length_a                    6.92149
_cell_length_b                    17.824297
_cell_length_c                    18.9302
_cell_angle_alpha                 89.999976
_cell_angle_beta                  90.000037
_cell_angle_gamma                 93.174938
_cell_volume                      2331.84721341

loop_
_atom_site_label
_atom_site_type_symbol
_atom_type_description
_atom_site_fract_x
_atom_site_fract_y
_atom_site_fract_z
_atom_type_partial_charge
O1    O     O_R   0.377350 0.828520 0.186660 -0.539854
O2    O     O_R   0.622650 0.171480 0.813340 -0.539854
O3    O     O_R   0.122650 0.171480 0.686660 -0.539854
O4    O     O_R   0.877350 0.828520 0.313340 -0.539854
O5    O     O_R   0.877350 0.671480 0.313340 -0.517994
O6    O     O_R   0.122650 0.328520 0.686660 -0.517994
O7    O     O_R   0.622650 0.328520 0.813340 -0.517994
O8    O     O_R   0.377350 0.671480 0.186660 -0.517994
O9    O     O_R   0.707090 0.671930 0.178410 -0.539172
O10   O     O_R   0.292910 0.328070 0.821590 -0.539172
O11   O     O_R   0.792910 0.328070 0.678410 -0.539172
O12   O     O_R   0.207090 0.671930 0.321590 -0.539173
O13   O     O_R   0.207090 0.828070 0.321590 -0.517092
O14   O     O_R   0.792910 0.171930 0.678410 -0.517092
O15   O     O_R   0.292910 0.171930 0.821590 -0.517093
O16   O     O_R   0.707090 0.828070 0.178410 -0.517093
C1    C     C_R   0.533382 0.644788 0.162347 0.765977
C2    C     C_R   0.466618 0.355212 0.837653 0.765976
C3    C     C_R   0.966618 0.355212 0.662347 0.765976
C4    C     C_R   0.033382 0.644788 0.337653 0.765977
C5    C     C_R   0.043676 0.854854 0.338557 0.729659
C6    C     C_R   0.956324 0.145146 0.661442 0.729656
C7    C     C_R   0.456324 0.145146 0.838557 0.729656
C8    C     C_R   0.543676 0.854854 0.161443 0.729659
O17   O     O_3   0.543850 0.750000 0.294270 -0.369121
O18   O     O_3   0.456150 0.250000 0.705730 -0.369121
O19   O     O_3   0.956150 0.250000 0.794270 -0.369121
O20   O     O_3   0.043850 0.750000 0.205730 -0.369121
V1    V     V_3+5 0.818700 0.750000 0.241790 1.528938
V2    V     V_3+5 0.181300 0.250000 0.758210 1.528937
V3    V     V_3+5 0.681300 0.250000 0.741790 1.528937
V4    V     V_3+5 0.318700 0.750000 0.258210 1.528937
C9    C     C_R   0.996039 0.417869 0.610503 -0.162724
C10   C     C_R   0.003962 0.582130 0.389497 -0.162723
C11   C     C_R   0.503960 0.582131 0.110503 -0.162722
C12   C     C_R   0.496040 0.417869 0.889497 -0.162723
C13   C     C_R   0.446012 0.084073 0.893068 -0.173684
C14   C     C_R   0.553987 0.915927 0.106932 -0.173680
C15   C     C_R   0.053989 0.915927 0.393068 -0.173684
C16   C     C_R   0.946012 0.084073 0.606931 -0.173684
C17   C     C_R   0.797138 0.478834 0.438240 -0.263136
C18   C     C_R   0.202863 0.521166 0.561760 -0.263135
C19   C     C_R   0.702867 0.521164 0.938242 -0.263135
C20   C     C_R   0.297132 0.478836 0.061759 -0.263136
C21   C     C_R   0.744741 0.010938 0.038845 -0.260620
C22   C     C_R   0.255258 0.989063 0.961156 -0.260619
C23   C     C_R   0.755257 0.989064 0.538843 -0.260618
C24   C     C_R   0.244744 0.010936 0.461156 -0.260619
C25   C     C_R   0.841154 0.530492 0.383144 0.464123
C26   C     C_R   0.158847 0.469508 0.616856 0.464123
C27   C     C_R   0.658851 0.469506 0.883146 0.464123
C28   C     C_R   0.341148 0.530494 0.116854 0.464122
C29   C     C_R   0.729145 0.960031 0.095770 0.456639
C30   C     C_R   0.270853 0.039970 0.904231 0.456638
C31   C     C_R   0.770852 0.039972 0.595767 0.456637
C32   C     C_R   0.229149 0.960029 0.404232 0.456636
C33   C     C_R   0.126790 0.577086 0.448201 -0.287441
C34   C     C_R   0.873210 0.422914 0.551798 -0.287439
C35   C     C_R   0.373208 0.422915 0.948201 -0.287439
C36   C     C_R   0.626792 0.577084 0.051799 -0.287439
C37   C     C_R   0.395174 0.927627 0.062686 -0.273483
C38   C     C_R   0.604826 0.072373 0.937314 -0.273479
C39   C     C_R   0.104826 0.072372 0.562687 -0.273482
C40   C     C_R   0.895174 0.927628 0.437312 -0.273482
C41   C     C_R   0.083373 0.524513 0.502347 0.093948
C42   C     C_R   0.916627 0.475487 0.497653 0.093949
C43   C     C_R   0.416625 0.475488 0.002347 0.093948
C44   C     C_R   0.583374 0.524512 0.997654 0.093946
C45   C     C_R   0.411899 0.979194 0.006154 0.088097
C46   C     C_R   0.588101 0.020807 0.993846 0.088101
C47   C     C_R   0.088102 0.020806 0.506154 0.088100
C48   C     C_R   0.911898 0.979194 0.493845 0.088100
H1    H     H_    0.748183 0.383850 0.546869 0.143224
H2    H     H_    0.251816 0.616150 0.453131 0.143224
H3    H     H_    0.751821 0.616147 0.046871 0.143226
H4    H     H_    0.248179 0.383852 0.953129 0.143226
H5    H     H_    0.739533 0.105266 0.929304 0.171646
H6    H     H_    0.260467 0.894734 0.070696 0.171643
H7    H     H_    0.760466 0.894736 0.429302 0.171650
H8    H     H_    0.239534 0.105264 0.570698 0.171649
H9    H     H_    0.667795 0.441905 0.435244 0.126104
H10   H     H_    0.332206 0.558094 0.564755 0.126104
H11   H     H_    0.832213 0.558091 0.935247 0.126105
H12   H     H_    0.167787 0.441909 0.064753 0.126105
H13   H     H_    0.880955 0.042131 0.029219 0.136588
H14   H     H_    0.119044 0.957871 0.970782 0.136589
H15   H     H_    0.619042 0.957872 0.529216 0.136590
H16   H     H_    0.380958 0.042128 0.470783 0.136590
O21   O     O_3   0.280462 0.464144 0.674953 -0.541266
C49   C     C_3   0.327059 0.535265 0.705203 -0.257895
H17   H     H_    0.204314 0.573135 0.703672 0.106272
H18   H     H_    0.456620 0.562219 0.679009 0.136881
H19   H     H_    0.363821 0.527012 0.761598 0.163715
O22   O     O_3   0.719540 0.535855 0.325046 -0.541266
C50   C     C_3   0.672933 0.464733 0.294799 -0.257899
H20   H     H_    0.543365 0.437784 0.320993 0.136884
H21   H     H_    0.795672 0.426860 0.296332 0.106272
H22   H     H_    0.636174 0.472985 0.238403 0.163715
O23   O     O_3   0.219529 0.535859 0.174951 -0.541266
C51   C     C_3   0.172929 0.464738 0.205201 -0.257887
H23   H     H_    0.295675 0.426869 0.203673 0.106270
H24   H     H_    0.043371 0.437784 0.179006 0.136880
H25   H     H_    0.136159 0.472992 0.261595 0.163716
O24   O     O_3   0.780469 0.464142 0.825049 -0.541266
C52   C     C_3   0.827063 0.535263 0.794798 -0.257888
H26   H     H_    0.956620 0.562218 0.820992 0.136879
H27   H     H_    0.704314 0.573130 0.796326 0.106271
H28   H     H_    0.863830 0.527008 0.738404 0.163715
O25   O     O_3   0.109952 0.051531 0.862828 -0.546396
C53   C     C_3   0.056093 0.985569 0.824847 -0.265868
H29   H     H_    0.975775 0.944084 0.859225 0.137165
H30   H     H_    0.182674 0.959970 0.799995 0.109919
H31   H     H_    0.957167 0.000535 0.781618 0.156840
O26   O     O_3   0.890043 0.948472 0.137176 -0.546395
C54   C     C_3   0.943916 0.014438 0.175149 -0.265889
H32   H     H_    0.817340 0.040051 0.199989 0.109924
H33   H     H_    0.024267 0.055910 0.140768 0.137177
H34   H     H_    0.042816 0.999473 0.218386 0.156840
O27   O     O_3   0.390052 0.948467 0.362830 -0.546397
C55   C     C_3   0.443919 0.014429 0.324850 -0.265869
H35   H     H_    0.524232 0.055913 0.359228 0.137164
H36   H     H_    0.317343 0.040027 0.299995 0.109923
H37   H     H_    0.542851 0.999462 0.281623 0.156847
O28   O     O_3   0.609949 0.051533 0.637170 -0.546397
C56   C     C_3   0.556085 0.985571 0.675150 -0.265873
H38   H     H_    0.682662 0.959973 0.700003 0.109923
H39   H     H_    0.475769 0.944087 0.640772 0.137166
H40   H     H_    0.457156 0.000537 0.718378 0.156842

loop_
_geom_bond_atom_site_label_1
_geom_bond_atom_site_label_2
_ccdc_geom_bond_type
C9    C34   A    
C19   H11   S    
C38   H5    S    
C50   H20   S    
C18   H10   S    
O14   V3    S    
C12   C35   A    
C19   C27   A    
C13   C38   A    
C50   H22   S    
O5    C4    A    
C55   H35   S    
C15   C40   A    
C52   H27   S    
O11   C3    A    
C16   C39   A    
C49   H19   S    
C9    C26   A    
O20   V1    S    
C54   H34   S    
C54   H32   S    
C38   C46   A    
C53   H29   S    
C22   C45   A    
O13   V4    S    
C35   C43   A    
C34   C42   A    
C15   C32   A    
C19   C44   A    
C54   H33   S    
C18   C41   A    
C8    C14   S    
C24   H16   S    
C25   O22   S    
O4    V1    S    
C55   H37   S    
O9    V1    S    
C14   C37   A    
C4    C10   S    
C16   C31   A    
O17   V4    S    
O15   C7    A    
C6    C16   S    
O18   V3    S    
O16   C8    A    
O12   V4    S    
O19   V2    S    
C22   C30   A    
C45   C46   A    
C17   C25   A    
O24   C52   S    
C55   H36   S    
O26   C54   S    
O5    V1    S    
C39   H8    S    
O17   V1    S    
C52   H28   S    
O7    V3    S    
C20   C43   A    
O19   V3    S    
C43   C44   A    
O8    V4    S    
O20   V4    S    
C3    C9    S    
O16   V1    S    
C7    C13   S    
C34   H1    S    
C21   C29   A    
C51   H25   S    
C30   O25   S    
C11   C36   A    
C23   H15   S    
C33   H2    S    
O3    V2    S    
C21   H13   S    
O6    C3    A    
C56   H40   S    
O10   V2    S    
C26   O21   S    
C49   H18   S    
O23   C51   S    
C5    C15   S    
C37   H6    S    
O7    C2    A    
C17   H9    S    
O12   C4    A    
C51   H24   S    
O13   C5    A    
C53   H31   S    
C12   C27   A    
C18   C26   A    
C13   C30   A    
O9    C1    A    
O6    V2    S    
C39   C47   A    
O18   V2    S    
C56   H38   S    
C40   H7    S    
C24   C47   A    
O2    C7    A    
C29   O26   S    
O15   V2    S    
C23   C31   A    
C37   C45   A    
C24   C32   A    
C31   O28   S    
C10   C25   A    
C36   H3    S    
C21   C46   A    
C33   C41   A    
C20   H12   S    
O27   C55   S    
C50   H21   S    
C17   C42   A    
C52   H26   S    
C28   O23   S    
O8    C1    A    
O14   C6    A    
C27   O24   S    
C47   C48   A    
O25   C53   S    
O4    C5    A    
C20   C28   A    
C49   H17   S    
C14   C29   A    
O10   C2    A    
C10   C33   A    
C51   H23   S    
C32   O27   S    
O1    V4    S    
O22   C50   S    
C53   H30   S    
C23   C48   A    
O11   V3    S    
C36   C44   A    
O1    C8    A    
C41   C42   A    
C11   C28   A    
C56   H39   S    
O2    V3    S    
O3    C6    A    
C1    C11   S    
O21   C49   S    
C2    C12   S    
C35   H4    S    
C40   C48   A    
O28   C56   S    
C22   H14   S    
