data_mof_unit_52272.cif
_audit_creation_date              2012-12-10T20:41:05-0500
_audit_creation_method            fapswitch 2.2
_symmetry_space_group_name_H-M    P1
_symmetry_Int_Tables_number       1
_space_group_crystal_system       triclinic
_cell_length_a                    27.716626
_cell_length_b                    10.673868
_cell_length_c                    9.860905
_cell_angle_alpha                 89.673836
_cell_angle_beta                  90.375309
_cell_angle_gamma                 90.288308
_cell_volume                      2917.13946338

loop_
_atom_site_label
_atom_site_type_symbol
_atom_type_description
_atom_site_fract_x
_atom_site_fract_y
_atom_site_fract_z
_atom_type_partial_charge
C1    C     C_R   0.501594 0.259874 0.500248 0.877680
C2    C     C_R   0.974896 0.396257 0.484746 0.046931
C3    C     C_R   0.974696 0.626144 0.513939 0.046206
C4    C     C_R   0.406198 0.501018 0.499789 0.870183
C5    C     C_R   0.949556 0.510565 0.500136 0.075914
C6    C     C_R   0.948199 0.282985 0.480163 -0.209032
C7    C     C_R   0.898224 0.282683 0.483761 -0.124501
C8    C     C_R   0.872994 0.394992 0.492878 -0.033836
C9    C     C_R   0.898454 0.509249 0.501705 -0.049991
C10   C     C_R   0.872683 0.622172 0.512003 -0.029954
C11   C     C_R   0.822229 0.618721 0.512574 0.552402
C12   C     C_R   0.278010 0.449655 0.603244 -0.095416
C13   C     C_R   0.822556 0.395868 0.494193 0.572988
C14   C     C_R   0.722164 0.497805 0.379271 0.703448
C15   C     C_R   0.672042 0.496006 0.378530 -0.298540
C16   C     C_R   0.501808 0.740024 0.499705 0.879360
C17   C     C_R   0.672168 0.509082 0.624568 -0.196853
C18   C     C_R   0.722286 0.511128 0.624986 -0.184855
C19   C     C_R   0.747190 0.505399 0.502527 0.189975
C20   C     C_R   0.025867 0.398544 0.475840 0.046657
C21   C     C_R   0.051074 0.512984 0.497284 0.071400
C22   C     C_R   0.025795 0.626350 0.519682 0.046691
C23   C     C_R   0.253633 0.514939 0.500441 0.320105
C24   C     C_R   0.052706 0.290069 0.445040 -0.214901
C25   C     C_R   0.102737 0.735510 0.549792 -0.136781
C26   C     C_R   0.947638 0.738001 0.520675 -0.209575
C27   C     C_R   0.897620 0.735735 0.520058 -0.124496
C28   C     C_R   0.593993 0.500238 0.500405 0.906806
C29   C     C_R   0.052715 0.736160 0.548416 -0.214005
C30   C     C_R   0.510731 0.062996 0.622965 0.154115
C31   C     C_R   0.509761 0.128564 0.500646 -0.104953
C32   C     C_R   0.518449 0.065650 0.378636 -0.215788
C33   C     C_R   0.518622 0.936068 0.378309 -0.212732
C34   C     C_R   0.102185 0.513973 0.496595 -0.051787
C35   C     C_R   0.510149 0.871306 0.500006 -0.103808
C36   C     C_R   0.511053 0.935143 0.622690 0.133803
C37   C     C_3   0.477585 0.925930 0.740593 -0.468278
C38   C     C_3   0.476913 0.067717 0.740130 -0.501648
C39   C     C_R   0.480393 0.401796 0.071017 0.124111
C40   C     C_R   0.178206 0.406185 0.470121 0.499770
C41   C     C_R   0.523056 0.591478 0.071895 -0.101208
C42   C     C_R   0.522977 0.591630 0.927866 -0.112324
C43   C     C_R   0.481007 0.401047 0.928627 0.141399
C44   C     C_3   0.430511 0.354027 0.919547 -0.574346
C45   C     C_R   0.127774 0.403306 0.469756 -0.018808
C46   C     C_3   0.429407 0.354692 0.073856 0.344360
C47   C     C_R   0.178306 0.623949 0.523722 0.505769
C48   C     C_R   0.279354 0.577597 0.398832 -0.129408
C49   C     C_R   0.329451 0.573542 0.398976 -0.221327
C50   C     C_R   0.328073 0.445393 0.603337 -0.226830
C51   C     C_3   0.350488 0.391144 0.130369 -0.271331
C52   C     C_R   0.102680 0.292618 0.442436 -0.137230
C53   C     C_R   0.127830 0.625531 0.523029 -0.021737
C54   C     C_R   0.353874 0.505999 0.500118 -0.031135
C55   C     C_R   0.646710 0.501549 0.501231 -0.131393
F1    F     F_    0.746485 0.492481 0.260479 -0.648520
H1    H     H_    0.346559 0.393179 0.682330 0.145630
H2    H     H_    0.521769 0.887752 0.282475 0.166964
H3    H     H_    0.442152 0.883094 0.713670 0.213215
H4    H     H_    0.258064 0.401551 0.682140 0.140691
H5    H     H_    0.495477 0.885498 0.831961 0.201951
H6    H     H_    0.441148 0.106768 0.711274 0.201678
H7    H     H_    0.494144 0.109207 0.831674 0.205058
H8    H     H_    0.540940 0.666491 0.126095 0.137502
H9    H     H_    0.540788 0.666787 0.873452 0.141699
H10   H     H_    0.405918 0.423203 0.870991 0.239194
H11   H     H_    0.427951 0.258350 0.877495 0.156027
H12   H     H_    0.260467 0.628297 0.319431 0.147625
H13   H     H_    0.426803 0.260337 0.122636 0.065222
H14   H     H_    0.121590 0.206888 0.419017 0.191252
H15   H     H_    0.653188 0.490193 0.282200 0.189926
H16   H     H_    0.879421 0.193523 0.479409 0.191955
H17   H     H_    0.964789 0.192072 0.476793 0.138386
H18   H     H_    0.036232 0.201673 0.419462 0.142035
H19   H     H_    0.349133 0.623076 0.320517 0.183204
H20   H     H_    0.347974 0.327735 0.219911 0.177363
H21   H     H_    0.340289 0.339754 0.036345 0.150175
H22   H     H_    0.323712 0.466944 0.142154 0.188811
H23   H     H_    0.121687 0.822031 0.572362 0.190956
H24   H     H_    0.963920 0.829740 0.523590 0.138566
H25   H     H_    0.653453 0.513702 0.720467 0.183316
H26   H     H_    0.878548 0.823910 0.525703 0.192281
H27   H     H_    0.741852 0.516906 0.720182 0.178578
H28   H     H_    0.036314 0.824157 0.573584 0.141316
H29   H     H_    0.521546 0.115285 0.282917 0.167653
N1    N     N_R   0.202220 0.515227 0.497765 -0.356440
N2    N     N_R   0.798518 0.506701 0.503493 -0.338904
N3    N     N_R   0.499670 0.499140 0.142800 -0.087754
N4    N     N_R   0.499670 0.499180 0.857150 -0.090074
O1    O     O_R   0.500010 0.316790 0.614690 -0.612089
O2    O     O_R   0.571250 0.500000 0.614690 -0.622625
O3    O     O_R   0.571240 0.499960 0.385340 -0.626055
O4    O     O_2   0.203168 0.301135 0.442640 -0.562502
O5    O     O_3   0.397018 0.445089 0.123078 -0.558233
O6    O     O_2   0.797609 0.287165 0.486228 -0.532898
O7    O     O_2   0.203366 0.729674 0.551194 -0.555176
O8    O     O_2   0.796959 0.726117 0.521557 -0.537981
O9    O     O_R   0.500000 0.316760 0.385350 -0.634663
O10   O     O_R   0.428760 0.500040 0.614660 -0.623607
O11   O     O_R   0.428750 0.500000 0.385310 -0.561920
O12   O     O_R   0.500000 0.683240 0.614650 -0.622507
O13   O     O_R   0.499990 0.683210 0.385310 -0.626691
Zn1   Zn    Zn3+2 0.500000 0.500020 0.653130 0.957411
Zn2   Zn    Zn3+2 0.500000 0.499980 0.346870 0.981730

loop_
_geom_bond_atom_site_label_1
_geom_bond_atom_site_label_2
_ccdc_geom_bond_type
C10   C27   A    
C24   C52   A    
C14   F1    S    
C33   H2    S    
C22   C29   A    
C41   C42   A    
C44   H10   S    
C35   C36   A    
C1    C31   S    
C40   O4    S    
C7    C8    A    
C12   C23   A    
C26   C27   A    
C43   N4    A    
C13   O6    S    
C36   C37   S    
C25   C53   A    
C19   N2    S    
C16   C35   S    
C30   C31   A    
C49   C54   A    
O11   Zn2   S    
C30   C38   S    
C18   C19   A    
C40   N1    A    
C46   H13   S    
C20   C24   A    
C11   N2    A    
C8    C9    A    
C23   N1    S    
C42   H9    S    
C47   O7    S    
C49   H19   S    
C9    C10   A    
C17   C55   A    
C47   C53   A    
O12   Zn1   S    
C21   C22   A    
N4    Zn1   S    
C2    C6    A    
C39   N3    A    
N3    Zn2   S    
C28   C55   S    
C44   C46   S    
C18   H27   S    
C27   H26   S    
C25   C29   A    
C40   C45   A    
C44   H11   S    
C2    C20   A    
C47   N1    A    
C51   H20   S    
C29   H28   S    
O10   Zn1   S    
C7    H16   S    
C39   C43   A    
C21   C34   A    
C45   C52   A    
C26   H24   S    
C15   C55   A    
C43   C44   S    
C51   H21   S    
C5    C9    A    
C37   C38   S    
C37   H5    S    
C31   C32   A    
C46   O5    S    
C13   N2    A    
C17   C18   A    
C28   O3    A    
C34   C45   A    
C50   C54   A    
C48   H12   S    
O13   Zn2   S    
C37   H3    S    
C39   C46   S    
C16   O13   A    
C48   C49   A    
C4    O11   A    
C2    C5    A    
C1    O1    A    
C6    H17   S    
C38   H7    S    
C41   N3    A    
C23   C48   A    
C4    C54   S    
C25   H23   S    
C50   H1    S    
C14   C19   A    
C3    C26   A    
O2    Zn1   S    
C3    C5    A    
C1    O9    A    
C12   C50   A    
C6    C7    A    
C15   H15   S    
C30   C36   A    
C11   O8    S    
C42   N4    A    
C32   C33   A    
C51   H22   S    
C24   H18   S    
O9    Zn2   S    
C32   H29   S    
C33   C35   A    
C28   O2    A    
C17   H25   S    
O1    Zn1   S    
C52   H14   S    
C10   C11   A    
O3    Zn2   S    
C51   O5    S    
C12   H4    S    
C8    C13   A    
C16   O12   A    
C20   C21   A    
C34   C53   A    
C4    O10   A    
C14   C15   A    
C3    C22   A    
C41   H8    S    
C38   H6    S    
