data_mof_unit_36575.cif
_audit_creation_date              2012-10-26T21:06:36-0400
_audit_creation_method            fapswitch 2.2
_symmetry_space_group_name_H-M    P1
_symmetry_Int_Tables_number       1
_space_group_crystal_system       triclinic
_cell_length_a                    15.836094
_cell_length_b                    10.791125
_cell_length_c                    9.580865
_cell_angle_alpha                 89.383149
_cell_angle_beta                  89.112952
_cell_angle_gamma                 90.784582
_cell_volume                      1636.8186466

loop_
_atom_site_label
_atom_site_type_symbol
_atom_type_description
_atom_site_fract_x
_atom_site_fract_y
_atom_site_fract_z
_atom_type_partial_charge
C1    C     C_R   0.499948 0.262318 0.500417 0.549697
C2    C     C_R   0.556810 0.571908 0.069538 0.089074
C3    C     C_R   0.339886 0.499949 0.500842 0.554096
C4    C     C_R   0.660114 0.500050 0.499158 0.554094
C5    C     C_3   0.969986 0.402830 0.575266 -0.101598
C6    C     C_3   0.030014 0.597155 0.424740 -0.101596
C7    C     C_3   0.028093 0.394232 0.444341 -0.099381
C8    C     C_3   0.971908 0.605753 0.555665 -0.099379
C9    C     C_1   0.250068 0.500210 0.502436 -0.033850
C10   C     C_1   0.749932 0.499784 0.497565 -0.033847
C11   C     C_3   0.026119 0.508812 0.632364 -0.103298
C12   C     C_R   0.500054 0.737681 0.499583 0.549697
C13   C     C_3   0.973881 0.491173 0.367643 -0.103296
C14   C     C_3   0.082668 0.500212 0.501433 0.052406
C15   C     C_3   0.917332 0.499773 0.498573 0.052407
C16   C     C_1   0.174417 0.500304 0.502494 -0.071068
C17   C     C_1   0.825583 0.499685 0.497510 -0.071066
C18   C     C_R   0.465544 0.064696 0.387742 -0.143399
C19   C     C_R   0.534464 0.935303 0.612256 -0.143401
C20   C     C_R   0.379617 0.346625 0.866567 0.070194
C21   C     C_R   0.296534 0.387732 0.849933 -0.081166
C22   C     C_R   0.234493 0.307453 0.798776 -0.119129
C23   C     C_R   0.465355 0.936434 0.387458 -0.148476
C24   C     C_R   0.254398 0.184864 0.767936 -0.112330
C25   C     C_R   0.335865 0.141683 0.791082 -0.117825
C26   C     C_R   0.397830 0.221666 0.842897 -0.079166
C27   C     C_R   0.620383 0.653359 0.133429 0.070201
C28   C     C_R   0.703461 0.612246 0.150045 -0.081163
C29   C     C_R   0.765506 0.692511 0.201191 -0.119126
C30   C     C_R   0.745615 0.815096 0.232039 -0.112339
C31   C     C_R   0.664154 0.858282 0.208904 -0.117833
C32   C     C_R   0.602183 0.778315 0.157103 -0.079161
C33   C     C_R   0.534655 0.063565 0.612540 -0.148476
C34   C     C_R   0.500131 0.871589 0.499387 0.024270
C35   C     C_R   0.499876 0.128410 0.500612 0.024272
C36   C     C_R   0.443798 0.428674 0.078340 -0.005609
C37   C     C_R   0.556201 0.571326 0.921659 -0.005611
C38   C     C_R   0.443187 0.428090 0.930460 0.089074
Cu1   Cu    Cu3+1 0.500000 0.500020 0.640660 0.941865
Cu2   Cu    Cu3+1 0.500000 0.499980 0.359340 0.941867
H1    H     H_    0.052582 0.307404 0.398784 0.100259
H2    H     H_    0.563019 0.111927 0.698851 0.117356
H3    H     H_    0.399132 0.371377 0.137611 0.115860
H4    H     H_    0.600869 0.628621 0.862387 0.115861
H5    H     H_    0.280227 0.482183 0.874931 0.102916
H6    H     H_    0.170970 0.340170 0.783405 0.105028
H7    H     H_    0.206395 0.122887 0.728120 0.105492
H8    H     H_    0.350811 0.046018 0.770131 0.115445
H9    H     H_    0.459974 0.186509 0.864701 0.097546
H10   H     H_    0.719765 0.517802 0.125026 0.102908
H11   H     H_    0.829027 0.659784 0.216552 0.105026
H12   H     H_    0.947418 0.692581 0.601223 0.100259
H13   H     H_    0.793624 0.877065 0.271846 0.105493
H14   H     H_    0.649216 0.953946 0.229863 0.115446
H15   H     H_    0.540041 0.813482 0.135303 0.097544
H16   H     H_    0.943991 0.323026 0.636970 0.099250
H17   H     H_    0.056009 0.676959 0.363036 0.099250
H18   H     H_    0.951039 0.483949 0.259017 0.093923
H19   H     H_    0.048962 0.516035 0.740989 0.093924
H20   H     H_    0.437943 0.113940 0.300882 0.120589
H21   H     H_    0.562065 0.886059 0.699117 0.120587
H22   H     H_    0.436995 0.888072 0.301144 0.117358
N1    N     N_R   0.500020 0.500030 0.852070 -0.237270
N2    N     N_R   0.499980 0.499970 0.147930 -0.237271
O1    O     O_R   0.500000 0.319660 0.618740 -0.498526
O2    O     O_R   0.500000 0.680340 0.381260 -0.498529
O3    O     O_R   0.499990 0.319630 0.381170 -0.510995
O4    O     O_R   0.500010 0.680370 0.618830 -0.510993
O5    O     O_R   0.379080 0.500000 0.618760 -0.487148
O6    O     O_R   0.620920 0.500000 0.381240 -0.487144
O7    O     O_R   0.379080 0.499970 0.381190 -0.505033
O8    O     O_R   0.620920 0.500030 0.618810 -0.505037

loop_
_geom_bond_atom_site_label_1
_geom_bond_atom_site_label_2
_ccdc_geom_bond_type
Cu2   O7    S    
Cu1   O4    S    
C5    H16   S    
C4    O6    A    
C12   O4    A    
Cu2   O6    S    
C33   H2    S    
C28   C29   A    
C3    O5    A    
C9    C16   T    
C5    C11   S    
C30   C31   A    
C11   C14   S    
C10   C17   T    
C1    O3    A    
C28   H10   S    
C23   H22   S    
Cu2   O3    S    
C1    O1    A    
Cu1   O8    S    
C2    C27   S    
C18   C35   A    
C8    H12   S    
C32   H15   S    
Cu2   O2    S    
C21   C22   A    
Cu1   O1    S    
C6    H17   S    
C11   H19   S    
C37   N1    A    
C2    N2    A    
C21   H5    S    
C7    C14   S    
C30   H13   S    
C18   C23   A    
C24   C25   A    
C19   C33   A    
C26   H9    S    
Cu1   Cu2   S    
C5    C7    S    
C6    C8    S    
C13   H18   S    
C25   C26   A    
C12   O2    A    
C3    O7    A    
C29   C30   A    
C3    C9    S    
C6    C14   S    
C20   C38   S    
C31   C32   A    
C23   C34   A    
Cu1   O5    S    
C25   H8    S    
C18   H20   S    
C22   H6    S    
C8    C15   S    
C13   C15   S    
C14   C16   S    
C12   C34   S    
C4    O8    A    
C1    C35   S    
C38   N1    A    
C29   H11   S    
C15   C17   S    
C27   C32   A    
C24   H7    S    
C19   C34   A    
Cu1   N1    S    
Cu2   N2    S    
C37   H4    S    
C36   C38   A    
C6    C13   S    
C2    C37   A    
C20   C26   A    
C19   H21   S    
C8    C11   S    
C33   C35   A    
C22   C24   A    
C7    H1    S    
C31   H14   S    
C5    C15   S    
C7    C13   S    
C20   C21   A    
C27   C28   A    
C36   H3    S    
C36   N2    A    
C4    C10   S    
