data_mof_unit_50651.cif
_audit_creation_date              2013-03-05T15:59:35-0500
_audit_creation_method            fapswitch 2.2
_symmetry_space_group_name_H-M    P1
_symmetry_Int_Tables_number       1
_space_group_crystal_system       triclinic
_cell_length_a                    8.249367
_cell_length_b                    12.708617
_cell_length_c                    17.223137
_cell_angle_alpha                 98.381803
_cell_angle_beta                  97.514573
_cell_angle_gamma                 98.430171
_cell_volume                      1745.56574359

loop_
_atom_site_label
_atom_site_type_symbol
_atom_site_description
_atom_site_fract_x
_atom_site_fract_y
_atom_site_fract_z
_atom_type_partial_charge
P1    P     P_3+3 0.996360 0.395990 0.320310 0.462231
O1    O     O_2   0.825360 0.427200 0.308020 -0.409881
O2    O     O_3   0.099050 0.435020 0.406000 -0.362568
O3    O     O_3   0.623690 0.628090 0.355970 -0.400171
O4    O     O_2   0.732138 0.558616 0.223213 -0.342803
O5    O     O_3   0.982384 0.255839 0.311449 -0.604644
O6    O     O_3   0.548427 0.705817 0.210413 -0.517440
H1    H     H_    0.607967 0.826411 0.309014 0.094367
C1    C     C_3   0.421309 0.864004 0.221504 0.089790
H2    H     H_    0.388919 0.927940 0.265180 0.146258
P2    P     P_3+3 0.688190 0.753610 0.561600 0.453512
P3    P     P_3+3 0.105191 0.825773 0.398429 0.486586
O7    O     O_2   0.857620 0.767930 0.537920 -0.385000
O8    O     O_3   0.055170 0.686660 0.395490 -0.370336
O9    O     O_2   0.973509 0.882397 0.436173 -0.352221
O10   O     O_3   0.731369 0.789489 0.665183 -0.565809
O11   O     O_3   0.099643 0.858732 0.302606 -0.617228
C2    C     C_3   0.958129 0.804694 0.249373 0.864313
H3    H     H_    0.854059 0.777380 0.280192 0.065790
C3    C     C_3   0.905091 0.884154 0.196565 -0.882943
H4    H     H_    0.869795 0.953533 0.232826 0.285779
H5    H     H_    0.008897 0.914379 0.166133 0.222733
C4    C     C_3   0.269021 0.789873 0.637474 0.355785
H6    H     H_    0.395528 0.777434 0.628800 0.093990
H7    H     H_    0.178939 0.755299 0.582725 0.123410
C5    C     C_3   0.265837 0.910023 0.655123 -0.834543
H8    H     H_    0.344513 0.945427 0.712654 0.275249
H9    H     H_    0.313113 0.950846 0.608081 0.205071
H10   H     H_    0.137196 0.923666 0.658980 0.273459
Ba1   Ba    Ba6+2 0.843240 0.548600 0.461650 1.591513
C6    C     C_3   0.820289 0.201646 0.304666 0.857821
H11   H     H_    0.744893 0.251084 0.337803 0.033597
C7    C     C_3   0.745716 0.172810 0.216670 -1.019542
H12   H     H_    0.734766 0.247200 0.191103 0.222241
H13   H     H_    0.620545 0.124232 0.209417 0.275146
H14   H     H_    0.825361 0.125820 0.183237 0.261833
C8    C     C_3   0.778973 0.702999 0.698924 0.394901
H15   H     H_    0.886008 0.677107 0.673674 0.097834
H16   H     H_    0.674454 0.634292 0.688591 0.127902
C9    C     C_3   0.829210 0.740156 0.788045 -0.857980
H17   H     H_    0.941431 0.803611 0.799912 0.298808
H18   H     H_    0.857069 0.671792 0.817707 0.207034
H19   H     H_    0.726603 0.773200 0.813576 0.269778
P4    P     P_3+3 0.193350 0.604100 0.679700 0.476569
O12   O     O_2   0.364350 0.572830 0.692030 -0.362328
O13   O     O_3   0.090660 0.565070 0.594010 -0.416791
O14   O     O_3   0.566030 0.372000 0.644040 -0.384028
O15   O     O_3   0.228627 0.744868 0.703116 -0.544125
P5    P     P_3+3 0.091315 0.174528 0.605743 0.496321
O16   O     O_3   0.601410 0.366560 0.460070 -0.402029
O17   O     O_3   0.134540 0.313430 0.604520 -0.362465
O18   O     O_2   0.205733 0.121278 0.553922 -0.368989
O19   O     O_3   0.164477 0.152588 0.701075 -0.511056
Ba2   Ba    Ba6+2 0.346590 0.451490 0.538360 1.590028
P6    P     P_3+3 0.574804 0.590946 0.252870 0.490984
C10   C     C_3   0.498897 0.783069 0.265602 0.411807
H20   H     H_    0.406175 0.746048 0.299337 0.033477
H21   H     H_    0.306548 0.822074 0.181311 0.154510
O20   O     O_3   0.588300 0.633530 0.539940 -0.401472
C11   C     C_3   0.387419 0.256700 0.294925 0.426625
H22   H     H_    0.308847 0.301080 0.330811 0.132774
H23   H     H_    0.488708 0.314987 0.280886 0.049178
C12   C     C_3   0.278842 0.197598 0.218019 -0.957471
H24   H     H_    0.180866 0.135984 0.231323 0.290644
H25   H     H_    0.218793 0.255136 0.186491 0.207909
H26   H     H_    0.354070 0.156866 0.178092 0.247039
P7    P     P_3+3 0.506237 0.229662 0.436089 0.454672
O21   O     O_2   0.332090 0.232110 0.462130 -0.325356
O22   O     O_3   0.457428 0.180986 0.333940 -0.564009
H27   H     H_    0.797464 0.844912 0.150885 0.297138
C13   C     C_3   0.096403 0.218661 0.756320 0.260485
H28   H     H_    0.133428 0.305272 0.752572 0.081572
H29   H     H_    0.959635 0.197593 0.745398 0.021134
C14   C     C_3   0.159278 0.202835 0.840659 -0.049692
H30   H     H_    0.291657 0.241345 0.857444 0.155648
H31   H     H_    0.087761 0.243545 0.882831 0.044680
P8    P     P_3+3 0.607968 0.387212 0.747040 0.459321
C15   C     C_3   0.592779 0.180202 0.723515 0.413574
H32   H     H_    0.698272 0.208279 0.693364 0.010214
O23   O     O_2   0.494401 0.461556 0.782676 -0.382912
O24   O     O_3   0.545240 0.262693 0.775053 -0.507440
H33   H     H_    0.485680 0.142418 0.676981 0.140477
H34   H     H_    0.750701 0.133262 0.818085 0.273035
C16   C     C_3   0.643977 0.095802 0.771349 -0.914173
H35   H     H_    0.679056 0.028494 0.731776 0.243591
H36   H     H_    0.540953 0.063934 0.801257 0.295139
C17   C     C_2   0.268579 0.492693 0.273496 -0.340268
C18   C     C_3   0.395705 0.480520 0.218832 0.121082
C19   C     C_2   0.322163 0.479344 0.133016 -0.175616
C20   C     C_2   0.155420 0.460173 0.110185 0.143269
C21   C     C_2   0.046554 0.439465 0.171662 -0.170844
C22   C     C_1   0.112833 0.448976 0.247402 0.304805
C23   C     C_R   0.897340 0.450648 0.860329 -0.269467
C24   C     C_R   0.827303 0.443253 0.781101 0.228159
C25   C     C_R   0.084120 0.536627 0.751813 0.329514
C26   C     C_R   0.155585 0.544828 0.832097 -0.250678
C27   C     C_R   0.064624 0.498700 0.886912 0.093205
C28   C     C_2   0.075878 0.454522 0.026099 -0.128334
C29   C     C_2   0.146440 0.504176 0.971062 -0.123949
C30   C     C_R   0.922466 0.481547 0.726660 -0.523384
H37   H     H_    0.270020 0.551474 0.988040 0.146036
H38   H     H_    0.912981 0.419446 0.154190 0.144310
H39   H     H_    0.818427 0.419576 0.899862 0.152174
H40   H     H_    0.951557 0.408883 0.011211 0.123325
H41   H     H_    0.406017 0.488263 0.089968 0.138708
H42   H     H_    0.281524 0.586923 0.851711 0.167300
H43   H     H_    0.306294 0.534584 0.334288 0.156469
H44   H     H_    0.866690 0.474577 0.665297 0.171434
C31   C     C_R   0.773409 0.181683 0.530610 -0.427086
C32   C     C_R   0.417103 0.810464 0.476592 -0.555022
C33   C     C_R   0.382669 0.987176 0.450742 -0.166391
C34   C     C_R   0.316733 0.879596 0.448626 0.224772
C35   C     C_R   0.578925 0.849947 0.515131 0.293278
C36   C     C_R   0.644986 0.961895 0.523679 -0.045160
C37   C     C_R   0.545623 0.030478 0.488753 -0.034292
C38   C     C_R   0.612628 0.140220 0.491829 0.272269
C39   C     C_R   0.872199 0.116091 0.565364 0.238322
C40   C     C_R   0.807586 0.007147 0.563442 -0.179413
H45   H     H_    0.303983 0.035475 0.422158 0.220595
H46   H     H_    0.886740 0.959055 0.591756 0.171934
H47   H     H_    0.824999 0.265053 0.530552 0.162553
H48   H     H_    0.366407 0.725693 0.470903 0.177822
N1    N     N_R   0.824972 0.103610 0.339401 0.201554
O25   O     O_R   0.963246 0.085754 0.376931 -0.365779
O26   O     O_R   0.689733 0.035303 0.336042 -0.458882
O27   O     O_3   0.532163 0.911153 0.176563 -0.701979
H49   H     H_    0.468243 0.952564 0.142728 0.333892
N2    N     N_R   0.141929 0.088441 0.846827 0.286423
O28   O     O_R   0.271365 0.047428 0.870647 -0.379237
O29   O     O_R   0.996326 0.027993 0.832460 -0.396995
N3    N     N_R   0.999603 0.712181 0.199544 0.222646
O30   O     O_R   0.909496 0.670199 0.131164 -0.386617
O31   O     O_R   0.129986 0.672294 0.222461 -0.464292

loop_
_geom_bond_atom_site_label_1
_geom_bond_atom_site_label_2
_geom_bond_distance
_ccdc_geom_bond_type
C17   C18   1.507804 S    
C12   H25   1.107496 S    
C23   C24   1.394685 A    
C25   C26   1.413205 A    
O6    P6    1.753849 S    
C3    H27   1.108634 S    
N2    O28   1.300398 A    
C23   H39   1.078080 S    
C36   C37   1.423641 A    
C31   C39   1.390819 A    
N1    O25   1.302401 A    
Ba1   Ba2   4.523607 S    
C5    H8    1.105302 S    
O16   Ba2   2.895573 S    
C14   H31   1.111442 S    
C11   C12   1.524223 S    
C11   H23   1.108571 S    
C16   H36   1.107285 S    
P1    O1    1.517389 D    
C8    C9    1.521740 S    
O2    Ba2   2.815773 S    
P5    O19   1.749731 S    
N1    O26   1.298496 A    
Ba2   O21   2.881856 S    
C37   C38   1.413579 A    
P8    C24   1.829733 S    
C7    H14   1.110676 S    
C10   H20   1.111058 S    
C33   H45   1.077872 S    
C2    H3    1.106708 S    
C4    C5    1.517612 S    
P6    C18   1.849764 S    
C31   C38   1.394180 A    
C9    H19   1.110822 S    
P5    C39   1.851893 S    
C6    H11   1.100094 S    
P2    Ba1   3.410708 S    
P5    O17   1.752695 S    
P3    O11   1.757473 S    
C4    H6    1.103941 S    
C6    C7    1.528983 S    
C24   C30   1.394930 A    
C1    H2    1.111537 S    
O10   C8    1.397561 S    
C9    H18   1.107201 S    
O5    C6    1.393448 S    
Ba1   O16   2.819030 S    
C12   H26   1.108156 S    
C17   C22   1.314634 D    
Ba1   O20   2.896404 S    
H1    C10   1.109351 S    
C2    N3    1.461671 S    
O6    C10   1.407641 S    
O8    Ba1   2.763678 S    
P2    O20   1.591205 S    
C27   C29   1.503966 S    
P4    O13   1.574218 S    
C7    H12   1.109889 S    
C40   H46   1.076268 S    
Ba2   O20   2.818451 S    
C14   N2    1.460578 S    
C30   H44   1.081713 S    
C14   H30   1.111363 S    
P7    O21   1.563181 D    
O7    Ba1   2.881659 S    
C16   H35   1.110931 S    
C21   C22   1.327901 D    
C13   H29   1.105103 S    
C15   H32   1.111525 S    
P1    O5    1.750690 S    
C11   H22   1.109325 S    
P1    O2    1.574217 S    
O2    Ba1   2.911058 S    
P7    C38   1.836908 S    
C8    H15   1.104959 S    
P4    Ba2   3.381238 S    
P2    O10   1.751159 S    
C15   H33   1.109820 S    
H34   C16   1.108923 S    
P3    O9    1.548542 D    
P8    O24   1.747165 S    
P5    O18   1.541746 D    
C26   C27   1.419741 A    
O13   Ba2   2.911889 S    
O11   C2    1.405867 S    
C1    C10   1.529090 S    
C3    H4    1.102063 S    
C32   C35   1.396112 A    
C36   C40   1.420454 A    
O14   Ba2   2.796580 S    
C9    H17   1.110259 S    
C29   H37   1.085002 S    
P3    O8    1.747279 S    
O12   Ba2   2.836688 S    
P1    C22   1.823673 S    
O3    P6    1.746740 S    
O14   P8    1.738950 S    
C21   H38   1.085450 S    
N3    O30   1.302214 A    
O19   C13   1.403885 S    
C23   C27   1.411754 A    
P3    C34   1.828562 S    
P4    O12   1.517746 D    
C35   C36   1.425956 A    
O16   P7    1.766081 S    
P8    O23   1.545302 D    
C26   H42   1.082690 S    
C1    H21   1.110202 S    
C4    O15   1.395527 S    
C33   C34   1.388755 A    
C25   C30   1.393838 A    
O4    P6    1.543654 D    
C3    H5    1.111401 S    
N3    O31   1.294899 A    
N2    O29   1.300155 A    
C13   C14   1.529099 S    
C5    H9    1.106140 S    
C1    O27   1.397890 S    
Ba1   O13   2.815169 S    
O1    Ba1   2.836262 S    
O17   Ba2   2.764264 S    
C6    N1    1.461856 S    
C13   H28   1.111895 S    
C8    H16   1.109662 S    
P4    C25   1.861844 S    
C39   C40   1.402761 A    
C32   H48   1.082369 S    
P2    O7    1.499716 D    
C15   O24   1.407495 S    
C31   H47   1.082550 S    
C20   C21   1.502523 S    
C11   O22   1.400314 S    
O27   H49   0.992475 S    
C28   H40   1.080470 S    
P1    Ba1   3.380694 S    
C7    H13   1.104461 S    
C2    C3    1.526974 S    
C4    H7    1.111139 S    
P2    C35   1.836444 S    
C32   C34   1.386288 A    
C12   H24   1.110891 S    
C15   C16   1.518897 S    
C17   H43   1.086384 S    
C18   C19   1.519604 S    
C5    H10   1.108906 S    
C28   C29   1.358883 D    
C19   H41   1.084771 S    
C33   C37   1.409378 A    
P7    O22   1.750540 S    
C19   C20   1.355871 D    
C20   C28   1.496794 S    
O3    Ba1   2.797137 S    
P4    O15   1.747585 S    
