data_mof_unit_18140.cif
_audit_creation_date              2012-12-11T15:30:43-0500
_audit_creation_method            fapswitch 2.2
_symmetry_space_group_name_H-M    P1
_symmetry_Int_Tables_number       1
_space_group_crystal_system       triclinic
_cell_length_a                    7.08137
_cell_length_b                    20.522149
_cell_length_c                    24.258584
_cell_angle_alpha                 89.815
_cell_angle_beta                  90.016471
_cell_angle_gamma                 89.813552
_cell_volume                      3525.33982899

loop_
_atom_site_label
_atom_site_type_symbol
_atom_type_description
_atom_site_fract_x
_atom_site_fract_y
_atom_site_fract_z
_atom_type_partial_charge
O1    O     O_R   0.507310 0.423620 0.460450 -0.520173
O2    O     O_R   0.170760 0.556060 0.437190 -0.542816
O3    O     O_R   0.004040 0.576380 0.539550 -0.539337
C1    C     C_R   0.339252 0.575800 0.421416 0.694851
O4    O     O_R   0.177350 0.422870 0.454070 -0.532269
O5    O     O_R   0.010680 0.442240 0.556560 -0.527492
C2    C     C_R   0.346512 0.398742 0.444235 0.804303
O6    O     O_R   0.500670 0.557760 0.443440 -0.542633
O7    O     O_3   0.340380 0.506510 0.533610 -0.367547
V1    V     V_3+5 0.064130 0.498790 0.493770 1.485658
O8    O     O_R   0.681170 0.443940 0.562810 -0.508432
C3    C     C_R   0.849198 0.424075 0.578368 0.765813
O9    O     O_R   0.674570 0.577130 0.545930 -0.544868
C4    C     C_R   0.842614 0.600799 0.556285 0.702423
V2    V     V_3+5 0.564560 0.501210 0.506230 1.528975
O10   O     O_3   0.838170 0.493490 0.466390 -0.381817
C5    C     C_R   0.970857 0.838291 0.912007 -0.049347
C6    C     C_R   0.848208 0.660970 0.589356 -0.154873
C7    C     C_R   0.931648 0.721608 0.911142 -0.018421
C8    C     C_R   0.959516 0.779189 0.939994 -0.156184
C9    C     C_R   0.960912 0.839415 0.854280 -0.175049
C10   C     C_R   0.934937 0.781146 0.823394 0.054016
C11   C     C_R   0.912570 0.721593 0.853183 -0.032983
C12   C     C_R   0.924212 0.780473 0.764268 0.027181
C13   C     C_R   0.894976 0.720687 0.735925 0.002989
C14   C     C_R   0.855619 0.664554 0.767259 -0.197134
C15   C     C_R   0.865345 0.663933 0.824668 0.394703
C16   C     C_R   0.942538 0.837537 0.732355 -0.241620
C17   C     C_R   0.910436 0.837920 0.675457 0.305760
C18   C     C_R   0.863041 0.779481 0.647907 -0.077328
C19   C     C_R   0.887370 0.719552 0.676799 -0.021319
C20   C     C_R   0.795737 0.778038 0.592481 0.459123
C21   C     C_R   0.787383 0.718639 0.564656 -0.305856
C22   C     C_R   0.903694 0.660947 0.645275 0.211795
H1    H     H_    0.736725 0.717228 0.522530 0.153169
H2    H     H_    0.923437 0.677362 0.935191 0.215876
H3    H     H_    0.968271 0.777762 0.984590 0.141918
H4    H     H_    0.968828 0.886750 0.835159 0.085951
H5    H     H_    0.805459 0.621066 0.747357 0.222890
H6    H     H_    0.982748 0.883339 0.750295 0.114750
C23   C     C_3   0.737727 0.238894 0.796096 -0.398897
C24   C     C_3   0.081049 0.263860 0.794423 -0.287940
C25   C     C_3   0.054809 0.312940 0.743637 0.256408
H7    H     H_    0.744074 0.340932 0.782403 0.193544
H8    H     H_    0.709960 0.256022 0.838909 0.208188
H9    H     H_    0.222538 0.240945 0.795043 0.223759
H10   H     H_    0.064856 0.289526 0.834338 0.227554
H11   H     H_    0.162559 0.306681 0.712557 0.203858
C26   C     C_1   0.855259 0.378711 0.624153 0.002835
C27   C     C_3   0.934992 0.207929 0.792215 0.027829
C28   C     C_3   0.726420 0.297805 0.755692 0.350517
C29   C     C_3   0.879345 0.294574 0.710456 -0.150575
C30   C     C_3   0.890709 0.222273 0.688778 0.088757
C31   C     C_3   0.954480 0.174571 0.735361 -0.389683
C32   C     C_1   0.860442 0.340803 0.662675 0.212823
C33   C     C_1   0.958567 0.160150 0.838014 0.016552
C34   C     C_1   0.967756 0.121423 0.875862 -0.117434
H12   H     H_    0.865944 0.129883 0.733856 0.147872
H13   H     H_    0.103454 0.158895 0.729073 0.199400
H14   H     H_    0.745671 0.208141 0.677009 0.183397
H15   H     H_    0.630070 0.201068 0.787053 0.205461
C35   C     C_3   0.583915 0.695306 0.262179 -0.354646
C36   C     C_3   0.231671 0.700061 0.247360 -0.300678
C37   C     C_3   0.259275 0.749671 0.199451 -0.381283
H16   H     H_    0.595013 0.643207 0.250099 0.205415
H17   H     H_    0.091423 0.708337 0.266871 0.172245
H18   H     H_    0.231585 0.649659 0.230605 0.210046
H19   H     H_    0.267485 0.723178 0.159809 0.239245
H20   H     H_    0.130505 0.779803 0.194189 0.150343
C38   C     C_1   0.475203 0.877806 0.123928 -0.073171
C39   C     C_3   0.390476 0.706989 0.290953 0.106447
C40   C     C_3   0.610042 0.741327 0.211147 0.287282
C41   C     C_3   0.441371 0.791429 0.208363 -0.013694
C42   C     C_3   0.424389 0.829228 0.265911 0.621602
C43   C     C_3   0.384218 0.777930 0.312875 -0.391933
C44   C     C_1   0.462419 0.838885 0.161734 0.124231
C45   C     C_1   0.364835 0.659549 0.337205 -0.026879
C46   C     C_1   0.349722 0.621193 0.375340 -0.167125
H21   H     H_    0.486961 0.782843 0.347301 0.193192
H22   H     H_    0.242954 0.786744 0.331573 0.148997
H23   H     H_    0.700086 0.703467 0.292153 0.158438
H24   H     H_    0.743726 0.768450 0.215341 0.139377
C47   C     C_R   0.470379 0.162751 0.087499 -0.186720
C48   C     C_R   0.358986 0.336605 0.413786 -0.196323
C49   C     C_R   0.498102 0.280137 0.092053 -0.176063
C50   C     C_R   0.495407 0.223091 0.060765 0.449041
C51   C     C_R   0.444801 0.160887 0.145091 -0.262979
C52   C     C_R   0.449335 0.218667 0.177614 0.115214
C53   C     C_R   0.477389 0.278394 0.149592 0.005631
C54   C     C_R   0.430475 0.219309 0.236705 -0.013327
C55   C     C_R   0.434789 0.279918 0.266293 0.024332
C56   C     C_R   0.484356 0.337417 0.236500 0.273408
C57   C     C_R   0.495052 0.336208 0.179048 -0.201799
C58   C     C_R   0.413907 0.161034 0.267288 -0.223666
C59   C     C_R   0.403856 0.160725 0.324746 0.284067
C60   C     C_R   0.399724 0.219804 0.353899 0.015241
C61   C     C_R   0.400388 0.279896 0.324884 0.053503
C62   C     C_R   0.396423 0.219451 0.411985 -0.209770
C63   C     C_R   0.382420 0.277175 0.442072 0.446010
C64   C     C_R   0.362834 0.337317 0.355826 -0.250768
H25   H     H_    0.528979 0.380906 0.157254 0.158558
H26   H     H_    0.333125 0.383257 0.335899 0.167879
H27   H     H_    0.520737 0.326429 0.071522 0.192198
H28   H     H_    0.424128 0.113362 0.162989 0.123251
H29   H     H_    0.412519 0.113971 0.247883 0.136312
H30   H     H_    0.408212 0.173914 0.434327 0.213023
O11   O     O_R   0.323590 0.942280 0.056590 -0.543127
O12   O     O_R   0.647030 0.077140 0.045940 -0.525802
O13   O     O_R   0.813570 0.057750 0.943430 -0.521088
C65   C     C_R   0.478226 0.101119 0.056080 0.806713
O14   O     O_R   0.653510 0.943950 0.062820 -0.532097
O15   O     O_R   0.820100 0.923600 0.960440 -0.539244
C66   C     C_R   0.485092 0.923935 0.078391 0.697944
O16   O     O_R   0.317060 0.076430 0.039590 -0.521227
O17   O     O_3   0.483830 0.993520 0.966410 -0.377466
V3    V     V_3+5 0.760140 0.001200 0.006230 1.529919
O18   O     O_R   0.149560 0.922820 0.954030 -0.542306
C67   C     C_R   0.981185 0.899119 0.943784 0.670680
O19   O     O_R   0.143080 0.056020 0.937150 -0.533529
C68   C     C_R   0.974951 0.075803 0.921512 0.768590
V4    V     V_3+5 0.259690 0.998730 0.993720 1.499479
O20   O     O_3   0.986120 0.006480 0.033580 -0.371508
S1    S     S_3+6 0.804677 0.590427 0.859235 0.080777
O21   O     O_2   0.978218 0.562609 0.886285 -0.266151
O22   O     O_2   0.658118 0.604388 0.902488 -0.299320
O23   O     O_3   0.717023 0.535528 0.814810 -0.458558
H31   H     H_    0.685623 0.497031 0.837743 0.419932
S2    S     S_3+6 0.692516 0.846161 0.558323 0.028488
O24   O     O_2   0.592322 0.889247 0.598938 -0.316935
O25   O     O_2   0.843536 0.884836 0.529637 -0.312059
O26   O     O_3   0.534064 0.820970 0.511258 -0.496738
H32   H     H_    0.605043 0.817404 0.476202 0.347996
S3    S     S_3+6 0.059899 0.400280 0.763550 0.086135
O27   O     O_2   0.883078 0.435973 0.746801 -0.324324
O28   O     O_2   0.083185 0.406856 0.824914 -0.263055
O29   O     O_3   0.239996 0.438386 0.732058 -0.435462
H33   H     H_    0.284023 0.471634 0.758592 0.396449
N1    N     N_2   0.993057 0.604493 0.668001 -0.515062
H34   H     H_    0.948199 0.560460 0.652497 0.261862
C69   C     C_3   0.196483 0.609130 0.671722 -0.414898
H35   H     H_    0.253864 0.564753 0.691923 0.222503
H36   H     H_    0.237867 0.651992 0.696789 0.196400
H37   H     H_    0.259100 0.613384 0.629858 0.183786
S4    S     S_3+6 0.503241 0.307927 0.731518 -0.068999
O30   O     O_2   0.409009 0.334308 0.782024 -0.310831
O31   O     O_2   0.486736 0.356607 0.685331 -0.322279
O32   O     O_3   0.417883 0.235068 0.711969 -0.590207
H38   H     H_    0.443320 0.232724 0.671918 0.340875
N2    N     N_2   0.007196 0.216031 0.639605 -0.504391
H39   H     H_    0.145638 0.229588 0.643822 0.291171
C70   C     C_3   0.981186 0.157378 0.607522 -0.367499
H40   H     H_    0.058994 0.161794 0.568020 0.249308
H41   H     H_    0.829406 0.150218 0.597726 0.211989
H42   H     H_    0.035972 0.114360 0.630449 0.167197
S5    S     S_3+6 0.648282 0.693642 0.149278 0.007151
O33   O     O_2   0.509744 0.638471 0.145629 -0.290526
O34   O     O_2   0.630459 0.735196 0.098373 -0.342679
O35   O     O_3   0.867138 0.661710 0.151893 -0.481248
H43   H     H_    0.947043 0.692253 0.130610 0.350682
S6    S     S_3+6 0.644394 0.872556 0.283048 -0.068166
O36   O     O_2   0.705454 0.914719 0.235590 -0.341251
O37   O     O_2   0.617586 0.915020 0.332870 -0.347158
O38   O     O_3   0.819495 0.819822 0.298462 -0.569437
H44   H     H_    0.886787 0.838683 0.330414 0.356146
N3    N     N_2   0.265818 0.875849 0.262034 -0.536938
H45   H     H_    0.138901 0.855569 0.251197 0.276102
C71   C     C_3   0.236353 0.924757 0.304126 -0.383613
H46   H     H_    0.089893 0.944185 0.301439 0.204427
H47   H     H_    0.331744 0.966512 0.296724 0.240614
H48   H     H_    0.256551 0.903982 0.346037 0.207902
S7    S     S_3+6 0.395762 0.273601 0.515006 -0.019217
O39   O     O_2   0.397607 0.204191 0.534953 -0.352176
O40   O     O_2   0.574576 0.306327 0.533221 -0.342266
O41   O     O_3   0.209368 0.312712 0.542427 -0.508904
H49   H     H_    0.247698 0.323154 0.580662 0.364323
N4    N     N_2   0.393508 0.099939 0.353093 -0.519753
H50   H     H_    0.471592 0.063292 0.334992 0.286229
C72   C     C_3   0.203104 0.079623 0.366097 -0.500039
H51   H     H_    0.122260 0.070709 0.327584 0.191824
H52   H     H_    0.129235 0.117363 0.390828 0.216716
H53   H     H_    0.207868 0.033900 0.390655 0.225754
N5    N     N_2   0.948803 0.896275 0.645751 -0.458049
H54   H     H_    0.912430 0.938215 0.666627 0.252851
C73   C     C_3   0.138335 0.899361 0.623678 -0.316359
H55   H     H_    0.154192 0.944421 0.598669 0.219621
H56   H     H_    0.166838 0.856775 0.596698 0.230480
H57   H     H_    0.243204 0.900218 0.657774 0.169343
S8    S     S_3+6 0.529692 0.228491 0.988492 0.023518
O42   O     O_2   0.516813 0.298138 0.969406 -0.286173
O43   O     O_2   0.721881 0.201933 0.974718 -0.342198
O44   O     O_3   0.364668 0.184348 0.955771 -0.505987
H58   H     H_    0.399030 0.186845 0.916233 0.350664
N6    N     N_2   0.546263 0.395095 0.263475 -0.542295
H59   H     H_    0.521462 0.437533 0.241670 0.272295
C74   C     C_3   0.737183 0.391601 0.284653 -0.509878
H60   H     H_    0.769596 0.436878 0.307691 0.195022
H61   H     H_    0.839377 0.386556 0.250146 0.204967
H62   H     H_    0.753545 0.349644 0.313328 0.211073

loop_
_geom_bond_atom_site_label_1
_geom_bond_atom_site_label_2
_ccdc_geom_bond_type
C13   C19   A    
C39   C43   S    
S7    O39   D    
C58   H29   S    
C50   S8    S    
O23   H31   S    
O17   V4    S    
S5    O34   D    
C39   C45   S    
C41   C42   S    
C4    C6    S    
O2    C1    A    
C59   C60   A    
C69   H37   S    
C23   H15   S    
C1    O6    A    
S2    O24   D    
C3    C26   S    
N1    H34   S    
N2    H39   S    
S1    O21   D    
C71   H47   S    
N3    H45   S    
C49   C50   A    
C33   C34   T    
S7    O40   D    
C14   C15   A    
C27   C31   S    
V3    O20   S    
S8    O44   S    
C37   H19   S    
C16   C17   A    
C69   H36   S    
C7    H2    S    
N2    C70   S    
O5    C3    A    
C18   C19   A    
C14   H5    S    
S1    O22   D    
C63   S7    S    
C16   H6    S    
V2    O10   S    
C5    C8    A    
C73   H55   S    
S8    O43   D    
C24   H9    S    
C70   H42   S    
C25   S3    S    
O18   V4    S    
O41   H49   S    
O11   C66   A    
O32   H38   S    
N5    H54   S    
O16   V4    S    
O8    V2    S    
C9    H4    S    
O38   H44   S    
O12   C65   A    
N6    C74   S    
C60   C62   A    
S3    O29   S    
C37   C41   S    
O14   V3    S    
O1    V2    S    
C11   C15   A    
C18   C20   A    
C25   H11   S    
C65   O16   A    
O13   V3    S    
C29   C32   S    
C74   H62   S    
N4    C72   S    
C2    C48   S    
C36   H17   S    
N3    C71   S    
C40   S5    S    
O9    C4    A    
S5    O35   S    
C30   N2    S    
S4    O32   S    
C30   H14   S    
C54   C58   A    
C71   H48   S    
C31   H13   S    
O19   V4    S    
C38   C66   S    
C69   H35   S    
S7    O41   S    
C36   H18   S    
C47   C65   S    
C42   C43   S    
C36   C37   S    
O44   H58   S    
C48   C64   A    
S6    O38   S    
C72   H51   S    
C12   C13   A    
S4    O31   D    
C56   N6    S    
C17   N5    S    
C57   H25   S    
C55   C56   A    
O4    C2    A    
C49   C53   A    
S4    O30   D    
S1    O23   S    
C13   C14   A    
C45   C46   T    
C22   N1    S    
C27   C33   S    
C74   H60   S    
S8    O42   D    
S6    O37   D    
C7    C11   A    
C59   N4    S    
C1    C46   S    
C17   C18   A    
C23   H8    S    
C70   H40   S    
C60   C61   A    
C47   C50   A    
C64   H26   S    
C19   C22   A    
C35   C40   S    
O14   C66   A    
C71   H46   S    
C37   H20   S    
C55   C61   A    
O19   C68   A    
C6    C22   A    
V4    O20   S    
O3    C4    A    
N1    C69   S    
C5    C67   S    
C24   C27   S    
C34   C68   S    
H7    C28   S    
N4    H50   S    
C35   H23   S    
C36   C39   S    
N6    H59   S    
O6    V2    S    
O9    V2    S    
C38   C44   T    
O35   H43   S    
C31   H12   S    
C41   C44   S    
C10   C12   A    
C24   C25   S    
O11   V4    S    
O26   H32   S    
O2    V1    S    
S2    O26   S    
C23   C27   S    
O15   V3    S    
C61   C64   A    
C29   C30   S    
O7    V1    S    
C15   S1    S    
C35   H16   S    
O1    C2    A    
C48   C63   A    
C12   C16   A    
C52   C54   A    
C40   C41   S    
S2    O25   D    
C47   C51   A    
C49   H27   S    
C72   H52   S    
O8    C3    A    
C30   C31   S    
C62   H30   S    
C73   H57   S    
C42   S6    S    
C20   C21   A    
O12   V3    S    
C7    C8    A    
O7    V2    S    
C28   C29   S    
O3    V1    S    
C26   C32   T    
O18   C67   A    
S6    O36   D    
O15   C67   A    
C8    H3    S    
C20   S2    S    
C54   C55   A    
S3    O27   D    
C56   C57   A    
C21   H1    S    
C73   H56   S    
C35   C39   S    
C24   H10   S    
C70   H41   S    
C53   C57   A    
C58   C59   A    
C25   C29   S    
C6    C21   A    
N5    C73   S    
C72   H53   S    
O5    V1    S    
C51   H28   S    
O4    V1    S    
C43   H22   S    
C52   C53   A    
C51   C52   A    
C62   C63   A    
S5    O33   D    
S3    O28   D    
C28   S4    S    
C10   C11   A    
O29   H33   S    
V1    O10   S    
C9    C10   A    
C43   H21   S    
C23   C28   S    
C42   N3    S    
C40   H24   S    
O17   V3    S    
O13   C68   A    
C74   H61   S    
C5    C9    A    
