data_mof_unit_15857.cif
_audit_creation_date              2012-10-26T19:20:37-0400
_audit_creation_method            fapswitch 2.2
_symmetry_space_group_name_H-M    P1
_symmetry_Int_Tables_number       1
_space_group_crystal_system       triclinic
_cell_length_a                    10.84659
_cell_length_b                    10.766772
_cell_length_c                    9.810048
_cell_angle_alpha                 108.916949
_cell_angle_beta                  101.077463
_cell_angle_gamma                 89.835509
_cell_volume                      1061.39453164

loop_
_atom_site_label
_atom_site_type_symbol
_atom_type_description
_atom_site_fract_x
_atom_site_fract_y
_atom_site_fract_z
_atom_type_partial_charge
C1    C     C_R   0.486839 0.253111 0.443673 0.556942
C2    C     C_R   0.737773 0.486584 0.500115 0.526174
C3    C     C_R   0.161154 0.657872 0.758518 -0.068982
C4    C     C_R   0.836923 0.340357 0.239004 -0.070027
C5    C     C_R   0.128648 0.683938 0.894995 -0.090075
C6    C     C_R   0.869351 0.314209 0.102356 -0.098325
C7    C     C_R   0.019955 0.623142 0.905633 -0.085078
C8    C     C_R   0.979371 0.372820 0.092204 -0.092429
C9    C     C_R   0.938201 0.545871 0.778294 -0.057121
C10   C     C_R   0.061832 0.448640 0.219651 -0.046349
C11   C     C_R   0.963445 0.529163 0.636882 0.014508
C12   C     C_R   0.502079 0.746761 0.555766 0.561536
C13   C     C_R   0.036203 0.466474 0.361223 0.020932
C14   C     C_R   0.084198 0.570758 0.629585 0.017656
C15   C     C_R   0.914878 0.425985 0.368413 0.014038
C16   C     C_R   0.873978 0.471383 0.503622 -0.035217
C17   C     C_R   0.125421 0.525239 0.494780 -0.015984
C18   C     C_2   0.473286 0.112423 0.421176 -0.095613
C19   C     C_2   0.490257 0.886940 0.576507 -0.097898
C20   C     C_2   0.403466 0.066537 0.496269 0.086873
C21   C     C_2   0.403474 0.927710 0.484465 0.076315
C22   C     C_2   0.509305 0.510864 0.081357 0.094562
C23   C     C_2   0.488413 0.492213 0.919562 0.090621
C24   C     C_R   0.261938 0.512044 0.499418 0.551373
Cl1   Cl    Cl    0.677322 0.667014 0.972886 -0.548640
Cl2   Cl    Cl    0.324697 0.330560 0.027231 -0.517845
Cu1   Cu    Cu3+1 0.521920 0.521810 0.644910 1.056062
Cu2   Cu    Cu3+1 0.478080 0.478190 0.355090 1.066191
H1    H     H_    0.001538 0.358797 0.985403 0.150224
H2    H     H_    0.525387 0.045751 0.347005 0.107112
H3    H     H_    0.413860 0.423136 0.844938 0.184810
H4    H     H_    0.581907 0.582458 0.156909 0.170784
H5    H     H_    0.998102 0.636946 0.012531 0.162661
H6    H     H_    0.246321 0.707568 0.754567 0.152275
H7    H     H_    0.750900 0.291969 0.242629 0.144551
H8    H     H_    0.189840 0.748505 0.992643 0.164202
H9    H     H_    0.807284 0.251405 0.003954 0.131849
H10   H     H_    0.859291 0.495041 0.793841 0.172331
H11   H     H_    0.141259 0.497922 0.203416 0.192378
H12   H     H_    0.555641 0.958025 0.665306 0.106679
I1    I     I_    0.251295 0.804466 0.329510 -0.363794
I2    I     I_    0.271043 0.179211 0.610930 -0.250517
N1    N     N_2   0.445130 0.445420 0.137360 -0.076905
N2    N     N_2   0.554870 0.554580 0.862640 -0.082754
O1    O     O_R   0.511700 0.332340 0.577400 -0.502389
O2    O     O_R   0.488300 0.667660 0.422600 -0.489086
O3    O     O_R   0.474680 0.295500 0.332650 -0.446460
O4    O     O_R   0.525320 0.704500 0.667350 -0.447321
O5    O     O_R   0.338170 0.518410 0.622370 -0.517043
O6    O     O_R   0.661830 0.481590 0.377630 -0.524817
O7    O     O_R   0.301150 0.481570 0.377630 -0.471891
O8    O     O_R   0.698850 0.518430 0.622370 -0.481078

loop_
_geom_bond_atom_site_label_1
_geom_bond_atom_site_label_2
_ccdc_geom_bond_type
Cu1   O4    S    
C20   I2    S    
Cu2   O3    S    
C18   H2    S    
C7    H5    S    
C11   C16   A    
C22   H4    S    
Cu2   N1    S    
C22   N1    D    
C13   C17   A    
C12   O4    A    
C1    O1    A    
Cu1   O1    S    
C24   O7    A    
C6    H9    S    
Cu1   O8    S    
C9    C11   A    
C14   C17   A    
Cu2   O2    S    
C1    C18   S    
C3    C14   A    
C2    O8    A    
C4    C15   A    
C21   I1    S    
C8    H1    S    
Cl1   N2    S    
C4    C6    A    
C9    H10   S    
Cu2   O7    S    
Cl2   N1    S    
C18   C20   D    
C13   C15   A    
C11   C14   A    
C4    H7    S    
C17   C24   S    
C19   H12   S    
C15   C16   A    
C5    H8    S    
C7    C9    A    
Cu1   Cu2   S    
C2    C16   S    
C20   C21   S    
C12   C19   S    
C12   O2    A    
C24   O5    A    
C5    C7    A    
C22   C23   S    
C1    O3    A    
C6    C8    A    
C2    O6    A    
C3    H6    S    
C19   C21   D    
Cu2   O6    S    
Cu1   N2    S    
C8    C10   A    
C23   N2    D    
Cu1   O5    S    
C10   H11   S    
C3    C5    A    
C10   C13   A    
C23   H3    S    
