data_mof_unit_12760.cif
_audit_creation_date              2012-12-11T15:42:45-0500
_audit_creation_method            fapswitch 2.2
_symmetry_space_group_name_H-M    P1
_symmetry_Int_Tables_number       1
_space_group_crystal_system       triclinic
_cell_length_a                    6.940513
_cell_length_b                    14.569112
_cell_length_c                    16.231289
_cell_angle_alpha                 90.321407
_cell_angle_beta                  89.839768
_cell_angle_gamma                 89.716486
_cell_volume                      1641.2085928

loop_
_atom_site_label
_atom_site_type_symbol
_atom_type_description
_atom_site_fract_x
_atom_site_fract_y
_atom_site_fract_z
_atom_type_partial_charge
O1    O     O_R   0.505810 0.583360 0.413880 -0.550977
O2    O     O_R   0.175870 0.595480 0.585520 -0.515815
O3    O     O_R   0.005540 0.416640 0.586120 -0.512795
C1    C     C_R   0.343706 0.616373 0.615538 0.765724
O4    O     O_R   0.176100 0.594390 0.414490 -0.541169
O5    O     O_R   0.005770 0.415540 0.413870 -0.516169
C2    C     C_R   0.344841 0.615852 0.385486 0.724026
O6    O     O_R   0.505580 0.584460 0.586130 -0.538620
O7    O     O_3   0.339190 0.441320 0.500000 -0.366459
V1    V     V_3+5 0.064350 0.510890 0.500000 1.555840
O8    O     O_R   0.676050 0.404520 0.414480 -0.542044
C3    C     C_R   0.845494 0.381596 0.386362 0.747073
O9    O     O_R   0.675830 0.405610 0.585510 -0.553518
C4    C     C_R   0.844773 0.386473 0.615581 0.707551
V2    V     V_3+5 0.564340 0.489110 0.500000 1.500510
O10   O     O_3   0.839370 0.558680 0.500000 -0.377466
C5    C     C_2   0.725625 0.210381 0.786222 -0.068552
C6    C     C_2   0.887823 0.172631 0.816449 -0.270739
H1    H     H_    0.587519 0.193208 0.813547 0.147884
H2    H     H_    0.024194 0.183170 0.785286 0.176779
C7    C     C_2   0.722839 0.268489 0.711081 -0.206679
C8    C     C_2   0.858916 0.330692 0.691058 0.256099
H3    H     H_    0.598140 0.260980 0.671363 0.118491
C9    C     C_R   0.016416 0.249755 0.196550 -0.248743
H4    H     H_    0.129566 0.253828 0.152161 0.171541
C10   C     C_R   0.008161 0.314640 0.260080 0.349948
C11   C     C_R   0.855882 0.312298 0.318423 -0.144748
C12   C     C_R   0.706857 0.246572 0.306589 0.095036
C13   C     C_R   0.698177 0.198952 0.230351 0.094637
C14   C     C_R   0.869478 0.186868 0.183520 -0.149608
C15   C     C_R   0.202592 0.695307 0.743264 0.395974
C16   C     C_R   0.219938 0.759450 0.807550 -0.238304
H5    H     H_    0.103530 0.765283 0.851928 0.160396
C17   C     C_R   0.385087 0.814257 0.816553 -0.128251
C18   C     C_R   0.536350 0.804127 0.757294 0.172731
C19   C     C_R   0.517762 0.738781 0.693418 -0.189608
H6    H     H_    0.632263 0.731806 0.648234 0.151520
C20   C     C_R   0.352741 0.684237 0.684912 -0.154661
C21   C     C_R   0.202286 0.740516 0.297116 -0.163342
H7    H     H_    0.071666 0.739739 0.333771 0.117994
C22   C     C_R   0.216646 0.802831 0.232086 -0.194640
H8    H     H_    0.096487 0.848882 0.221352 0.120033
C23   C     C_R   0.383644 0.807323 0.182561 -0.058740
C24   C     C_R   0.537973 0.744618 0.199221 0.132542
C25   C     C_R   0.521971 0.684203 0.266359 -0.150892
H9    H     H_    0.639035 0.636922 0.279148 0.126602
C26   C     C_R   0.356006 0.681544 0.315786 -0.054880
O11   O     O_R   0.230120 0.912300 0.917180 -0.541930
O12   O     O_R   0.559740 0.902430 0.088770 -0.543447
O13   O     O_R   0.729930 0.081310 0.089370 -0.535849
C27   C     C_R   0.391535 0.878208 0.116004 0.683214
O14   O     O_R   0.559840 0.901330 0.917750 -0.540396
O15   O     O_R   0.730030 0.080210 0.917120 -0.538892
C28   C     C_R   0.392391 0.880850 0.887290 0.712346
O16   O     O_R   0.230020 0.913400 0.089430 -0.540420
O17   O     O_3   0.396460 0.055470 0.003290 -0.370490
V3    V     V_3+5 0.671360 0.985960 0.003250 1.389395
O18   O     O_R   0.059740 0.091300 0.917690 -0.538550
C29   C     C_R   0.891284 0.111380 0.888393 0.744882
O19   O     O_R   0.059640 0.092400 0.088720 -0.546723
C30   C     C_R   0.888404 0.116435 0.116169 0.717608
V4    V     V_3+5 0.171350 0.007820 0.003190 1.395178
O20   O     O_3   0.896380 0.938200 0.003220 -0.371849
C31   C     C_3   0.715662 0.863458 0.756480 -0.318676
C32   C     C_3   0.669203 0.961593 0.730286 -0.774076
H10   H     H_    0.601042 0.961500 0.668438 0.219971
H11   H     H_    0.570519 0.995740 0.774846 0.224455
H12   H     H_    0.804527 0.001685 0.726859 0.210727
H13   H     H_    0.790208 0.862328 0.816698 0.199917
H14   H     H_    0.823573 0.835763 0.711949 0.182259
C33   C     C_3   0.719214 0.736514 0.146770 -0.379554
C34   C     C_3   0.676650 0.695544 0.061877 -0.623773
H15   H     H_    0.616738 0.625423 0.068590 0.231314
H16   H     H_    0.572294 0.738209 0.027254 0.209523
H17   H     H_    0.812197 0.690928 0.025557 0.217535
H18   H     H_    0.793623 0.803291 0.141625 0.194563
H19   H     H_    0.826733 0.690696 0.176566 0.182651
Cl1   Cl    Cl    0.050001 0.359542 0.758370 -0.593003
Cl2   Cl    Cl    0.190436 0.398798 0.260788 -0.696934
C35   C     C_3   0.563304 0.221828 0.374400 -0.326353
C36   C     C_3   0.663915 0.187093 0.452109 -0.777769
H20   H     H_    0.759101 0.127866 0.436665 0.221148
H21   H     H_    0.751064 0.241352 0.481872 0.203382
H22   H     H_    0.554077 0.164157 0.497338 0.213124
H23   H     H_    0.465335 0.280028 0.388915 0.227039
H24   H     H_    0.469207 0.164496 0.354483 0.160819
C37   C     C_3   0.502895 0.185330 0.190252 -0.335310
C38   C     C_3   0.486097 0.244161 0.111744 -0.598446
H25   H     H_    0.454269 0.316583 0.128840 0.241379
H26   H     H_    0.618949 0.244349 0.073784 0.209864
H27   H     H_    0.370012 0.217835 0.071480 0.209397
H28   H     H_    0.474153 0.111757 0.177933 0.181917
H29   H     H_    0.385411 0.207810 0.231813 0.178434
Cl3   Cl    Cl    0.993177 0.627312 0.741860 -0.621111

loop_
_geom_bond_atom_site_label_1
_geom_bond_atom_site_label_2
_ccdc_geom_bond_type
O18   V4    S    
C37   C38   S    
C22   H8    S    
C18   C19   A    
C1    O6    A    
C36   H20   S    
O15   C29   A    
C21   C22   A    
C25   H9    S    
O11   C28   A    
C10   C11   A    
C13   C14   A    
C19   H6    S    
C9    C10   A    
O5    C3    A    
C33   H18   S    
V2    O10   S    
O16   V4    S    
O12   V3    S    
O17   V3    S    
C24   C33   S    
O19   V4    S    
C17   C18   A    
C35   H24   S    
O8    V2    S    
C32   H11   S    
C18   C31   S    
O1    V2    S    
C31   H14   S    
O7    V1    S    
C27   O16   A    
O9    C4    A    
C22   C23   A    
C34   H17   S    
C36   H21   S    
O14   C28   A    
V3    O20   S    
C25   C26   A    
C3    C11   S    
C9    H4    S    
C8    Cl1   S    
C34   H16   S    
C21   H7    S    
O4    C2    A    
O15   V3    S    
C35   C36   S    
O12   C27   A    
O18   C29   A    
C5    C7    S    
O19   C30   A    
C2    C26   S    
O2    C1    A    
C23   C24   A    
C35   H23   S    
O11   V4    S    
C15   C16   A    
C38   H27   S    
C32   H12   S    
V4    O20   S    
C5    C6    D    
C31   H13   S    
O3    C4    A    
C38   H26   S    
C17   C28   S    
O6    V2    S    
C7    H3    S    
O17   V4    S    
O2    V1    S    
C33   H19   S    
C36   H22   S    
C37   H28   S    
C24   C25   A    
C21   C26   A    
C12   C13   A    
O1    C2    A    
O13   V3    S    
C1    C20   S    
C34   H15   S    
O5    V1    S    
O8    C3    A    
C15   Cl3   S    
C10   Cl2   S    
C15   C20   A    
C31   C32   S    
C4    C8    S    
O9    V2    S    
O7    V2    S    
O4    V1    S    
O3    V1    S    
V1    O10   S    
C16   H5    S    
C23   C27   S    
C37   H29   S    
C19   C20   A    
C5    H1    S    
C6    H2    S    
C12   C35   S    
C9    C14   A    
C13   C37   S    
O14   V3    S    
C6    C29   S    
C33   C34   S    
C38   H25   S    
C32   H10   S    
C14   C30   S    
C11   C12   A    
O13   C30   A    
C7    C8    D    
C16   C17   A    
