data_mof_unit_8148.cif
_audit_creation_date              2013-03-05T15:52:26-0500
_audit_creation_method            fapswitch 2.2
_symmetry_space_group_name_H-M    P1
_symmetry_Int_Tables_number       1
_space_group_crystal_system       triclinic
_cell_length_a                    27.813309
_cell_length_b                    10.777204
_cell_length_c                    9.589266
_cell_angle_alpha                 88.707996
_cell_angle_beta                  89.927328
_cell_angle_gamma                 92.883176
_cell_volume                      2870.00302967

loop_
_atom_site_label
_atom_site_type_symbol
_atom_site_description
_atom_site_fract_x
_atom_site_fract_y
_atom_site_fract_z
_atom_type_partial_charge
O1    O     O_R   0.500000 0.319640 0.618810 -0.576953
O2    O     O_R   0.500000 0.319660 0.381240 -0.579191
C1    C     C_R   0.496083 0.261651 0.501620 0.828226
O3    O     O_R   0.430260 0.500010 0.618770 -0.607655
O4    O     O_R   0.430270 0.500030 0.381200 -0.563439
C2    C     C_R   0.407525 0.499958 0.500073 0.784924
Cu1   Cu    Cu3+1 0.500000 0.499990 0.640660 0.929639
Cu2   Cu    Cu3+1 0.500000 0.500010 0.359340 0.984011
O5    O     O_R   0.500000 0.680340 0.618760 -0.616300
O6    O     O_R   0.500000 0.680360 0.381190 -0.532852
O7    O     O_R   0.569730 0.499970 0.618800 -0.593396
O8    O     O_R   0.569740 0.499990 0.381230 -0.609378
C3    C     C_R   0.492949 0.735400 0.498039 0.810466
C4    C     C_R   0.592483 0.500886 0.499908 0.788203
C5    C     C_R   0.175916 0.397171 0.470892 0.534344
O9    O     O_2   0.198613 0.292732 0.442894 -0.531471
N1    N     N_R   0.202202 0.503881 0.500797 -0.469204
C6    C     C_R   0.180288 0.610943 0.530692 0.537716
C7    C     C_R   0.279179 0.512352 0.626208 -0.098483
C8    C     C_R   0.329288 0.511038 0.626229 -0.225635
C9    C     C_R   0.328863 0.492714 0.374458 -0.185085
C10   C     C_R   0.278752 0.493662 0.374815 -0.100902
C11   C     C_R   0.253756 0.503466 0.500602 0.355064
C12   C     C_R   0.101979 0.504649 0.500514 -0.043472
C13   C     C_R   0.125407 0.395555 0.470249 -0.020299
C14   C     C_R   0.098095 0.287496 0.439590 -0.145516
C15   C     C_R   0.129849 0.613338 0.531020 -0.022750
C16   C     C_R   0.354602 0.501140 0.500268 -0.031986
H1    H     H_    0.347371 0.485035 0.275823 0.163664
H2    H     H_    0.259277 0.487023 0.277335 0.142147
H3    H     H_    0.115247 0.202703 0.414441 0.187908
C17   C     C_R   0.645473 0.503196 0.499582 -0.036996
C18   C     C_R   0.972189 0.393017 0.477271 0.042913
C19   C     C_R   0.976775 0.618250 0.522349 0.043667
C20   C     C_R   0.949235 0.505825 0.499650 0.067722
C21   C     C_R   0.942920 0.282924 0.461071 -0.204392
C22   C     C_R   0.893036 0.284381 0.462023 -0.143496
C23   C     C_R   0.870184 0.395250 0.479969 -0.022303
C24   C     C_R   0.898087 0.506196 0.499348 -0.043787
C25   C     C_R   0.874691 0.617495 0.518461 -0.019650
C26   C     C_R   0.824168 0.615765 0.517898 0.533271
N2    N     N_R   0.797903 0.506841 0.498875 -0.469937
C27   C     C_R   0.819761 0.397625 0.480079 0.536199
C28   C     C_R   0.721038 0.496210 0.373457 -0.103094
C29   C     C_R   0.670879 0.494741 0.373540 -0.218332
C30   C     C_R   0.671204 0.514311 0.625207 -0.218383
C31   C     C_R   0.721374 0.516422 0.624675 -0.102926
C32   C     C_R   0.746389 0.506929 0.498947 0.361075
O10   O     O_2   0.792741 0.291600 0.462326 -0.529904
C33   C     C_R   0.023312 0.393592 0.472664 0.043304
C34   C     C_R   0.050830 0.505048 0.500250 0.068091
C35   C     C_R   0.027855 0.616893 0.527551 0.042331
C36   C     C_R   0.048156 0.286310 0.440396 -0.205658
H4    H     H_    0.652064 0.486402 0.275119 0.162140
H5    H     H_    0.740272 0.489027 0.275950 0.139279
H6    H     H_    0.872385 0.197484 0.448827 0.189312
H7    H     H_    0.957251 0.192826 0.449495 0.136963
H8    H     H_    0.030224 0.199540 0.412832 0.138102
O11   O     O_2   0.207250 0.714968 0.558898 -0.527672
C37   C     C_R   0.106936 0.721779 0.561463 -0.142132
H9    H     H_    0.348138 0.517990 0.724722 0.157741
H10   H     H_    0.260027 0.519735 0.723825 0.142270
H11   H     H_    0.127534 0.806275 0.586794 0.190269
C38   C     C_R   0.951998 0.728733 0.538265 -0.204907
C39   C     C_R   0.902059 0.728002 0.536716 -0.146526
O12   O     O_2   0.801437 0.722058 0.535526 -0.535000
C40   C     C_R   0.057056 0.723748 0.560121 -0.204770
H12   H     H_    0.970013 0.818577 0.550097 0.136296
H13   H     H_    0.652653 0.521452 0.723835 0.163966
H14   H     H_    0.884952 0.815159 0.549731 0.186078
H15   H     H_    0.740862 0.524617 0.721991 0.139293
H16   H     H_    0.042641 0.810768 0.587478 0.139017
H17   H     H_    0.506963 0.117848 0.285625 0.208812
C41   C     C_R   0.439791 0.115352 0.722944 -0.167430
H18   H     H_    0.435323 0.213768 0.722458 0.144951
C42   C     C_R   0.416414 0.045669 0.829060 -0.078464
H19   H     H_    0.397464 0.092050 0.909917 0.163640
C43   C     C_R   0.415551 0.916779 0.828024 -0.084813
H20   H     H_    0.396106 0.862870 0.908449 0.185772
C44   C     C_R   0.437453 0.856800 0.719707 -0.167600
H21   H     H_    0.431479 0.757135 0.717328 0.171838
C45   C     C_R   0.462136 0.925413 0.611598 0.061344
C46   C     C_R   0.464177 0.057351 0.614741 0.107800
C47   C     C_R   0.487357 0.125947 0.503109 -0.194344
C48   C     C_R   0.496517 0.065240 0.379457 -0.249167
C49   C     C_R   0.486992 0.938777 0.368837 0.438716
C50   C     C_R   0.480188 0.866695 0.492711 -0.245602
H22   H     H_    0.441909 0.368677 0.132827 0.139363
C51   C     C_R   0.567096 0.657048 0.140485 -0.077209
H23   H     H_    0.567593 0.671201 0.249666 0.192917
C52   C     C_R   0.601474 0.729746 0.066686 -0.154126
H24   H     H_    0.627233 0.789325 0.121603 0.162374
C53   C     C_R   0.601220 0.731055 0.922920 -0.210899
H25   H     H_    0.627005 0.791047 0.865399 0.166568
C54   C     C_R   0.566976 0.658571 0.852271 -0.163648
H26   H     H_    0.568434 0.671720 0.742320 0.205016
C55   C     C_R   0.533138 0.577172 0.923295 0.201769
C56   C     C_R   0.533153 0.576851 0.072933 0.221605
N3    N     N_R   0.500460 0.501210 0.147910 -0.192080
C57   C     C_R   0.468083 0.427855 0.075995 -0.023991
H27   H     H_    0.441215 0.371095 0.875091 0.120706
C58   C     C_R   0.467942 0.428446 0.928166 -0.055046
N4    N     N_R   0.500480 0.501290 0.852040 -0.199647
S1    S     S_3+6 0.468272 0.889793 0.201062 -0.016027
O13   O     O_2   0.441303 0.765370 0.204034 -0.280298
O14   O     O_2   0.435314 0.984716 0.143925 -0.330405
O15   O     O_3   0.516332 0.887861 0.095386 -0.548349
H28   H     H_    0.503009 0.867383 0.002480 0.374172

loop_
_geom_bond_atom_site_label_1
_geom_bond_atom_site_label_2
_geom_bond_distance
_ccdc_geom_bond_type
C53   H25   1.082984 S    
C17   C29   1.406322 A    
C20   C24   1.422806 A    
C54   H26   1.061108 S    
C12   C15   1.408267 A    
C41   C46   1.413311 A    
C49   S1    1.775083 S    
S1    O14   1.502455 D    
C55   C56   1.434840 A    
Cu1   Cu2   2.697647 S    
C48   C49   1.381342 A    
Cu1   O7    1.950464 S    
N1    C11   1.434118 S    
C41   C42   1.391745 A    
C37   H11   1.083650 S    
C38   H12   1.076001 S    
C21   C22   1.388338 A    
Cu2   N3    2.027228 S    
C42   C43   1.388335 A    
C40   H16   1.075980 S    
C15   C37   1.395365 A    
C23   C24   1.408386 A    
O7    C4    1.302847 A    
C43   C44   1.391419 A    
C5    C13   1.404091 A    
C52   C53   1.378396 A    
C7    H10   1.082899 S    
C39   H14   1.083685 S    
C18   C21   1.416369 A    
Cu1   O5    1.950267 S    
C19   C20   1.421641 A    
C26   N2    1.366997 A    
C8    H9    1.083070 S    
O5    C3    1.308427 A    
C30   H13   1.082889 S    
C22   H6    1.083679 S    
C47   C48   1.396385 A    
C2    C16   1.472634 S    
C7    C8    1.394484 A    
C37   C40   1.388637 A    
O15   H28   0.990551 S    
C51   C52   1.388099 A    
C12   C34   1.422865 A    
C14   H3    1.083662 S    
C53   C54   1.388174 A    
Cu1   N4    2.027400 S    
C9    C10   1.394313 A    
O3    Cu1   1.951303 S    
C57   C58   1.417456 A    
S1    O13   1.502855 D    
C33   C34   1.421603 A    
C33   C36   1.416338 A    
C41   H18   1.073997 S    
C34   C35   1.421654 A    
H27   C58   1.078209 S    
C12   C13   1.408234 A    
O3    C2    1.302778 A    
C21   H7    1.075978 S    
C52   H24   1.082973 S    
C49   C50   1.411853 A    
C27   O10   1.349855 S    
C8    C16   1.406157 A    
C18   C33   1.422208 A    
C9    H1    1.083056 S    
O1    C1    1.300164 A    
C7    C11   1.400153 A    
C22   C23   1.395237 A    
C55   N4    1.383035 A    
C31   C32   1.399540 A    
Cu2   O8    1.951297 S    
C31   H15   1.082872 S    
C3    C50   1.475834 S    
C19   C38   1.416480 A    
N1    C6    1.367561 A    
N2    C32   1.432811 S    
C42   H19   1.082490 S    
H17   C48   1.084083 S    
H22   C57   1.081809 S    
C35   C40   1.416366 A    
C44   C45   1.416119 A    
C25   C26   1.404419 A    
C9    C16   1.405993 A    
O8    C4    1.302720 A    
C29   H4    1.083065 S    
C56   N3    1.380441 A    
C25   C39   1.395341 A    
C46   C47   1.422224 A    
N2    C27   1.367033 A    
C14   C36   1.388370 A    
C24   C25   1.408528 A    
C28   C29   1.394372 A    
C5    N1    1.367537 A    
C30   C31   1.394435 A    
C10   H2    1.082904 S    
O1    Cu1   1.959621 S    
C17   C30   1.406338 A    
O2    Cu2   1.950268 S    
C6    C15   1.404400 A    
C4    C17   1.472772 S    
C44   H21   1.079358 S    
O6    C3    1.298827 A    
O4    Cu2   1.950467 S    
C36   H8    1.075953 S    
C54   C55   1.416887 A    
C26   O12   1.349772 S    
C19   C35   1.422457 A    
N3    C57   1.366028 A    
C51   C56   1.415140 A    
C38   C39   1.388690 A    
O2    C1    1.302131 A    
C13   C14   1.395256 A    
C23   C27   1.403947 A    
C43   H20   1.082564 S    
C28   H5    1.082869 S    
O4    C2    1.302946 A    
C5    O9    1.349866 S    
C18   C20   1.421686 A    
C58   N4    1.367195 A    
C28   C32   1.399576 A    
C6    O11   1.349824 S    
Cu2   O6    1.959621 S    
C45   C46   1.421197 A    
C1    C47   1.470156 S    
C10   C11   1.400148 A    
C51   H23   1.061424 S    
S1    O15   1.677622 S    
C45   C50   1.419609 A    
