data_mof_unit_37677.cif
_audit_creation_date              2012-12-10T18:43:42-0500
_audit_creation_method            fapswitch 2.2
_symmetry_space_group_name_H-M    P1
_symmetry_Int_Tables_number       1
_space_group_crystal_system       triclinic
_cell_length_a                    10.489229
_cell_length_b                    10.708906
_cell_length_c                    9.830684
_cell_angle_alpha                 89.997626
_cell_angle_beta                  101.789809
_cell_angle_gamma                 90.054684
_cell_volume                      1080.96640564

loop_
_atom_site_label
_atom_site_type_symbol
_atom_type_description
_atom_site_fract_x
_atom_site_fract_y
_atom_site_fract_z
_atom_type_partial_charge
C1    C     C_R   0.499884 0.259852 0.499926 0.833682
C2    C     C_R   0.500079 0.740167 0.500064 0.874786
C3    C     C_R   0.257820 0.490809 0.444871 0.932172
C4    C     C_R   0.742111 0.490835 0.555009 0.930266
C5    C     C_R   0.555072 0.596271 0.083933 -0.083740
C6    C     C_R   0.446095 0.403144 0.916401 -0.090014
C7    C     C_R   0.554837 0.596348 0.939971 -0.070319
C8    C     C_R   0.445667 0.403398 0.060173 -0.072901
C9    C     C_2   0.120020 0.459919 0.420200 -0.457952
C10   C     C_2   0.879753 0.460155 0.578942 -0.454915
C11   C     C_2   0.070238 0.385087 0.507733 0.208252
C12   C     C_2   0.928804 0.385509 0.490703 0.198608
C13   C     C_R   0.534614 0.064077 0.388797 -0.201951
C14   C     C_R   0.465292 0.936058 0.611168 -0.196377
C15   C     C_R   0.534718 0.936124 0.388868 -0.191348
C16   C     C_R   0.465077 0.064014 0.611048 -0.195139
C17   C     C_R   0.500069 0.872608 0.500056 -0.015782
C18   C     C_R   0.499819 0.127495 0.499903 -0.004363
H1    H     H_    0.599352 0.673121 0.148021 0.123806
H2    H     H_    0.403594 0.325335 0.852898 0.120556
H3    H     H_    0.943771 0.502081 0.668323 0.147246
H4    H     H_    0.056487 0.501452 0.330290 0.146885
H5    H     H_    0.598856 0.673316 0.895087 0.128138
H6    H     H_    0.402022 0.326228 0.105135 0.130557
H7    H     H_    0.562649 0.113003 0.302925 0.150736
H8    H     H_    0.437333 0.887132 0.697069 0.152817
H9    H     H_    0.562797 0.887261 0.303036 0.146548
H10   H     H_    0.436901 0.112884 0.696834 0.146227
N1    N     N_R   0.499970 0.499970 0.857200 -0.075033
N2    N     N_R   0.500030 0.500030 0.142800 -0.078629
O1    O     O_R   0.499990 0.316750 0.614620 -0.634178
O2    O     O_R   0.500010 0.683250 0.385380 -0.623163
O3    O     O_R   0.499990 0.316780 0.385290 -0.638438
O4    O     O_R   0.500010 0.683220 0.614710 -0.626231
O5    O     O_R   0.317810 0.500000 0.571850 -0.615065
O6    O     O_R   0.682190 0.500000 0.428150 -0.619413
O7    O     O_R   0.317810 0.500030 0.342520 -0.596045
O8    O     O_R   0.682190 0.499970 0.657480 -0.596573
Zn1   Zn    Zn3+2 0.500000 0.499980 0.653120 0.932726
Zn2   Zn    Zn3+2 0.500000 0.500020 0.346880 0.929587
C19   C     C_3   0.844890 0.316031 0.368451 -0.338929
C20   C     C_3   0.917164 0.215932 0.302756 -0.905566
H11   H     H_    0.995151 0.258336 0.256595 0.266221
H12   H     H_    0.959810 0.144783 0.380644 0.264633
H13   H     H_    0.847511 0.168270 0.218425 0.246770
H14   H     H_    0.763596 0.268836 0.404801 0.208674
H15   H     H_    0.803980 0.383810 0.285481 0.223217
C21   C     C_3   0.153175 0.317775 0.631868 -0.355292
C22   C     C_3   0.081952 0.214803 0.694656 -0.907862
H16   H     H_    0.000285 0.253971 0.737238 0.269438
H17   H     H_    0.044490 0.142439 0.616033 0.266133
H18   H     H_    0.150981 0.169459 0.781250 0.241947
H19   H     H_    0.237765 0.273539 0.599031 0.207871
H20   H     H_    0.188820 0.387008 0.715025 0.216718

loop_
_geom_bond_atom_site_label_1
_geom_bond_atom_site_label_2
_ccdc_geom_bond_type
C16   H10   S    
O5    Zn1   S    
C11   C12   S    
C4    O6    A    
C15   C17   A    
C12   C19   S    
C7    N1    A    
C6    H2    S    
C19   C20   S    
C15   H9    S    
C3    O5    A    
C19   H14   S    
C22   H18   S    
C8    N2    A    
N1    Zn1   S    
C13   C15   A    
C19   H15   S    
C1    O3    A    
C14   H8    S    
C2    C17   S    
C21   H20   S    
C9    C11   D    
C14   C17   A    
C13   H7    S    
C1    C18   S    
C21   H19   S    
C20   H12   S    
C13   C18   A    
C3    C9    S    
C10   C12   D    
C16   C18   A    
C21   C22   S    
C8    H6    S    
O1    Zn1   S    
C5    H1    S    
C22   H16   S    
O7    Zn2   S    
C14   C16   A    
O2    Zn2   S    
C10   H3    S    
O8    Zn1   S    
C7    H5    S    
C9    H4    S    
O3    Zn2   S    
C20   H11   S    
C4    C10   S    
O4    Zn1   S    
C1    O1    A    
C6    N1    A    
C3    O7    A    
C2    O2    A    
C5    N2    A    
C5    C7    A    
N2    Zn2   S    
O6    Zn2   S    
C6    C8    A    
C11   C21   S    
C2    O4    A    
C4    O8    A    
C22   H17   S    
C20   H13   S    
