data_mof_unit_26203.cif
_audit_creation_date              2012-12-11T15:16:43-0500
_audit_creation_method            fapswitch 2.2
_symmetry_space_group_name_H-M    P1
_symmetry_Int_Tables_number       1
_space_group_crystal_system       triclinic
_cell_length_a                    25.145773
_cell_length_b                    7.253276
_cell_length_c                    21.899105
_cell_angle_alpha                 89.999976
_cell_angle_beta                  110.354669
_cell_angle_gamma                 90.000045
_cell_volume                      3744.75545456

loop_
_atom_site_label
_atom_site_type_symbol
_atom_type_description
_atom_site_fract_x
_atom_site_fract_y
_atom_site_fract_z
_atom_type_partial_charge
O1    O     O_R   0.554350 0.505270 0.581390 -0.531020
O2    O     O_R   0.445650 0.005270 0.418610 -0.531020
O3    O     O_R   0.553380 0.177580 0.454800 -0.511212
O4    O     O_R   0.446620 0.677580 0.545200 -0.511212
C1    C     C_R   0.566422 0.343887 0.438899 0.692780
C2    C     C_R   0.433578 0.843887 0.561101 0.692780
O5    O     O_R   0.560970 0.175640 0.583140 -0.536160
O6    O     O_R   0.439030 0.675640 0.416860 -0.536160
O7    O     O_R   0.453290 0.004120 0.547860 -0.541979
O8    O     O_R   0.546710 0.504120 0.452140 -0.541979
C3    C     C_R   0.575870 0.344538 0.607717 0.672349
C4    C     C_R   0.424130 0.844538 0.392283 0.672349
O9    O     O_3   0.464660 0.338800 0.488280 -0.369153
O10   O     O_3   0.535340 0.838800 0.511720 -0.369154
V1    V     V_3+5 0.506560 0.064420 0.502170 1.441004
V2    V     V_3+5 0.493440 0.564420 0.497830 1.441005
C5    C     C_R   0.145063 0.866648 0.287266 0.419040
C6    C     C_R   0.854937 0.366646 0.712734 0.419041
H1    H     H_    0.059878 0.893698 0.219880 0.126854
H2    H     H_    0.940121 0.393693 0.780120 0.126853
H3    H     H_    0.231418 0.857973 0.401572 0.157872
H4    H     H_    0.768581 0.357966 0.598429 0.157873
C7    C     C_R   0.120633 0.935056 0.172322 -0.090234
C8    C     C_R   0.879367 0.435056 0.827677 -0.090234
C9    C     C_R   0.398215 0.863563 0.273172 -0.160805
C10   C     C_R   0.601785 0.363564 0.726828 -0.160805
C11   C     C_R   0.359413 0.885749 0.210401 -0.119216
C12   C     C_R   0.640587 0.385750 0.789598 -0.119217
C13   C     C_R   0.301582 0.901811 0.199487 -0.167642
C14   C     C_R   0.698418 0.401812 0.800513 -0.167641
C15   C     C_R   0.280705 0.894447 0.251660 0.104088
C16   C     C_R   0.719295 0.394448 0.748340 0.104088
C17   C     C_R   0.321024 0.872918 0.316222 0.079271
C18   C     C_R   0.678976 0.372918 0.683778 0.079271
C19   C     C_R   0.221214 0.904406 0.241818 0.031235
C20   C     C_R   0.778786 0.404407 0.758182 0.031233
C21   C     C_R   0.203504 0.879935 0.296365 0.032156
C22   C     C_R   0.796496 0.379934 0.703635 0.032149
C23   C     C_R   0.244123 0.867844 0.359219 -0.200088
C24   C     C_R   0.755877 0.367840 0.640781 -0.200083
C25   C     C_R   0.301723 0.867878 0.369014 -0.213726
C26   C     C_R   0.698277 0.367876 0.630986 -0.213727
C27   C     C_R   0.178482 0.934150 0.179773 -0.238232
C28   C     C_R   0.821518 0.434153 0.820227 -0.238232
C29   C     C_R   0.104499 0.900574 0.226009 -0.245713
C30   C     C_R   0.895501 0.400571 0.773991 -0.245713
C31   C     C_R   0.379981 0.857068 0.326580 -0.082232
C32   C     C_R   0.620019 0.357068 0.673420 -0.082232
H5    H     H_    0.188584 0.955844 0.136344 0.098301
H6    H     H_    0.811416 0.455849 0.863655 0.098302
H7    H     H_    0.442965 0.853185 0.280247 0.106692
H8    H     H_    0.557034 0.353186 0.719753 0.106692
H9    H     H_    0.274290 0.917629 0.149507 0.104812
H10   H     H_    0.725710 0.417630 0.850493 0.104811
H11   H     H_    0.374325 0.890907 0.169626 0.121090
H12   H     H_    0.625675 0.390910 0.830374 0.121090
H13   H     H_    0.331226 0.860954 0.418521 0.100052
H14   H     H_    0.668774 0.360949 0.581480 0.100052
C33   C     C_R   0.129394 0.758308 0.892907 0.363284
C34   C     C_R   0.870607 0.258308 0.107095 0.363287
C35   C     C_R   0.157971 0.747776 0.848016 0.313315
C36   C     C_R   0.842031 0.247777 0.151987 0.313314
C37   C     C_R   0.183407 0.907003 0.832783 -0.271601
C38   C     C_R   0.816595 0.407003 0.167219 -0.271601
C39   C     C_R   0.176974 0.075915 0.861920 0.403334
C40   C     C_R   0.823027 0.575916 0.138082 0.403335
C41   C     C_R   0.137567 0.090041 0.894345 -0.316413
C42   C     C_R   0.862434 0.590041 0.105656 -0.316407
H15   H     H_    0.129063 0.224171 0.910411 0.208593
H16   H     H_    0.870938 0.724171 0.089590 0.208594
C43   C     C_R   0.111602 0.932038 0.908671 -0.288616
C44   C     C_R   0.888398 0.432038 0.091330 -0.288617
N1    N     N_R   0.226633 0.049719 0.757683 -0.249341
N2    N     N_R   0.773370 0.549718 0.242321 -0.249344
N3    N     N_R   0.259350 0.043202 0.721094 -0.299304
N4    N     N_R   0.740653 0.543201 0.278909 -0.299307
C45   C     C_R   0.284388 0.882906 0.713740 0.507957
C46   C     C_R   0.715614 0.382906 0.286262 0.507960
N5    N     N_R   0.275221 0.729759 0.744437 -0.305624
N6    N     N_R   0.724780 0.229760 0.255564 -0.305627
N7    N     N_R   0.243037 0.736992 0.781566 -0.273692
N8    N     N_R   0.756965 0.236993 0.218436 -0.273699
C47   C     C_R   0.217957 0.897043 0.789141 0.545778
C48   C     C_R   0.782046 0.397043 0.210862 0.545780
C49   C     C_R   0.327555 0.707342 0.644392 -0.209957
C50   C     C_R   0.672445 0.207342 0.355609 -0.209958
H17   H     H_    0.304779 0.586049 0.650614 0.139273
H18   H     H_    0.695222 0.086049 0.349388 0.139272
C51   C     C_R   0.362300 0.694233 0.606218 0.285817
C52   C     C_R   0.637700 0.194233 0.393782 0.285817
C53   C     C_R   0.393287 0.850993 0.598074 -0.079053
C54   C     C_R   0.606713 0.350993 0.401926 -0.079053
C55   C     C_R   0.386640 0.017369 0.627805 -0.228122
C56   C     C_R   0.613361 0.517370 0.372196 -0.228121
H19   H     H_    0.410687 0.137889 0.624325 0.144744
H20   H     H_    0.589313 0.637889 0.375675 0.144744
C57   C     C_R   0.350436 0.029745 0.663963 -0.151647
C58   C     C_R   0.649565 0.529745 0.336038 -0.151647
H21   H     H_    0.346780 0.160075 0.686320 0.134072
H22   H     H_    0.653222 0.660075 0.313681 0.134071
C59   C     C_R   0.320995 0.874127 0.673208 0.003681
C60   C     C_R   0.679006 0.374127 0.326794 0.003680
O11   O     O_R   0.953220 0.285790 0.047790 -0.514405
O12   O     O_R   0.046780 0.785790 0.952210 -0.514405
O13   O     O_R   0.939020 0.617570 0.916840 -0.535649
O14   O     O_R   0.060980 0.117570 0.083160 -0.535649
C61   C     C_R   0.923845 0.448108 0.892651 0.700955
C62   C     C_R   0.076155 0.948108 0.107349 0.700952
O15   O     O_R   0.946600 0.615450 0.045180 -0.540717
O16   O     O_R   0.053400 0.115450 0.954820 -0.540718
O17   O     O_R   0.054370 0.786770 0.081410 -0.537283
O18   O     O_R   0.945630 0.286770 0.918590 -0.537281
C63   C     C_R   0.932192 0.446155 0.059042 0.731511
C64   C     C_R   0.067808 0.946155 0.940958 0.731512
O19   O     O_3   0.035300 0.454160 0.011680 -0.381523
O20   O     O_3   0.964700 0.954160 0.988320 -0.381520
V3    V     V_3+5 0.993450 0.728620 0.997830 1.412835
V4    V     V_3+5 0.006550 0.228620 0.002170 1.412834
O21   O     O_3   0.164428 0.576685 0.823697 -0.526919
C65   C     C_3   0.124831 0.556389 0.759694 0.206656
H23   H     H_    0.142485 0.453394 0.734345 0.174775
H24   H     H_    0.118462 0.685764 0.730417 0.074366
C66   C     C_3   0.067774 0.484589 0.760621 -0.335502
H25   H     H_    0.074440 0.354821 0.789256 0.225080
H26   H     H_    0.048390 0.587995 0.783913 0.191868
C67   C     C_3   0.026875 0.448002 0.691695 -0.862900
H27   H     H_    0.020508 0.575213 0.661747 0.241103
H28   H     H_    0.985235 0.404358 0.693528 0.266205
H29   H     H_    0.043571 0.336867 0.668452 0.239110
O22   O     O_3   0.835575 0.076685 0.176306 -0.526921
C68   C     C_3   0.875171 0.056393 0.240310 0.206654
H30   H     H_    0.857518 0.953399 0.265659 0.174772
H31   H     H_    0.881540 0.185769 0.269586 0.074369
C69   C     C_3   0.932228 0.984593 0.239383 -0.335505
H32   H     H_    0.925564 0.854821 0.210751 0.225075
H33   H     H_    0.951613 0.087997 0.216089 0.191870
C70   C     C_3   0.973129 0.948018 0.308310 -0.862888
H34   H     H_    0.979496 0.075234 0.338255 0.241100
H35   H     H_    0.014769 0.904371 0.306478 0.266207
H36   H     H_    0.956433 0.836888 0.331556 0.239112
O23   O     O_3   0.207542 0.230541 0.857444 -0.526013
C71   C     C_3   0.264492 0.210045 0.899824 0.111991
H37   H     H_    0.285226 0.088247 0.886868 0.110924
H38   H     H_    0.266661 0.191928 0.951138 0.090856
C72   C     C_3   0.298135 0.381222 0.894612 -0.214327
H39   H     H_    0.299037 0.391089 0.844325 0.236110
H40   H     H_    0.277208 0.507029 0.904321 0.214909
C73   C     C_3   0.358829 0.373596 0.942828 -0.884908
H41   H     H_    0.358876 0.368210 0.993549 0.233221
H42   H     H_    0.382122 0.498944 0.937352 0.242125
H43   H     H_    0.381052 0.250355 0.933412 0.238116
O24   O     O_3   0.792461 0.730542 0.142559 -0.526015
C74   C     C_3   0.735509 0.710049 0.100182 0.111978
H44   H     H_    0.714777 0.588241 0.113135 0.110920
H45   H     H_    0.733338 0.691949 0.048867 0.090862
C75   C     C_3   0.701866 0.881216 0.105403 -0.214308
H46   H     H_    0.700969 0.891065 0.155693 0.236108
H47   H     H_    0.722792 0.007032 0.095696 0.214910
C76   C     C_3   0.641169 0.873586 0.057190 -0.884878
H48   H     H_    0.641116 0.868218 0.006467 0.233213
H49   H     H_    0.617876 0.998926 0.062674 0.242121
H50   H     H_    0.618949 0.750336 0.066606 0.238109
N9    N     N_2   0.366544 0.520660 0.578089 -0.506685
H51   H     H_    0.364869 0.411692 0.607474 0.241075
C77   C     C_3   0.327094 0.495736 0.512473 -0.498003
H52   H     H_    0.282675 0.502955 0.511617 0.174985
H53   H     H_    0.334132 0.358682 0.493963 0.196751
H54   H     H_    0.333850 0.602529 0.479827 0.189834
N10   N     N_2   0.633455 0.020659 0.421911 -0.506686
H55   H     H_    0.635130 0.911692 0.392525 0.241075
C78   C     C_3   0.672906 0.995733 0.487527 -0.498004
H56   H     H_    0.717324 0.002951 0.488384 0.174985
H57   H     H_    0.665867 0.858678 0.506037 0.196751
H58   H     H_    0.666150 0.102525 0.520173 0.189834
O25   O     O_3   0.126526 0.822355 0.338080 -0.580612
C79   C     C_3   0.131289 0.629347 0.349332 0.060754
H59   H     H_    0.132666 0.605093 0.399946 0.149921
H60   H     H_    0.171447 0.570917 0.346628 0.115348
C80   C     C_3   0.080023 0.525451 0.302560 -0.351510
H61   H     H_    0.040351 0.578677 0.307619 0.205005
H62   H     H_    0.077669 0.546552 0.251469 0.195646
C81   C     C_3   0.084442 0.318851 0.316554 -0.775073
H63   H     H_    0.124038 0.262803 0.312096 0.240460
H64   H     H_    0.047746 0.247209 0.280810 0.233242
H65   H     H_    0.084246 0.291303 0.366365 0.236377
O26   O     O_3   0.873473 0.322345 0.661920 -0.580609
C82   C     C_3   0.868709 0.129336 0.650670 0.060766
H66   H     H_    0.867309 0.105079 0.600048 0.149899
H67   H     H_    0.828559 0.070897 0.653399 0.115351
C83   C     C_3   0.919988 0.025454 0.697421 -0.351487
H68   H     H_    0.959648 0.078645 0.692320 0.204999
H69   H     H_    0.922376 0.046608 0.748522 0.195650
C84   C     C_3   0.915555 0.818841 0.683450 -0.775088
H70   H     H_    0.875974 0.762825 0.687957 0.240449
H71   H     H_    0.952267 0.747215 0.719174 0.233244
H72   H     H_    0.915710 0.791241 0.633625 0.236392
O27   O     O_3   0.118005 0.594936 0.918814 -0.557516
C85   C     C_3   0.151610 0.583129 0.986068 0.149512
H73   H     H_    0.134972 0.466421 0.006823 0.154899
H74   H     H_    0.148553 0.708112 0.014135 0.086571
C86   C     C_3   0.213933 0.544035 0.996683 -0.382911
H75   H     H_    0.215652 0.428245 0.964984 0.238761
H76   H     H_    0.233853 0.666991 0.983267 0.181643
C87   C     C_3   0.247013 0.492780 0.067332 -0.842253
H77   H     H_    0.244102 0.605064 0.100465 0.237108
H78   H     H_    0.292311 0.470778 0.073601 0.237903
H79   H     H_    0.229972 0.363492 0.080631 0.229528
O28   O     O_3   0.881996 0.094936 0.081188 -0.557516
C88   C     C_3   0.848390 0.083128 0.013935 0.149511
H80   H     H_    0.865026 0.966415 0.993179 0.154895
H81   H     H_    0.851448 0.208108 0.985866 0.086574
C89   C     C_3   0.786066 0.044044 0.003321 -0.382911
H82   H     H_    0.784347 0.928262 0.035023 0.238766
H83   H     H_    0.766148 0.167006 0.016736 0.181642
C90   C     C_3   0.752984 0.992781 0.932674 -0.842255
H84   H     H_    0.755896 0.105059 0.899539 0.237109
H85   H     H_    0.707686 0.970784 0.926407 0.237902
H86   H     H_    0.770024 0.863489 0.919376 0.229527

loop_
_geom_bond_atom_site_label_1
_geom_bond_atom_site_label_2
_ccdc_geom_bond_type
C40   C42   A    
C78   H56   S    
C37   C39   A    
C83   H68   S    
C7    C29   A    
C46   C60   S    
N1    N3    A    
C86   H75   S    
C36   O22   S    
C45   C59   S    
N9    H51   S    
O1    C3    A    
C73   H43   S    
C78   H58   S    
C68   C69   S    
O2    C4    A    
C26   H14   S    
C69   C70   S    
C72   H39   S    
C12   H12   S    
O15   V3    S    
C66   H25   S    
C23   C25   A    
C77   H52   S    
O20   V3    S    
O5    C3    A    
O13   C61   A    
C67   H27   S    
N2    N4    A    
C16   C20   A    
C75   H46   S    
O11   C63   A    
N4    C46   A    
C90   H85   S    
C46   N6    A    
C66   H26   S    
C35   O21   S    
C56   C58   A    
N9    C77   S    
C2    C53   S    
H2    C30   S    
C88   C89   S    
C39   O23   S    
C11   C13   A    
C67   H28   S    
C34   C36   A    
C61   O18   A    
C35   C37   A    
C81   H63   S    
C38   C48   S    
C82   C83   S    
C36   C38   A    
C83   C84   S    
C57   H21   S    
C79   C80   S    
C76   H48   S    
O28   C88   S    
C39   C41   A    
C18   C26   A    
C8    C61   S    
C76   H49   S    
C85   H73   S    
C51   C53   A    
C19   C27   A    
C9    C31   A    
C78   H57   S    
C65   C66   S    
O15   C63   A    
O3    C1    A    
C80   C81   S    
C14   H10   S    
C24   C26   A    
C71   H38   S    
C77   H53   S    
O14   V4    S    
C13   C15   A    
C86   H76   S    
C71   C72   S    
O13   V3    S    
C3    C32   S    
C2    O7    A    
C4    C31   S    
C6    C30   A    
C54   C56   A    
C72   H40   S    
C65   H24   S    
C49   H17   S    
C70   H36   S    
C33   C35   A    
C50   H18   S    
C14   C16   A    
N10   H55   S    
C45   N5    A    
C73   H41   S    
N6    N8    A    
C50   C52   A    
C90   H86   S    
N5    N7    A    
C49   C51   A    
C34   O28   S    
C66   C67   S    
C69   H33   S    
C67   H29   S    
C84   H71   S    
C58   C60   A    
C44   C63   S    
C6    O26   S    
C5    C29   A    
C43   C64   S    
C37   C47   S    
C42   C44   A    
C41   H15   S    
C81   H65   S    
C16   C18   A    
O4    V2    S    
C90   H84   S    
C9    H7    S    
C40   O24   S    
O2    V1    S    
C10   H8    S    
O18   V4    S    
C70   H35   S    
C52   C54   A    
O25   C79   S    
H3    C23   S    
C89   C90   S    
O6    C4    A    
O19   V4    S    
H4    C24   S    
C85   C86   S    
C15   C17   A    
C88   H80   S    
C76   H50   S    
O1    V2    S    
C5    C21   A    
C89   H82   S    
C74   C75   S    
C56   H20   S    
O16   V4    S    
N3    C45   A    
C38   C40   A    
O26   C82   S    
O12   C64   A    
C73   H42   S    
O4    C2    A    
C79   H59   S    
C87   H78   S    
C77   H54   S    
N8    C48   A    
C17   C31   A    
C86   C87   S    
C15   C19   A    
C20   C28   A    
O11   V4    S    
C74   H45   S    
C68   H30   S    
C50   C60   A    
C55   C57   A    
C72   C73   S    
C49   C59   A    
C65   H23   S    
O14   C62   A    
O12   V3    S    
N10   C78   S    
C28   H6    S    
O16   C64   A    
C83   H69   S    
C19   C21   A    
C53   C55   A    
C71   H37   S    
C7    C27   A    
C10   C12   A    
C75   C76   S    
C27   H5    S    
N2    C48   A    
C68   H31   S    
N7    C47   A    
C85   H74   S    
O21   C65   S    
H1    C29   S    
C69   H32   S    
C10   C32   A    
C9    C11   A    
C70   H34   S    
C11   H11   S    
C58   H22   S    
C62   O17   A    
O17   V3    S    
C17   C25   A    
C75   H47   S    
O22   C68   S    
C6    C22   A    
C8    C30   A    
C12   C14   A    
C21   C23   A    
O8    V2    S    
O23   C71   S    
C20   C22   A    
C22   C24   A    
C55   H19   S    
C13   H9    S    
C33   O27   S    
C8    C28   A    
C7    C62   S    
C52   N10   S    
O5    V1    S    
C88   H81   S    
C51   N9    S    
C87   H79   S    
C41   C43   A    
O7    V1    S    
O27   C85   S    
C81   H64   S    
C82   H67   S    
C1    C54   S    
C89   H83   S    
C25   H13   S    
C80   H61   S    
C84   H72   S    
C1    O8    A    
C18   C32   A    
C87   H77   S    
O6    V2    S    
C84   H70   S    
O9    V2    S    
C42   H16   S    
C34   C44   A    
O10   V1    S    
O3    V1    S    
C82   H66   S    
O24   C74   S    
C74   H44   S    
N1    C47   A    
C57   C59   A    
C5    O25   S    
C33   C43   A    
C79   H60   S    
C80   H62   S    
