data_mof_unit_58957.cif
_audit_creation_date              2012-12-10T16:48:06-0500
_audit_creation_method            fapswitch 2.2
_symmetry_space_group_name_H-M    P1
_symmetry_Int_Tables_number       1
_space_group_crystal_system       triclinic
_cell_length_a                    15.829375
_cell_length_b                    8.755769
_cell_length_c                    7.54637
_cell_angle_alpha                 103.207543
_cell_angle_beta                  96.546272
_cell_angle_gamma                 92.765543
_cell_volume                      1008.62085467

loop_
_atom_site_label
_atom_site_type_symbol
_atom_type_description
_atom_site_fract_x
_atom_site_fract_y
_atom_site_fract_z
_atom_type_partial_charge
C1    C     C_R   0.492395 0.199399 0.453395 0.725267
C2    C     C_R   0.504323 0.799574 0.546440 0.801064
C3    C     C_R   0.339807 0.496656 0.497939 0.789758
C4    C     C_R   0.660020 0.497878 0.501419 0.780900
C5    C     C_2   0.478539 0.029581 0.432979 0.141225
C6    C     C_2   0.515427 0.966998 0.567671 0.166652
C7    C     C_3   0.974931 0.349973 0.567223 -0.278142
C8    C     C_3   0.022757 0.594966 0.427041 -0.343640
C9    C     C_3   0.014356 0.334026 0.385265 -0.263799
C10   C     C_3   0.983353 0.610211 0.609188 -0.335051
C11   C     C_1   0.249439 0.485972 0.490833 -0.167416
C12   C     C_1   0.749717 0.488179 0.506568 -0.181893
C13   C     C_3   0.042278 0.486900 0.659672 0.537207
C14   C     C_3   0.955601 0.457009 0.334018 0.572883
C15   C     C_3   0.081054 0.471382 0.481270 0.057329
C16   C     C_3   0.916996 0.472943 0.512866 0.075264
C17   C     C_1   0.173231 0.476888 0.483047 -0.035265
C18   C     C_1   0.825315 0.479697 0.512992 0.004132
Cu1   Cu    Cu3+1 0.509330 0.517380 0.684380 0.992882
Cu2   Cu    Cu3+1 0.490670 0.482620 0.315620 1.045317
H1    H     H_    0.027526 0.223276 0.290466 0.151832
H2    H     H_    0.969146 0.722230 0.699687 0.141920
H3    H     H_    0.954975 0.252375 0.628556 0.147057
H4    H     H_    0.043820 0.694708 0.370327 0.155982
N1    N     N_2   0.476600 0.456420 0.038510 0.138888
N2    N     N_2   0.523400 0.543580 0.961490 0.110985
O1    O     O_R   0.506070 0.286130 0.619780 -0.559662
O2    O     O_R   0.493930 0.713870 0.380220 -0.487316
O3    O     O_R   0.490300 0.256770 0.308360 -0.625140
O4    O     O_R   0.509700 0.743230 0.691640 -0.603866
O5    O     O_R   0.386960 0.514660 0.655680 -0.561103
O6    O     O_R   0.613040 0.485340 0.344320 -0.551111
O7    O     O_R   0.371190 0.485310 0.344260 -0.552820
O8    O     O_R   0.628810 0.514690 0.655740 -0.633743
O9    O     O_3   0.900054 0.428449 0.167328 -0.597836
C19   C     C_3   0.930073 0.513720 0.047425 0.080313
H5    H     H_    0.910455 0.444281 0.905087 0.180292
H6    H     H_    0.000312 0.531326 0.065703 0.184681
C20   C     C_3   0.890568 0.670986 0.069219 -0.863433
H7    H     H_    0.894785 0.732565 0.216221 0.256627
H8    H     H_    0.924106 0.747155 0.996415 0.200957
H9    H     H_    0.822910 0.650597 0.008143 0.244937
O10   O     O_3   0.092032 0.488487 0.827441 -0.604912
C21   C     C_3   0.129155 0.641455 0.910258 0.005906
H10   H     H_    0.079148 0.723503 0.947785 0.137639
H11   H     H_    0.168752 0.687064 0.818184 0.164107
C22   C     C_3   0.185357 0.636110 0.085812 -0.769501
H12   H     H_    0.244529 0.579040 0.052769 0.289951
H13   H     H_    0.202135 0.756790 0.172424 0.209456
H14   H     H_    0.150807 0.567418 0.164719 0.250839
O11   O     O_3   0.416920 0.934704 0.299466 -0.593669
C23   C     C_3   0.412833 0.974423 0.128862 0.096419
H15   H     H_    0.477741 0.992236 0.089370 0.188740
H16   H     H_    0.376356 0.079420 0.137202 0.159353
C24   C     C_3   0.363444 0.844744 0.979704 -0.702168
H17   H     H_    0.294749 0.846135 0.993497 0.204297
H18   H     H_    0.372040 0.865256 0.842807 0.191091
H19   H     H_    0.385970 0.729103 0.989382 0.318339
O12   O     O_3   0.565271 0.056853 0.723398 -0.589446
C25   C     C_3   0.652035 0.048167 0.697734 0.042799
H20   H     H_    0.664759 0.086078 0.571294 0.129861
H21   H     H_    0.671449 0.926287 0.688364 0.117414
C26   C     C_3   0.706422 0.157790 0.860798 -0.698441
H22   H     H_    0.695976 0.122640 0.989487 0.241388
H23   H     H_    0.774938 0.151906 0.842706 0.195774
H24   H     H_    0.689230 0.280834 0.871747 0.254089
O13   O     O_3   0.394669 0.435646 0.960909 -0.479946
C27   C     C_3   0.373346 0.273960 0.885945 0.204120
H25   H     H_    0.419717 0.197382 0.935772 0.123132
H26   H     H_    0.371550 0.248862 0.735061 0.152908
C28   C     C_3   0.283394 0.232105 0.922220 -0.881351
H27   H     H_    0.278947 0.261825 0.071727 0.258181
H28   H     H_    0.237159 0.298751 0.854004 0.286266
H29   H     H_    0.266059 0.104451 0.865836 0.199069
O14   O     O_3   0.561816 0.672433 0.082544 -0.460760
C29   C     C_3   0.641500 0.707912 0.031914 0.207538
H30   H     H_    0.634453 0.754871 0.907432 0.174525
H31   H     H_    0.678907 0.602315 0.010794 0.137491
C30   C     C_3   0.689717 0.836199 0.186339 -0.904456
H32   H     H_    0.704195 0.790700 0.311477 0.243294
H33   H     H_    0.750252 0.876705 0.144508 0.215170
H34   H     H_    0.650511 0.938508 0.218515 0.242378

loop_
_geom_bond_atom_site_label_1
_geom_bond_atom_site_label_2
_ccdc_geom_bond_type
C24   H17   S    
C26   H23   S    
Cu1   Cu2   S    
N1    O13   S    
C29   C30   S    
C9    C14   S    
Cu1   O5    S    
C20   H8    S    
C10   H2    S    
C25   C26   S    
C1    C5    S    
C19   H5    S    
C29   H31   S    
C5    C6    D    
Cu2   N1    S    
C3    O7    A    
O11   C23   S    
C25   H21   S    
Cu1   N2    S    
O9    C19   S    
C21   H11   S    
C27   H25   S    
C20   H9    S    
Cu1   O1    S    
C21   C22   S    
C26   H24   S    
O12   C25   S    
C2    C6    S    
C23   H16   S    
C22   H14   S    
Cu2   O3    S    
C4    O8    A    
O13   C27   S    
C29   H30   S    
C22   H13   S    
C14   O9    S    
C30   H33   S    
Cu2   O2    S    
N1    N2    D    
C10   C13   S    
C26   H22   S    
C25   H20   S    
O14   C29   S    
C28   H29   S    
C22   H12   S    
C13   C15   S    
C1    O3    A    
N2    O14   S    
C3    O5    A    
C4    O6    A    
Cu2   O7    S    
C8    C10   S    
C7    C16   S    
C8    C15   S    
C24   H18   S    
O10   C21   S    
C14   C16   S    
C4    C12   S    
C13   O10   S    
C23   H15   S    
C28   H28   S    
Cu2   O6    S    
C7    C9    S    
C11   C17   T    
C8    C14   S    
C6    O12   S    
C19   C20   S    
C21   H10   S    
Cu1   O8    S    
C30   H34   S    
C23   C24   S    
C15   C17   S    
C2    O4    A    
C19   H6    S    
C9    C15   S    
C28   H27   S    
C10   C16   S    
C9    H1    S    
C27   C28   S    
C7    H3    S    
C8    H4    S    
C3    C11   S    
C30   H32   S    
C20   H7    S    
C7    C13   S    
C16   C18   S    
C24   H19   S    
C12   C18   T    
C1    O1    A    
C27   H26   S    
C5    O11   S    
C2    O2    A    
Cu1   O4    S    
