data_mof_unit_67909.cif
_audit_creation_date              2012-12-10T18:11:47-0500
_audit_creation_method            fapswitch 2.2
_symmetry_space_group_name_H-M    P1
_symmetry_Int_Tables_number       1
_space_group_crystal_system       triclinic
_cell_length_a                    10.598427
_cell_length_b                    12.79236
_cell_length_c                    13.112533
_cell_angle_alpha                 81.615633
_cell_angle_beta                  93.587614
_cell_angle_gamma                 100.226988
_cell_volume                      1729.60947064

loop_
_atom_site_label
_atom_site_type_symbol
_atom_type_description
_atom_site_fract_x
_atom_site_fract_y
_atom_site_fract_z
_atom_type_partial_charge
C1    C     C_R   0.485947 0.438545 0.691537 0.924415
C2    C     C_R   0.499734 0.439874 0.977330 -0.093258
C3    C     C_R   0.539591 0.457450 0.875836 -0.166865
C4    C     C_R   0.740978 0.499280 0.500283 0.955679
C5    C     C_R   0.541912 0.521392 0.040077 -0.083106
C6    C     C_R   0.650750 0.599893 0.011301 -0.206195
C7    C     C_R   0.718085 0.588663 0.925225 0.613779
C8    C     C_R   0.657775 0.522704 0.854811 -0.162466
C9    C     C_R   0.479629 0.527283 0.129742 0.333703
C10   C     C_R   0.637926 0.679843 0.166614 0.285481
C11   C     C_R   0.473235 0.396996 0.802641 -0.233614
C12   C     C_3   0.057974 0.601409 0.507115 0.452030
C13   C     C_R   0.351736 0.111922 0.319835 0.342098
C14   C     C_R   0.659891 0.799652 0.629197 0.465313
C15   C     C_R   0.695313 0.902904 0.654761 0.319848
C16   C     C_R   0.515046 0.560301 0.308920 1.019665
C17   C     C_R   0.636904 0.984298 0.603054 -0.336692
C18   C     C_R   0.548876 0.965796 0.520279 -0.074081
C19   C     C_R   0.518189 0.860491 0.492642 -0.007922
C20   C     C_R   0.490435 0.049154 0.463867 -0.084260
C21   C     C_R   0.423541 0.033987 0.368477 -0.128648
C22   C     C_R   0.428457 0.940976 0.326635 0.428322
C23   C     C_3   0.968675 0.531463 0.588315 -0.399404
C24   C     C_R   0.450408 0.850955 0.394859 0.392273
C25   C     C_R   0.496712 0.148684 0.498007 -0.009325
C26   C     C_R   0.357497 0.205363 0.360877 -0.012697
C27   C     C_R   0.258604 0.501374 0.498508 1.042711
C28   C     C_3   0.939836 0.402144 0.490846 0.410287
C29   C     C_3   0.034595 0.434314 0.578981 0.226293
C30   C     C_3   0.123396 0.504705 0.497301 -0.351643
C31   C     C_3   0.027002 0.471986 0.409100 0.173914
C32   C     C_3   0.963344 0.568778 0.419022 0.388789
C33   C     C_3   0.407449 0.130412 0.795632 0.121447
C34   C     C_3   0.875683 0.498391 0.499334 -0.226046
C35   C     C_3   0.555430 0.149407 0.809835 -0.462161
C36   C     C_3   0.602234 0.048198 0.862426 -0.817874
C37   C     C_3   0.562952 0.281624 0.151874 0.134830
C38   C     C_3   0.607273 0.190795 0.106448 -0.405263
C39   C     C_3   0.715110 0.147265 0.172447 -0.824463
C40   C     C_3   0.159767 0.176582 0.945675 0.127023
C41   C     C_3   0.092953 0.250802 0.997905 -0.265373
C42   C     C_3   0.950714 0.239163 0.965809 -0.957640
C43   C     C_3   0.360860 0.916077 0.157115 0.185334
C44   C     C_3   0.399330 0.846504 0.082355 -0.356544
C45   C     C_R   0.690056 0.684978 0.069842 0.321600
C46   C     C_3   0.311432 0.738310 0.088621 -0.861403
C47   C     C_3   0.945380 0.221058 0.496371 0.165740
C48   C     C_3   0.890344 0.132035 0.432285 -0.349002
C49   C     C_3   0.954307 0.033698 0.462018 -0.915834
C50   C     C_3   0.003765 0.704384 0.278745 0.191323
C51   C     C_3   0.019323 0.817372 0.310639 -0.312263
C52   C     C_3   0.001276 0.904340 0.220553 -0.794799
C53   C     C_3   0.185550 0.724051 0.603604 0.133763
C54   C     C_3   0.135593 0.809092 0.653031 -0.325166
C55   C     C_3   0.222982 0.843538 0.743622 -0.945578
C56   C     C_R   0.539869 0.594478 0.199576 -0.293827
C57   C     C_3   0.917939 0.569436 0.986769 0.127101
C58   C     C_3   0.059414 0.595865 0.961964 -0.351356
C59   C     C_3   0.085298 0.555129 0.863365 -0.792121
C60   C     C_R   0.393120 0.298655 0.837089 0.346365
C61   C     C_R   0.366537 0.272184 0.943537 0.295181
C62   C     C_R   0.431927 0.337104 0.013908 0.477125
Cl1   Cl    Cl    0.088502 0.350104 0.687163 -0.695572
Cl2   Cl    Cl    0.317800 0.465980 0.149688 -0.585669
Cl3   Cl    Cl    0.241185 0.097028 0.217185 -0.689388
Cl4   Cl    Cl    0.755075 0.706066 0.681388 -0.580005
Cl5   Cl    Cl    0.820636 0.934586 0.746118 -0.569568
Cl6   Cl    Cl    0.340939 0.742746 0.362449 -0.672208
Cl7   Cl    Cl    0.060085 0.431495 0.290831 -0.590918
Cl8   Cl    Cl    0.689363 0.783128 0.243104 -0.566851
Cl9   Cl    Cl    0.795417 0.801199 0.018601 -0.548260
H1    H     H_    0.708984 0.513626 0.788699 0.180424
H2    H     H_    0.567895 0.027682 0.942284 0.254908
H3    H     H_    0.708662 0.062556 0.866851 0.312992
H4    H     H_    0.566737 0.979885 0.818933 0.276699
H5    H     H_    0.563275 0.262361 0.237066 0.189135
H6    H     H_    0.633966 0.356575 0.136212 0.106609
H7    H     H_    0.525456 0.124740 0.099750 0.292474
H8    H     H_    0.642653 0.221871 0.028187 0.186285
H9    H     H_    0.798805 0.212284 0.178484 0.259816
H10   H     H_    0.745359 0.082673 0.136568 0.291030
H11   H     H_    0.681714 0.113227 0.250904 0.279166
H12   H     H_    0.306837 0.267904 0.323694 0.238755
H13   H     H_    0.108065 0.093074 0.964546 0.189846
H14   H     H_    0.151375 0.195973 0.860483 0.211284
H15   H     H_    0.102114 0.231088 0.082961 0.303298
H16   H     H_    0.139284 0.335456 0.976496 0.231848
H17   H     H_    0.938284 0.261363 0.881180 0.300347
H18   H     H_    0.904750 0.292831 0.005275 0.262158
H19   H     H_    0.901960 0.155275 0.987861 0.285281
H20   H     H_    0.337772 0.987940 0.106922 0.197367
H21   H     H_    0.272318 0.876211 0.197404 0.170296
H22   H     H_    0.392029 0.887204 0.001740 0.180132
H23   H     H_    0.551556 0.171358 0.565158 0.136617
H24   H     H_    0.500199 0.835380 0.097007 0.296553
H25   H     H_    0.325050 0.690097 0.164293 0.327618
H26   H     H_    0.332802 0.694502 0.026385 0.269046
H27   H     H_    0.210082 0.750219 0.080264 0.236517
H28   H     H_    0.943672 0.187545 0.579494 0.205579
H29   H     H_    0.046909 0.251325 0.474685 0.182006
H30   H     H_    0.785705 0.108645 0.443646 0.243562
H31   H     H_    0.904823 0.162199 0.349329 0.249637
H32   H     H_    0.056194 0.051923 0.439890 0.273944
H33   H     H_    0.902293 0.968062 0.421208 0.281015
H34   H     H_    0.671007 0.063124 0.623660 0.194220
H35   H     H_    0.949699 0.006312 0.546182 0.295927
H36   H     H_    0.971449 0.706760 0.196422 0.178856
H37   H     H_    0.097660 0.676253 0.283433 0.165945
H38   H     H_    0.948849 0.817512 0.369721 0.281596
H39   H     H_    0.116364 0.839564 0.346064 0.245007
H40   H     H_    0.073584 0.910543 0.161640 0.262521
H41   H     H_    0.007136 0.982022 0.249905 0.291126
H42   H     H_    0.906668 0.888442 0.181996 0.335461
H43   H     H_    0.287384 0.754645 0.585643 0.195628
H44   H     H_    0.184028 0.649577 0.659647 0.136417
H45   H     H_    0.935041 0.553680 0.658990 0.216415
H46   H     H_    0.130648 0.880676 0.594567 0.240384
H47   H     H_    0.037422 0.776715 0.680262 0.286344
H48   H     H_    0.231430 0.773618 0.802997 0.271698
H49   H     H_    0.182483 0.903327 0.779242 0.290887
H50   H     H_    0.320166 0.880646 0.716603 0.248744
H51   H     H_    0.885038 0.481458 0.987436 0.106478
H52   H     H_    0.908817 0.588724 0.065672 0.133056
H53   H     H_    0.089888 0.684124 0.952237 0.245300
H54   H     H_    0.115915 0.558524 0.026926 0.247504
H55   H     H_    0.042348 0.469382 0.864433 0.281164
H56   H     H_    0.381544 0.080737 0.732268 0.158153
H57   H     H_    0.190365 0.564644 0.854219 0.245004
H58   H     H_    0.043380 0.603323 0.797454 0.281395
H59   H     H_    0.361953 0.081010 0.864547 0.171704
H60   H     H_    0.599757 0.175348 0.734115 0.227249
H61   H     H_    0.591043 0.213451 0.857957 0.207937
N1    N     N_R   0.432930 0.222190 0.444670 -0.156453
N2    N     N_R   0.566370 0.776980 0.554790 -0.167049
O1    O     O_R   0.467970 0.366730 0.627150 -0.573035
O2    O     O_3   0.435929 0.294198 0.117376 -0.541998
O3    O     O_3   0.288440 0.177913 0.982793 -0.620730
O4    O     O_3   0.464800 0.949074 0.225003 -0.604826
O5    O     O_3   0.867088 0.300787 0.478995 -0.616199
O6    O     O_3   0.908666 0.633301 0.337226 -0.613965
O7    O     O_3   0.116398 0.709217 0.509580 -0.625895
O8    O     O_3   0.846456 0.631255 0.914269 -0.539163
O9    O     O_R   0.510820 0.544830 0.662520 -0.598139
O10   O     O_R   0.664630 0.410960 0.482340 -0.605158
O11   O     O_R   0.707470 0.589060 0.517710 -0.551429
O12   O     O_R   0.489180 0.455170 0.337480 -0.607844
O13   O     O_R   0.532030 0.633270 0.372850 -0.514370
O14   O     O_R   0.292530 0.410940 0.482290 -0.584709
O15   O     O_R   0.335370 0.589040 0.517660 -0.594067
O16   O     O_3   0.354123 0.225716 0.767730 -0.583413
Zn1   Zn    Zn3+2 0.471390 0.381080 0.476380 1.011336
Zn2   Zn    Zn3+2 0.528610 0.618920 0.523620 1.046634

loop_
_geom_bond_atom_site_label_1
_geom_bond_atom_site_label_2
_ccdc_geom_bond_type
C33   H59   S    
C55   H50   S    
C26   H12   S    
C57   H51   S    
C6    C45   A    
C45   Cl9   S    
C9    Cl2   S    
C41   C42   S    
C40   H13   S    
C35   C36   S    
N1    Zn1   S    
O14   Zn1   S    
C49   H33   S    
C29   Cl1   S    
C7    C8    A    
C13   Cl3   S    
C52   H42   S    
C19   N2    A    
C41   H15   S    
C12   C23   S    
C37   C38   S    
C59   H55   S    
C57   O8    S    
C16   O13   A    
C5    C6    A    
C23   C29   S    
C28   C29   S    
C32   O6    S    
O10   Zn1   S    
C2    C3    A    
C33   O16   S    
C38   C39   S    
C50   O6    S    
C20   C25   A    
C48   H30   S    
C33   H56   S    
C47   H28   S    
C12   O7    S    
C43   O4    S    
C16   O12   A    
C18   C19   A    
C62   O2    S    
C44   H22   S    
C23   H45   S    
C31   C32   S    
C27   O14   A    
C1    C11   S    
C10   C56   A    
C18   C20   A    
C46   H27   S    
C28   C34   S    
C25   H23   S    
C27   O15   A    
C21   C22   A    
C12   C32   S    
C27   C30   S    
C50   H37   S    
C28   O5    S    
C44   C46   S    
C17   C18   A    
C55   H49   S    
C41   H16   S    
C4    C34   S    
C8    H1    S    
C51   C52   S    
C15   Cl5   S    
C39   H10   S    
C3    C8    A    
O15   Zn2   S    
C55   H48   S    
C14   N2    A    
C52   H40   S    
C58   C59   S    
C53   C54   S    
C37   H6    S    
C43   H20   S    
C47   H29   S    
C60   C61   A    
C42   H19   S    
C32   C34   S    
C40   H14   S    
C43   C44   S    
C16   C56   S    
C5    C9    A    
C29   C30   S    
C1    O9    A    
C36   H4    S    
C17   H34   S    
C57   H52   S    
C49   H32   S    
C47   C48   S    
C48   C49   S    
C23   C34   S    
N2    Zn2   S    
C40   O3    S    
C10   C45   A    
C50   C51   S    
C14   Cl4   S    
C37   O2    S    
C13   C21   A    
C9    C56   A    
C60   O16   S    
C6    C7    A    
C36   H3    S    
C10   Cl8   S    
C40   C41   S    
C37   H5    S    
C51   H39   S    
C54   H47   S    
C50   H36   S    
C22   C24   A    
C13   C26   A    
C2    C5    A    
C42   H17   S    
C11   C60   A    
C35   H60   S    
C25   N1    A    
C53   H43   S    
C15   C17   A    
C54   C55   S    
C59   H58   S    
C12   C30   S    
C46   H26   S    
C28   C31   S    
C39   H11   S    
C4    O10   A    
C49   H35   S    
C38   H7    S    
C22   O4    S    
C58   H53   S    
C43   H21   S    
C48   H31   S    
C42   H18   S    
C39   H9    S    
O13   Zn2   S    
C59   H57   S    
C44   H24   S    
C61   O3    S    
C57   C58   S    
C30   C31   S    
O1    Zn1   S    
C4    O11   A    
C33   C35   S    
C19   C24   A    
C53   O7    S    
C61   C62   A    
O11   Zn2   S    
C3    C11   A    
C36   H2    S    
C24   Cl6   S    
O12   Zn1   S    
C2    C62   A    
C31   Cl7   S    
C46   H25   S    
C20   C21   A    
C58   H54   S    
C51   H38   S    
C38   H8    S    
C54   H46   S    
C47   O5    S    
C26   N1    A    
C52   H41   S    
C14   C15   A    
C1    O1    A    
C35   H61   S    
C7    O8    S    
O9    Zn2   S    
C53   H44   S    
