data_mof_unit_58237.cif
_audit_creation_date              2012-12-10T17:02:56-0500
_audit_creation_method            fapswitch 2.2
_symmetry_space_group_name_H-M    P1
_symmetry_Int_Tables_number       1
_space_group_crystal_system       triclinic
_cell_length_a                    9.792157
_cell_length_b                    11.033092
_cell_length_c                    13.443955
_cell_angle_alpha                 94.119427
_cell_angle_beta                  81.56316
_cell_angle_gamma                 110.925772
_cell_volume                      1341.67831533

loop_
_atom_site_label
_atom_site_type_symbol
_atom_type_description
_atom_site_fract_x
_atom_site_fract_y
_atom_site_fract_z
_atom_type_partial_charge
C1    C     C_R   0.557466 0.745503 0.503328 0.866018
C2    C     C_R   0.433297 0.480378 0.971293 0.081606
C3    C     C_R   0.459094 0.450665 0.867288 0.086084
C4    C     C_R   0.534436 0.475238 0.035698 0.072828
C5    C     C_R   0.651170 0.430168 0.997182 0.167962
C6    C     C_R   0.664182 0.387800 0.897383 -0.246420
C7    C     C_R   0.568401 0.395871 0.833834 -0.199612
C8    C     C_R   0.523461 0.513610 0.137441 -0.239979
C9    C     C_R   0.734425 0.458421 0.161425 -0.189966
C10   C     C_R   0.373488 0.475184 0.799710 -0.103318
C11   C     C_2   0.588357 0.884836 0.502398 -0.404143
C12   C     C_R   0.421092 0.482947 0.690381 0.783397
C13   C     C_2   0.507676 0.935597 0.457354 0.010028
C14   C     C_2   0.419515 0.117356 0.475287 -0.341042
C15   C     C_2   0.530064 0.072987 0.474811 -0.214051
C16   C     C_2   0.922445 0.489660 0.491638 -0.070808
C17   C     C_2   0.076956 0.509283 0.509118 -0.052289
C18   C     C_R   0.445064 0.254859 0.490425 0.856785
C19   C     C_R   0.577344 0.509981 0.309552 0.796441
C20   C     C_R   0.751623 0.424576 0.059751 -0.198189
C21   C     C_R   0.617696 0.499704 0.200920 -0.047309
C22   C     C_R   0.249456 0.507537 0.837800 -0.188730
C23   C     C_R   0.214783 0.523142 0.940558 -0.151866
C24   C     C_R   0.306546 0.512623 0.006674 -0.176069
Cu1   Cu    Cu3+1 0.362000 0.479240 0.482530 0.952150
Cu2   Cu    Cu3+1 0.638000 0.520760 0.517470 0.942362
H1    H     H_    0.807896 0.446648 0.209790 0.148422
H2    H     H_    0.310298 0.052598 0.461604 0.160164
H3    H     H_    0.675180 0.947434 0.544334 0.148166
H4    H     H_    0.125310 0.576868 0.567894 0.156179
H5    H     H_    0.873501 0.420989 0.433613 0.153977
H6    H     H_    0.106660 0.385240 0.400333 0.191214
H7    H     H_    0.894561 0.617058 0.598088 0.195643
H8    H     H_    0.748825 0.347879 0.868192 0.145766
H9    H     H_    0.840683 0.390024 0.030654 0.132759
H10   H     H_    0.440489 0.552678 0.170339 0.154031
H11   H     H_    0.181268 0.524733 0.787820 0.149195
H12   H     H_    0.273026 0.527688 0.085103 0.133456
H13   H     H_    0.118511 0.547864 0.969070 0.142647
H14   H     H_    0.579433 0.355442 0.758770 0.172641
H15   H     H_    0.637691 0.137700 0.491954 0.177447
N1    N     N_2   0.845330 0.551960 0.543750 -0.284858
N2    N     N_2   0.154690 0.448120 0.456210 -0.283137
O1    O     O_R   0.426290 0.668220 0.490680 -0.564894
O2    O     O_R   0.659360 0.703290 0.520190 -0.565255
O3    O     O_R   0.326580 0.473880 0.629020 -0.579975
O4    O     O_R   0.559660 0.508940 0.658530 -0.575120
O5    O     O_R   0.340640 0.296710 0.479810 -0.572253
O6    O     O_R   0.573710 0.331780 0.509320 -0.586037
O7    O     O_R   0.440340 0.491060 0.341470 -0.572735
O8    O     O_R   0.673420 0.526120 0.370980 -0.579507
C25   C     C_1   0.401169 0.859875 0.391226 0.309727
N3    N     N_1   0.316516 0.799843 0.338552 -0.299529

loop_
_geom_bond_atom_site_label_1
_geom_bond_atom_site_label_2
_ccdc_geom_bond_type
C24   H12   S    
C23   C24   A    
C17   N2    D    
C6    C7    A    
C16   N1    D    
C13   C25   S    
C14   C18   S    
C9    C20   A    
C2    C4    A    
C19   O7    A    
C9    H1    S    
C4    C8    A    
C9    C21   A    
Cu1   N2    S    
C14   C15   D    
C2    C3    A    
C3    C10   A    
Cu2   O8    S    
C10   C22   A    
C16   H5    S    
C17   H4    S    
C11   C13   D    
Cu1   O5    S    
C1    O2    A    
C10   C12   S    
Cu2   O4    S    
C12   O4    A    
C23   H13   S    
H7    N1    S    
Cu1   O1    S    
C19   C21   S    
H6    N2    S    
C8    C21   A    
C3    C7    A    
C13   C15   S    
Cu2   N1    S    
C2    C24   A    
C5    C6    A    
C15   H15   S    
C19   O8    A    
C25   N3    T    
C11   H3    S    
C12   O3    A    
C8    H10   S    
Cu2   O6    S    
C5    C20   A    
Cu1   O7    S    
C16   C17   S    
C1    O1    A    
Cu2   O2    S    
C14   H2    S    
Cu1   Cu2   S    
C7    H14   S    
C22   H11   S    
Cu1   O3    S    
C20   H9    S    
C22   C23   A    
C6    H8    S    
C18   O6    A    
C18   O5    A    
C4    C5    A    
C1    C11   S    
