data_mof_unit_44660.cif
_audit_creation_date              2012-12-10T18:50:54-0500
_audit_creation_method            fapswitch 2.2
_symmetry_space_group_name_H-M    P1
_symmetry_Int_Tables_number       1
_space_group_crystal_system       triclinic
_cell_length_a                    10.764297
_cell_length_b                    9.862428
_cell_length_c                    15.746436
_cell_angle_alpha                 90.075857
_cell_angle_beta                  90.612648
_cell_angle_gamma                 90.390141
_cell_volume                      1671.53883161

loop_
_atom_site_label
_atom_site_type_symbol
_atom_type_description
_atom_site_fract_x
_atom_site_fract_y
_atom_site_fract_z
_atom_type_partial_charge
C1    C     C_R   0.260138 0.499638 0.498469 0.881889
C2    C     C_3   0.629677 0.509844 0.952666 -0.390946
C3    C     C_3   0.628247 0.509632 0.050631 -0.452523
C4    C     C_1   0.497534 0.500151 0.825763 -0.093118
C5    C     C_1   0.495788 0.499568 0.174234 -0.104142
C6    C     C_1   0.498081 0.499714 0.249493 -0.160554
C7    C     C_R   0.064935 0.378764 0.475513 -0.223606
C8    C     C_R   0.067022 0.623251 0.493119 -0.229253
C9    C     C_R   0.937454 0.379151 0.468876 -0.008526
C10   C     C_R   0.940177 0.626337 0.486403 -0.009575
C11   C     C_R   0.873148 0.502267 0.481936 -0.129353
C12   C     C_R   0.128425 0.499789 0.491017 -0.049554
C13   C     C_R   0.573596 0.072918 0.555981 0.021136
C14   C     C_R   0.572407 0.928492 0.556714 0.022506
C15   C     C_R   0.499904 0.499917 0.338309 0.899444
C16   C     C_R   0.427141 0.927523 0.444006 -0.089499
C17   C     C_R   0.426780 0.071160 0.444226 -0.088437
C18   C     C_R   0.739982 0.500610 0.493656 0.870071
C19   C     C_R   0.500205 0.500078 0.661710 0.926327
C20   C     C_3   0.421426 0.625881 0.047520 -0.139216
C21   C     C_3   0.436260 0.363576 0.047269 -0.139065
C22   C     C_3   0.433654 0.367344 0.948877 -0.428247
C23   C     C_3   0.419328 0.622103 0.949117 -0.428094
C24   C     C_1   0.499075 0.500213 0.750518 -0.166000
C25   C     C_3   0.492554 0.499441 0.082497 0.254606
C26   C     C_3   0.495304 0.499891 0.917107 0.308968
H1    H     H_    0.322541 0.614789 0.923516 0.177450
H2    H     H_    0.336823 0.360370 0.923319 0.177591
H3    H     H_    0.497563 0.278830 0.067611 0.131628
H4    H     H_    0.472630 0.718990 0.068077 0.131436
H5    H     H_    0.484425 0.277987 0.923880 0.165229
H6    H     H_    0.459718 0.718308 0.924339 0.165125
H7    H     H_    0.673647 0.603992 0.074953 0.185302
H8    H     H_    0.683907 0.422785 0.074802 0.185890
H9    H     H_    0.675270 0.604487 0.929838 0.182085
H10   H     H_    0.685474 0.422784 0.929687 0.182159
H11   H     H_    0.114538 0.284208 0.467609 0.161260
H12   H     H_    0.117861 0.718235 0.499591 0.165368
N1    N     N_R   0.499970 0.857200 0.499980 -0.103555
N2    N     N_R   0.499970 0.142800 0.499980 -0.102973
O1    O     O_R   0.316750 0.614620 0.499990 -0.632332
O2    O     O_R   0.316750 0.385380 0.499990 -0.630653
O3    O     O_R   0.499990 0.614720 0.377140 -0.617638
O4    O     O_R   0.499990 0.385280 0.377140 -0.617073
O5    O     O_R   0.683220 0.614710 0.500000 -0.611562
O6    O     O_R   0.683220 0.385290 0.500000 -0.609551
O7    O     O_R   0.499980 0.614620 0.622860 -0.613292
O8    O     O_R   0.499980 0.385380 0.622860 -0.613363
Zn1   Zn    Zn3+2 0.499980 0.653120 0.500000 0.968237
Zn2   Zn    Zn3+2 0.499980 0.346880 0.500000 0.969598
H13   H     H_    0.368766 0.872710 0.399178 0.141110
H14   H     H_    0.368072 0.124925 0.399605 0.139208
C27   C     C_1   0.294468 0.638813 0.081203 0.180045
N3    N     N_1   0.195077 0.649322 0.107631 -0.194149
C28   C     C_1   0.311877 0.331689 0.080958 0.178747
N4    N     N_1   0.214546 0.306344 0.107393 -0.194670
C29   C     C_1   0.877490 0.253551 0.443641 0.207560
N5    N     N_1   0.829349 0.153553 0.422744 -0.182050
C30   C     C_1   0.885193 0.759229 0.480224 0.214794
N6    N     N_1   0.842499 0.866109 0.474451 -0.192800
C31   C     C_1   0.653830 0.146892 0.613885 0.235434
N7    N     N_1   0.718670 0.205392 0.660442 -0.209377
C32   C     C_1   0.647929 0.856122 0.617624 0.236013
N8    N     N_1   0.708969 0.799054 0.666667 -0.211466

loop_
_geom_bond_atom_site_label_1
_geom_bond_atom_site_label_2
_ccdc_geom_bond_type
C2    H9    S    
C4    C26   S    
C28   N4    T    
C20   C23   S    
C11   C18   S    
C23   H1    S    
O6    Zn2   S    
C9    C29   S    
C21   C22   S    
C16   H13   S    
O5    Zn1   S    
C8    C12   A    
C23   H6    S    
O8    Zn2   S    
C10   C30   S    
C7    H11   S    
C15   O3    A    
C30   N6    T    
O7    Zn1   S    
C20   H4    S    
C27   N3    T    
C6    C15   S    
C9    C11   A    
C29   N5    T    
C31   N7    T    
C1    C12   S    
C8    H12   S    
O2    Zn2   S    
N2    Zn2   S    
C14   C32   S    
C18   O6    A    
C17   H14   S    
O1    Zn1   S    
N1    Zn1   S    
C15   O4    A    
C19   C24   S    
C2    C3    S    
C22   C26   S    
C5    C6    T    
C4    C24   T    
C5    C25   S    
C7    C12   A    
C23   C26   S    
C16   C17   A    
C20   C25   S    
C3    H7    S    
C16   N1    A    
O4    Zn2   S    
C32   N8    T    
C18   O5    A    
C7    C9    A    
C1    O2    A    
C3    C25   S    
C13   C31   S    
C2    C26   S    
C10   C11   A    
C19   O7    A    
C2    H10   S    
C21   C28   S    
C21   C25   S    
C19   O8    A    
O3    Zn1   S    
C13   N2    A    
C22   H2    S    
C3    H8    S    
C22   H5    S    
C13   C14   A    
C21   H3    S    
C8    C10   A    
C1    O1    A    
C14   N1    A    
C20   C27   S    
C17   N2    A    
