data_mof_unit_14175.cif
_audit_creation_date              2012-12-10T18:51:36-0500
_audit_creation_method            fapswitch 2.2
_symmetry_space_group_name_H-M    P1
_symmetry_Int_Tables_number       1
_space_group_crystal_system       triclinic
_cell_length_a                    10.843842
_cell_length_b                    9.81354
_cell_length_c                    10.570559
_cell_angle_alpha                 91.433911
_cell_angle_beta                  88.953876
_cell_angle_gamma                 90.38795
_cell_volume                      1124.31953035

loop_
_atom_site_label
_atom_site_type_symbol
_atom_type_description
_atom_site_fract_x
_atom_site_fract_y
_atom_site_fract_z
_atom_type_partial_charge
C1    C     C_R   0.873018 0.502191 0.493426 -0.205067
C2    C     C_3   0.469338 0.374635 0.033653 0.257266
C3    C     C_3   0.384067 0.467057 0.958633 -0.352148
C4    C     C_3   0.615933 0.532940 0.041365 -0.352143
C5    C     C_3   0.498659 0.505288 0.876976 -0.178028
C6    C     C_3   0.501341 0.494710 0.123023 -0.178032
C7    C     C_R   0.446463 0.074201 0.597724 -0.068748
C8    C     C_R   0.553535 0.925799 0.402275 -0.068754
C9    C     C_R   0.552983 0.069804 0.401985 -0.076658
C10   C     C_R   0.447012 0.930196 0.598013 -0.076649
C11   C     C_R   0.063078 0.376880 0.472056 0.108811
C12   C     C_R   0.126983 0.497811 0.506567 -0.205046
C13   C     C_R   0.936922 0.623122 0.527936 0.108794
C14   C     C_R   0.936022 0.380450 0.461094 0.129861
C15   C     C_R   0.063979 0.619557 0.538889 0.129873
C16   C     C_3   0.256639 0.756527 0.024244 -0.830191
C17   C     C_3   0.743356 0.243459 0.975733 -0.830195
C18   C     C_3   0.598425 0.854699 0.026490 -0.815337
C19   C     C_3   0.401571 0.145298 0.973509 -0.815337
C20   C     C_3   0.163636 0.215743 0.322959 -0.736874
C21   C     C_3   0.836408 0.784276 0.677050 -0.736981
C22   C     C_3   0.843063 0.270836 0.278624 -0.776541
C23   C     C_R   0.259753 0.499344 0.503108 0.925304
C24   C     C_3   0.156939 0.729217 0.721340 -0.776655
C25   C     C_R   0.740247 0.500657 0.496893 0.925330
C26   C     C_R   0.500771 0.498160 0.257384 0.871401
C27   C     C_R   0.499229 0.501840 0.742616 0.871400
C28   C     C_3   0.418518 0.587760 0.047893 0.244380
C29   C     C_3   0.581482 0.412237 0.952105 0.244396
C30   C     C_3   0.530663 0.625362 0.966345 0.257266
H1    H     H_    0.403099 0.130548 0.675440 0.134235
H2    H     H_    0.314161 0.804234 0.949363 0.267888
H3    H     H_    0.717979 0.360961 0.818632 0.222498
H4    H     H_    0.792576 0.161440 0.921556 0.239820
H5    H     H_    0.685831 0.195745 0.050608 0.267884
H6    H     H_    0.812592 0.313134 0.019093 0.234870
H7    H     H_    0.625296 0.759971 0.851430 0.231828
H8    H     H_    0.617720 0.956329 0.986807 0.249133
H9    H     H_    0.683279 0.818752 0.072254 0.228827
H10   H     H_    0.523013 0.865218 0.098354 0.275350
H11   H     H_    0.374715 0.240020 0.148575 0.231831
H12   H     H_    0.596899 0.869452 0.324559 0.134233
H13   H     H_    0.382278 0.043668 0.013191 0.249136
H14   H     H_    0.476980 0.134780 0.901640 0.275350
H15   H     H_    0.316714 0.181248 0.927751 0.228827
H16   H     H_    0.095716 0.169975 0.504587 0.202998
H17   H     H_    0.094228 0.146941 0.278695 0.217967
H18   H     H_    0.252658 0.160745 0.324378 0.244287
H19   H     H_    0.176045 0.308346 0.265360 0.222873
H20   H     H_    0.904250 0.830014 0.495384 0.203013
H21   H     H_    0.905773 0.853181 0.721237 0.218005
H22   H     H_    0.824133 0.691700 0.734696 0.222877
H23   H     H_    0.594438 0.122667 0.323332 0.143051
H24   H     H_    0.747330 0.839159 0.675667 0.244317
H25   H     H_    0.904565 0.169862 0.435994 0.219094
H26   H     H_    0.927977 0.287886 0.220813 0.230291
H27   H     H_    0.777631 0.355054 0.262977 0.245430
H28   H     H_    0.799760 0.173533 0.246596 0.220318
H29   H     H_    0.095428 0.830149 0.563947 0.219106
H30   H     H_    0.072050 0.712016 0.779143 0.230330
H31   H     H_    0.200106 0.826584 0.753388 0.220304
H32   H     H_    0.222487 0.645113 0.736981 0.245501
H33   H     H_    0.405549 0.877332 0.676663 0.143068
H34   H     H_    0.291016 0.442201 0.922154 0.151943
H35   H     H_    0.708985 0.557796 0.077843 0.151933
H36   H     H_    0.282020 0.639047 0.181360 0.222497
H37   H     H_    0.207415 0.838551 0.078411 0.239819
H38   H     H_    0.187406 0.686843 0.980891 0.234863
N1    N     N_R   0.500000 0.857200 0.500000 -0.078091
N2    N     N_2   0.127927 0.736343 0.588710 -0.261545
N3    N     N_R   0.500000 0.142800 0.500000 -0.078089
N4    N     N_2   0.332495 0.681954 0.108772 -0.282213
N5    N     N_2   0.667503 0.318047 0.891215 -0.282210
N6    N     N_2   0.562803 0.760992 0.925826 -0.296546
N7    N     N_2   0.437200 0.239004 0.074172 -0.296553
N8    N     N_2   0.126316 0.250775 0.451734 -0.270023
N9    N     N_2   0.873684 0.749224 0.548266 -0.270012
N10   N     N_2   0.872072 0.263677 0.411251 -0.261571
O1    O     O_R   0.316770 0.614620 0.499990 -0.594040
O2    O     O_R   0.683230 0.385380 0.500010 -0.594021
O3    O     O_R   0.683230 0.614620 0.500010 -0.595465
O4    O     O_R   0.316770 0.385380 0.499990 -0.595457
O5    O     O_R   0.499970 0.614650 0.313950 -0.618407
O6    O     O_R   0.500030 0.385350 0.686050 -0.618402
O7    O     O_R   0.500030 0.614650 0.686050 -0.634399
O8    O     O_R   0.499970 0.385350 0.313950 -0.634378
Zn1   Zn    Zn3+2 0.500000 0.653120 0.500000 0.950558
Zn2   Zn    Zn3+2 0.500000 0.346880 0.500000 0.950572

loop_
_geom_bond_atom_site_label_1
_geom_bond_atom_site_label_2
_ccdc_geom_bond_type
C7    C10   A    
O5    Zn1   S    
H7    N6    S    
C26   O5    A    
C23   O4    A    
C25   O2    A    
C10   H33   S    
C16   N4    S    
C22   H27   S    
H16   N8    S    
C24   N2    S    
C2    C6    S    
C3    H34   S    
C12   C23   S    
C8    N1    A    
C24   H31   S    
C2    C29   S    
C27   O6    A    
C8    H12   S    
C11   N8    S    
C7    N3    A    
C21   H24   S    
C30   N6    S    
C11   C14   A    
O8    Zn2   S    
C29   N5    S    
C20   N8    S    
C27   O7    A    
C18   H10   S    
C4    H35   S    
C5    C27   S    
C6    C28   S    
H36   N4    S    
C8    C9    A    
C16   H38   S    
C17   H6    S    
C4    C29   S    
C25   O3    A    
C24   H30   S    
C18   N6    S    
C1    C25   S    
C28   N4    S    
O1    Zn1   S    
C19   H13   S    
C5    C29   S    
O7    Zn1   S    
C13   N9    S    
C7    H1    S    
O6    Zn2   S    
C22   N10   S    
C4    C6    S    
C17   N5    S    
H25   N10   S    
C22   H26   S    
C18   H9    S    
C20   H19   S    
H11   N7    S    
C12   C15   A    
C26   O8    A    
C16   H37   S    
C20   H18   S    
O3    Zn1   S    
H3    N5    S    
C13   C15   A    
C1    C13   A    
C17   H4    S    
H20   N9    S    
C21   H21   S    
C19   H14   S    
C5    C30   S    
C15   N2    S    
C3    C28   S    
C24   H32   S    
C9    N3    A    
C3    C5    S    
N1    Zn1   S    
C22   H28   S    
C11   C12   A    
C19   H15   S    
C16   H2    S    
C19   N7    S    
C2    C3    S    
C18   H8    S    
O2    Zn2   S    
C6    C26   S    
O4    Zn2   S    
C28   C30   S    
C14   N10   S    
C20   H17   S    
H29   N2    S    
N3    Zn2   S    
C10   N1    A    
C9    H23   S    
C21   N9    S    
C1    C14   A    
C17   H5    S    
C23   O1    A    
C21   H22   S    
C4    C30   S    
C2    N7    S    
