data_mof_unit_21667.cif
_audit_creation_date              2012-12-10T17:42:43-0500
_audit_creation_method            fapswitch 2.2
_symmetry_space_group_name_H-M    P1
_symmetry_Int_Tables_number       1
_space_group_crystal_system       triclinic
_cell_length_a                    9.88933
_cell_length_b                    10.720692
_cell_length_c                    13.105352
_cell_angle_alpha                 91.218653
_cell_angle_beta                  69.764269
_cell_angle_gamma                 88.896315
_cell_volume                      1302.85633889

loop_
_atom_site_label
_atom_site_type_symbol
_atom_type_description
_atom_site_fract_x
_atom_site_fract_y
_atom_site_fract_z
_atom_type_partial_charge
C1    C     C_R   0.499795 0.740519 0.495164 0.858737
C2    C     C_R   0.367477 0.481429 0.821839 -0.090407
C3    C     C_R   0.237353 0.896034 0.497894 -0.168018
C4    C     C_R   0.420013 0.493009 0.703983 0.900188
C5    C     C_R   0.105305 0.961450 0.537898 -0.156344
C6    C     C_R   0.095097 0.075198 0.593056 -0.170618
C7    C     C_R   0.219592 0.129131 0.598185 -0.141816
C8    C     C_R   0.356139 0.068483 0.548550 0.089355
C9    C     C_R   0.362336 0.943895 0.513141 0.093741
C10   C     C_R   0.493975 0.874905 0.494296 -0.119336
C11   C     C_R   0.619490 0.935342 0.490997 -0.246158
C12   C     C_R   0.432335 0.474890 0.983718 0.009407
C13   C     C_R   0.617387 0.062184 0.504499 -0.174450
C14   C     C_R   0.487767 0.129521 0.528590 -0.100500
C15   C     C_R   0.792318 0.663178 0.644649 -0.123661
C16   C     C_R   0.495388 0.261376 0.511722 0.923233
C17   C     C_R   0.828613 0.739107 0.718132 -0.199494
C18   C     C_R   0.967678 0.735218 0.719903 -0.187820
C19   C     C_R   0.071592 0.656503 0.647244 -0.147413
C20   C     C_R   0.038204 0.577623 0.572508 0.125033
C21   C     C_R   0.893965 0.579239 0.571705 0.071011
C22   C     C_R   0.960152 0.422697 0.431399 0.572371
C23   C     C_R   0.460883 0.436993 0.874532 -0.049385
C24   C     C_R   0.105423 0.425288 0.430557 -0.254814
C25   C     C_R   0.580300 0.499518 0.295591 0.870687
C26   C     C_R   0.778990 0.371038 0.014965 -0.166288
C27   C     C_R   0.629866 0.482848 0.178091 -0.071272
C28   C     C_R   0.231305 0.532924 0.883060 -0.217436
C29   C     C_R   0.192688 0.550054 0.994847 -0.135843
C30   C     C_R   0.293267 0.525203 0.044787 -0.149631
C31   C     C_3   0.984191 0.228473 0.344477 -0.365646
C32   C     C_R   0.543475 0.459751 0.027595 0.074599
C33   C     C_R   0.671315 0.389940 0.969152 0.081420
C34   C     C_R   0.687131 0.336142 0.867917 -0.328757
C35   C     C_R   0.582519 0.357621 0.821326 0.606147
C36   C     C_R   0.531183 0.513300 0.128080 -0.227898
C37   C     C_R   0.756907 0.415232 0.120542 -0.196855
F1    F     F_    0.595957 0.293183 0.727864 -0.681050
H1    H     H_    0.834479 0.390954 0.158888 0.186403
H2    H     H_    0.177397 0.661350 0.650562 0.204196
H3    H     H_    0.780377 0.276846 0.824791 0.166321
H4    H     H_    0.189328 0.367478 0.373154 0.172616
H5    H     H_    0.876492 0.317040 0.971357 0.141189
H6    H     H_    0.441205 0.574756 0.172079 0.141842
H7    H     H_    0.156756 0.564082 0.844134 0.155342
H8    H     H_    0.258020 0.542959 0.131519 0.130735
H9    H     H_    0.086941 0.588533 0.042228 0.145623
H10   H     H_    0.721039 0.885019 0.475689 0.169993
H11   H     H_    0.983312 0.189461 0.422861 0.161858
H12   H     H_    0.239198 0.811511 0.451379 0.171539
H13   H     H_    0.095418 0.227838 0.284041 0.170129
H14   H     H_    0.920498 0.165741 0.311347 0.192783
H15   H     H_    0.010397 0.922737 0.527507 0.146842
H16   H     H_    0.991748 0.123840 0.628228 0.148678
H17   H     H_    0.208220 0.218401 0.640892 0.159994
H18   H     H_    0.718226 0.107536 0.493249 0.181241
H19   H     H_    0.683978 0.674380 0.647660 0.198341
H20   H     H_    0.748373 0.802109 0.773488 0.154318
H21   H     H_    0.996075 0.795236 0.776432 0.152989
N1    N     N_R   0.856860 0.501200 0.500990 -0.148503
N2    N     N_R   0.142450 0.501280 0.501020 -0.140283
O1    O     O_R   0.385310 0.683220 0.500000 -0.650571
O2    O     O_R   0.614640 0.683250 0.500010 -0.646239
O3    O     O_R   0.328400 0.499950 0.653610 -0.653303
O4    O     O_R   0.557730 0.499970 0.653620 -0.590151
O5    O     O_R   0.385360 0.316750 0.499990 -0.635607
O6    O     O_R   0.614690 0.316780 0.500000 -0.539013
O7    O     O_R   0.442270 0.500030 0.346380 -0.616126
O8    O     O_R   0.671600 0.500050 0.346390 -0.575276
O9    O     O_3   0.920746 0.349607 0.358007 -0.585782
Zn1   Zn    Zn3+2 0.346880 0.499980 0.499990 0.916320
Zn2   Zn    Zn3+2 0.653120 0.500020 0.500010 1.006543

loop_
_geom_bond_atom_site_label_1
_geom_bond_atom_site_label_2
_ccdc_geom_bond_type
C15   H19   S    
O8    Zn2   S    
C2    C4    S    
C26   C37   A    
C25   O7    A    
C6    C7    A    
C3    C9    A    
C27   C36   A    
C25   C27   S    
O4    Zn2   S    
C24   H4    S    
C9    C10   A    
C4    O3    A    
C26   H5    S    
O5    Zn1   S    
C7    H17   S    
C31   H14   S    
C13   H18   S    
C1    O1    A    
N2    Zn1   S    
C33   C34   A    
C31   H11   S    
C32   C33   A    
C7    C8    A    
C37   H1    S    
C16   O6    A    
C13   C14   A    
C12   C32   A    
C17   H20   S    
C8    C9    A    
C11   C13   A    
C12   C23   A    
C11   H10   S    
C24   N2    A    
C34   H3    S    
C29   H9    S    
O7    Zn1   S    
C32   C36   A    
C22   C24   A    
C5    H15   S    
C28   C29   A    
C3    H12   S    
C6    H16   S    
O1    Zn1   S    
C17   C18   A    
C23   C35   A    
C22   N1    A    
C5    C6    A    
C34   C35   A    
C14   C16   S    
C28   H7    S    
C36   H6    S    
C25   O8    A    
C10   C11   A    
N1    Zn2   S    
C29   C30   A    
C20   N2    A    
C1    O2    A    
C18   H21   S    
C15   C21   A    
C35   F1    S    
C16   O5    A    
O2    Zn2   S    
C21   N1    A    
O6    Zn2   S    
C19   H2    S    
O3    Zn1   S    
C2    C23   A    
C15   C17   A    
C4    O4    A    
C18   C19   A    
C2    C28   A    
C22   O9    S    
C8    C14   A    
C12   C30   A    
C20   C21   A    
C30   H8    S    
C31   O9    S    
C1    C10   S    
C19   C20   A    
C26   C33   A    
C31   H13   S    
C27   C37   A    
C3    C5    A    
