data_mof_unit_60891.cif
_audit_creation_date              2012-12-10T17:55:56-0500
_audit_creation_method            fapswitch 2.2
_symmetry_space_group_name_H-M    P1
_symmetry_Int_Tables_number       1
_space_group_crystal_system       triclinic
_cell_length_a                    18.402887
_cell_length_b                    18.337062
_cell_length_c                    26.028275
_cell_angle_alpha                 89.999914
_cell_angle_beta                  90.000175
_cell_angle_gamma                 89.999957
_cell_volume                      8783.36841402

loop_
_atom_site_label
_atom_site_type_symbol
_atom_type_description
_atom_site_fract_x
_atom_site_fract_y
_atom_site_fract_z
_atom_type_partial_charge
C1    C     C_R   0.140087 0.859896 0.250089 0.514240
C2    C     C_R   0.264409 0.820374 0.229060 -0.125880
C3    C     C_1   0.656597 0.743859 0.161778 0.241579
C4    C     C_1   0.908389 0.099655 0.054547 0.235154
C5    C     C_1   0.908437 0.099694 0.945457 0.234275
C6    C     C_1   0.091613 0.900307 0.054538 0.235206
C7    C     C_1   0.091673 0.900349 0.945450 0.236063
C8    C     C_1   0.408338 0.400340 0.554550 0.236091
C9    C     C_1   0.408396 0.400299 0.445462 0.235213
C10   C     C_1   0.591552 0.599703 0.554542 0.234286
C11   C     C_1   0.591600 0.599663 0.445452 0.235157
C12   C     C_R   0.735378 0.820566 0.770585 -0.132697
C13   C     C_R   0.756116 0.799712 0.208140 -0.131929
C14   C     C_R   0.743839 0.299665 0.291885 -0.131857
C15   C     C_R   0.764626 0.320570 0.729423 -0.132655
C16   C     C_R   0.235587 0.320377 0.270934 -0.125846
C17   C     C_R   0.256513 0.299333 0.707866 -0.124889
C18   C     C_R   0.797141 0.246139 0.293335 -0.026135
C19   C     C_R   0.819515 0.268614 0.729642 -0.026365
C20   C     C_R   0.180699 0.268432 0.270726 -0.025569
C21   C     C_R   0.139983 0.859794 0.750012 0.514088
C22   C     C_R   0.203209 0.245790 0.706424 -0.026090
C23   C     C_R   0.296829 0.745831 0.793556 -0.026272
C24   C     C_R   0.319298 0.768428 0.229267 -0.025639
C25   C     C_R   0.680490 0.768610 0.770367 -0.026435
C26   C     C_R   0.702811 0.746192 0.206691 -0.026320
C27   C     C_R   0.802816 0.195866 0.252133 0.025219
C28   C     C_R   0.805734 0.198790 0.750909 0.029097
C29   C     C_R   0.194360 0.198712 0.249239 0.025914
C30   C     C_R   0.197330 0.195730 0.747741 0.025039
C31   C     C_R   0.302673 0.695735 0.752257 0.025057
C32   C     C_R   0.859980 0.859827 0.250028 0.510350
C33   C     C_R   0.305640 0.698712 0.250760 0.025861
C34   C     C_R   0.694265 0.698790 0.749092 0.029045
C35   C     C_R   0.697179 0.695872 0.247868 0.025241
C36   C     C_R   0.953970 0.048099 0.027037 -0.048008
C37   C     C_R   0.953980 0.048107 0.972964 -0.049087
C38   C     C_R   0.046044 0.951871 0.027034 -0.049718
C39   C     C_R   0.046056 0.951879 0.972959 -0.048503
C40   C     C_R   0.453949 0.451875 0.527041 -0.048494
C41   C     C_R   0.453961 0.451867 0.472966 -0.049722
C42   C     C_R   0.546015 0.548111 0.527036 -0.049074
C43   C     C_R   0.859882 0.859921 0.749876 0.509901
C44   C     C_R   0.546025 0.548103 0.472962 -0.048006
C45   C     C_R   0.000011 0.999989 0.945751 -0.010240
C46   C     C_R   0.000001 0.999980 0.054246 -0.010296
C47   C     C_R   0.499998 0.499980 0.445754 -0.010295
C48   C     C_R   0.499989 0.499989 0.554249 -0.010233
C49   C     C_R   0.859448 0.139889 0.250706 0.509003
C50   C     C_R   0.860502 0.140943 0.750373 0.507971
C51   C     C_R   0.139531 0.140917 0.249668 0.503569
C52   C     C_R   0.140596 0.139848 0.749251 0.504606
C53   C     C_R   0.359405 0.639850 0.750748 0.504612
C54   C     C_R   0.640117 0.359920 0.750124 0.510064
C55   C     C_R   0.360469 0.640917 0.250332 0.503549
C56   C     C_R   0.639498 0.640943 0.749627 0.507949
C57   C     C_R   0.640550 0.639891 0.249295 0.509012
C58   C     C_R   0.000000 0.999983 0.111033 0.509114
C59   C     C_R   0.000002 0.999989 0.888966 0.509176
C60   C     C_R   0.499998 0.499989 0.611034 0.509185
C61   C     C_R   0.500000 0.499982 0.388967 0.509114
C62   C     C_R   0.000463 0.999954 0.388588 0.513669
C63   C     C_R   0.999540 0.999955 0.611412 0.513619
C64   C     C_R   0.499511 0.499954 0.888587 0.513586
C65   C     C_R   0.640020 0.359828 0.249972 0.510179
C66   C     C_R   0.500486 0.499954 0.111413 0.513566
C67   C     C_2   0.001762 0.059896 0.528131 -0.145862
C68   C     C_2   0.998301 0.059899 0.471869 -0.145473
C69   C     C_2   0.498323 0.559897 0.028134 -0.144659
C70   C     C_2   0.501614 0.559899 0.971866 -0.144679
C71   C     C_2   0.995865 0.998751 0.556002 -0.091115
C72   C     C_2   0.004145 0.998749 0.443998 -0.090663
C73   C     C_2   0.504120 0.498742 0.056004 -0.090735
C74   C     C_2   0.495869 0.498740 0.943996 -0.090277
C75   C     C_R   0.753376 0.199610 0.211165 -0.133473
C76   C     C_R   0.360017 0.359794 0.749988 0.513917
C77   C     C_R   0.737717 0.183845 0.772895 -0.133544
C78   C     C_R   0.262315 0.183830 0.227134 -0.141006
C79   C     C_R   0.246671 0.199590 0.788760 -0.140583
C80   C     C_R   0.253298 0.699559 0.711258 -0.140565
C81   C     C_R   0.237689 0.683834 0.272873 -0.141044
C82   C     C_R   0.762278 0.683851 0.727096 -0.133581
C83   C     C_R   0.746661 0.699573 0.288813 -0.133449
C84   C     C_R   0.199816 0.752793 0.710566 -0.134808
C85   C     C_R   0.183640 0.736503 0.272983 -0.132548
C86   C     C_R   0.816333 0.736516 0.727001 -0.130393
C87   C     C_R   0.359914 0.359895 0.249911 0.514401
C88   C     C_R   0.800169 0.752789 0.289496 -0.131997
C89   C     C_R   0.699870 0.252828 0.210482 -0.132087
C90   C     C_R   0.683662 0.236511 0.772990 -0.130300
C91   C     C_R   0.316365 0.236499 0.227024 -0.132455
C92   C     C_R   0.300153 0.252824 0.789452 -0.134895
C93   C     C_R   0.195256 0.803238 0.750736 0.028012
C94   C     C_R   0.196656 0.804638 0.250660 0.031808
C95   C     C_R   0.803250 0.804717 0.749209 0.028611
C96   C     C_R   0.804613 0.803355 0.249389 0.027417
C97   C     C_R   0.695386 0.303354 0.250613 0.027423
C98   C     C_R   0.243522 0.799370 0.792114 -0.124950
C99   C     C_R   0.696749 0.304717 0.750791 0.028630
C100  C     C_R   0.303344 0.304637 0.249340 0.031824
C101  C     C_R   0.304745 0.303237 0.749263 0.028014
C102  C     C_1   0.843300 0.243744 0.338275 0.241558
C103  C     C_1   0.889351 0.289922 0.709048 0.232230
C104  C     C_1   0.110985 0.289668 0.291565 0.233953
C105  C     C_1   0.157267 0.243128 0.661383 0.248524
C106  C     C_1   0.342815 0.743220 0.838575 0.248525
C107  C     C_1   0.389006 0.789661 0.208418 0.233686
C108  C     C_1   0.610659 0.789914 0.790972 0.231969
H1    H     H_    0.008263 0.112390 0.546941 0.178309
H2    H     H_    0.725868 0.131007 0.789523 0.149354
H3    H     H_    0.274102 0.131053 0.210388 0.146902
H4    H     H_    0.243456 0.161928 0.820746 0.148605
H5    H     H_    0.256485 0.661871 0.679286 0.148643
H6    H     H_    0.225905 0.631060 0.289624 0.146906
H7    H     H_    0.774124 0.631016 0.710462 0.149360
H8    H     H_    0.743570 0.661771 0.320726 0.162287
H9    H     H_    0.162721 0.755082 0.678291 0.144451
H10   H     H_    0.131417 0.723577 0.289893 0.144933
H11   H     H_    0.868624 0.723521 0.710225 0.145588
H12   H     H_    0.991841 0.112398 0.453060 0.178344
H13   H     H_    0.837397 0.754946 0.321698 0.147348
H14   H     H_    0.662675 0.255021 0.178261 0.147162
H15   H     H_    0.631368 0.223513 0.789759 0.145616
H16   H     H_    0.368590 0.223569 0.210120 0.144962
H17   H     H_    0.337220 0.255142 0.821742 0.144261
H18   H     H_    0.239125 0.837623 0.823769 0.159559
H19   H     H_    0.274979 0.873689 0.212593 0.144599
H20   H     H_    0.724734 0.873959 0.786900 0.142536
H21   H     H_    0.760343 0.838120 0.176570 0.145704
H22   H     H_    0.739578 0.338039 0.323474 0.145730
H23   H     H_    0.492001 0.612408 0.046948 0.177227
H24   H     H_    0.775273 0.373967 0.713114 0.142529
H25   H     H_    0.225014 0.373695 0.287395 0.144588
H26   H     H_    0.260938 0.337559 0.676197 0.159606
H27   H     H_    0.507895 0.612415 0.953053 0.176493
H28   H     H_    0.986507 0.945869 0.538839 0.110088
H29   H     H_    0.013469 0.945860 0.461160 0.109467
H30   H     H_    0.513304 0.445828 0.038850 0.109670
H31   H     H_    0.486720 0.445819 0.961150 0.109176
H32   H     H_    0.756502 0.161842 0.179233 0.162281
N1    N     N_1   0.880138 0.241945 0.374301 -0.256352
N2    N     N_1   0.872156 0.140813 0.923539 -0.270054
N3    N     N_1   0.127919 0.859205 0.076453 -0.265446
N4    N     N_1   0.128017 0.859283 0.923533 -0.278483
N5    N     N_1   0.371999 0.359270 0.576468 -0.278465
N6    N     N_1   0.372094 0.359195 0.423547 -0.265333
N7    N     N_1   0.627828 0.640826 0.576461 -0.270087
N8    N     N_1   0.627909 0.640755 0.423530 -0.281462
N9    N     N_1   0.945200 0.307141 0.692573 -0.253263
N10   N     N_1   0.055236 0.306833 0.308237 -0.250773
N11   N     N_1   0.120606 0.241116 0.625274 -0.250633
N12   N     N_1   0.379512 0.741250 0.874668 -0.248594
N13   N     N_1   0.444751 0.806824 0.191738 -0.251016
N14   N     N_1   0.554814 0.807130 0.807456 -0.253502
N15   N     N_1   0.619715 0.742113 0.125773 -0.254345
N16   N     N_1   0.872076 0.140743 0.076469 -0.281554
O1    O     O_3   1.000000 1.000000 0.250030 -0.451976
O2    O     O_R   0.585480 0.353820 0.219950 -0.546495
O3    O     O_R   0.414520 0.353820 0.780050 -0.547580
O4    O     O_R   0.414520 0.353820 0.219950 -0.546857
O5    O     O_R   0.914530 0.146170 0.280090 -0.523346
O6    O     O_R   0.914530 0.146170 0.719910 -0.528668
O7    O     O_R   0.085470 0.146170 0.280090 -0.526223
O8    O     O_R   0.085470 0.146170 0.719910 -0.523229
O9    O     O_R   0.414530 0.646170 0.780090 -0.523115
O10   O     O_R   0.414530 0.646170 0.219910 -0.526517
O11   O     O_R   0.585470 0.646170 0.780090 -0.528958
O12   O     O_3   0.000000 1.000000 0.749970 -0.451815
O13   O     O_R   0.585470 0.646170 0.219910 -0.523235
O14   O     O_R   0.146180 0.085440 0.219990 -0.549336
O15   O     O_R   0.146180 0.085440 0.780010 -0.547762
O16   O     O_R   0.853820 0.085440 0.219990 -0.539889
O17   O     O_R   0.853820 0.085440 0.780010 -0.539955
O18   O     O_R   0.646180 0.585440 0.719990 -0.539890
O19   O     O_R   0.646180 0.585440 0.280010 -0.539923
O20   O     O_R   0.353820 0.585440 0.719990 -0.547794
O21   O     O_R   0.353820 0.585440 0.280010 -0.549269
O22   O     O_R   0.853820 0.914550 0.219980 -0.544713
O23   O     O_3   0.500000 0.500000 0.750030 -0.451805
O24   O     O_R   0.853820 0.914550 0.780020 -0.546114
O25   O     O_R   0.146180 0.914550 0.219980 -0.537044
O26   O     O_R   0.146180 0.914550 0.780020 -0.537238
O27   O     O_R   0.353820 0.414550 0.719980 -0.537234
O28   O     O_R   0.353820 0.414550 0.280020 -0.537046
O29   O     O_R   0.646180 0.414550 0.719980 -0.546110
O30   O     O_R   0.646180 0.414550 0.280020 -0.544702
O31   O     O_R   0.060720 0.999990 0.135450 -0.527794
O32   O     O_R   0.060720 0.999990 0.864550 -0.530375
O33   O     O_R   0.939280 0.999990 0.135450 -0.529601
O34   O     O_3   0.500000 0.500000 0.249970 -0.451955
O35   O     O_R   0.939280 0.999990 0.864550 -0.526965
O36   O     O_R   0.560720 0.499990 0.635450 -0.526963
O37   O     O_R   0.560720 0.499990 0.364550 -0.529582
O38   O     O_R   0.439280 0.499990 0.635450 -0.530357
O39   O     O_R   0.439280 0.499990 0.364550 -0.527806
O40   O     O_R   0.000000 0.939270 0.364600 -0.541804
O41   O     O_R   0.000000 0.939270 0.635400 -0.541600
O42   O     O_R   0.500000 0.439270 0.864600 -0.541633
O43   O     O_R   0.500000 0.439270 0.135400 -0.541848
O44   O     O_R   0.000000 0.060730 0.364620 -0.529055
O45   O     O_R   0.085480 0.853820 0.280050 -0.547240
O46   O     O_R   0.000000 0.060730 0.635380 -0.529585
O47   O     O_R   0.500000 0.560730 0.864620 -0.529610
O48   O     O_R   0.500000 0.560730 0.135380 -0.529068
O49   O     O_R   0.085480 0.853820 0.719950 -0.547234
O50   O     O_R   0.914520 0.853820 0.280050 -0.546150
O51   O     O_R   0.914520 0.853820 0.719950 -0.544669
O52   O     O_R   0.585480 0.353820 0.780050 -0.544287
Zn1   Zn    Zn3+2 0.000000 0.086760 0.292960 0.980686
Zn2   Zn    Zn3+2 0.586770 0.499990 0.292890 0.960469
Zn3   Zn    Zn3+2 0.413230 0.499990 0.707110 0.959736
Zn4   Zn    Zn3+2 0.413230 0.499990 0.292890 0.959424
Zn5   Zn    Zn3+2 1.000000 0.913240 0.292940 0.943249
Zn6   Zn    Zn3+2 0.000000 0.913240 0.707060 0.943889
Zn7   Zn    Zn3+2 0.500000 0.413240 0.792940 0.943887
Zn8   Zn    Zn3+2 0.500000 0.413240 0.207060 0.943239
Zn9   Zn    Zn3+2 0.000000 0.086760 0.707040 0.979270
Zn10  Zn    Zn3+2 0.500000 0.586760 0.792960 0.979138
Zn11  Zn    Zn3+2 0.500000 0.586760 0.207040 0.980540
Zn12  Zn    Zn3+2 0.086770 0.999990 0.207110 0.959279
Zn13  Zn    Zn3+2 0.086770 0.999990 0.792890 0.959854
Zn14  Zn    Zn3+2 0.913230 0.999990 0.207110 0.960583
Zn15  Zn    Zn3+2 0.913230 0.999990 0.792890 0.959988
Zn16  Zn    Zn3+2 0.586770 0.499990 0.707110 0.960142

loop_
_geom_bond_atom_site_label_1
_geom_bond_atom_site_label_2
_ccdc_geom_bond_type
O8    Zn9   S    
C33   C55   S    
C4    C36   S    
C76   O3    A    
O1    Zn1   S    
C13   C26   A    
C63   O46   A    
C5    C37   S    
C10   C42   S    
O37   Zn2   S    
C90   H15   S    
C14   C18   A    
C21   O49   A    
C8    N5    T    
C62   O40   A    
O12   Zn13  S    
C80   C84   A    
C1    O45   A    
O34   Zn11  S    
C88   C96   A    
O7    Zn1   S    
C60   O38   A    
C31   C80   A    
O44   Zn1   S    
C15   C19   A    
C21   C93   S    
C79   H4    S    
C50   O17   A    
O46   Zn9   S    
C36   C37   A    
C82   H7    S    
C64   O42   A    
C75   H32   S    
C14   H22   S    
C38   C39   A    
C11   N8    T    
C50   O6    A    
C73   H30   S    
C16   H25   S    
O2    Zn8   S    
O4    Zn8   S    
O23   Zn3   S    
C9    N6    T    
C23   C106  S    
C87   O4    A    
C107  N13   T    
O24   Zn15  S    
C18   C102  S    
O19   Zn2   S    
C104  N10   T    
C17   C101  A    
O34   Zn4   S    
C89   C97   A    
O38   Zn3   S    
C57   O19   A    
C28   C50   S    
C67   H1    S    
C15   H24   S    
C84   H9    S    
O29   Zn16  S    
C81   H6    S    
C70   C74   D    
C43   C95   S    
C6    C38   S    
C12   C95   A    
C36   C46   A    
C86   H11   S    
C102  N1    T    
C91   C100  A    
C76   O27   A    
C61   O39   A    
O11   Zn10  S    
O14   Zn12  S    
C66   O43   A    
C44   C47   A    
C68   C72   D    
C25   C34   A    
C39   C45   A    
C66   O48   A    
C2    H19   S    
C83   C88   A    
O6    Zn9   S    
C92   H17   S    
C55   O21   A    
C32   O22   A    
C69   C70   S    
C42   C44   A    
O25   Zn12  S    
C27   C75   A    
O42   Zn7   S    
C52   O15   A    
C7    N4    T    
O15   Zn13  S    
C59   O35   A    
C48   C60   S    
O35   Zn15  S    
C57   O13   A    
C20   C29   A    
C51   O14   A    
C72   H29   S    
C21   O26   A    
C105  N11   T    
C43   O24   A    
O3    Zn7   S    
C29   C78   A    
O48   Zn11  S    
C43   O51   A    
O43   Zn8   S    
C2    C94   A    
O18   Zn16  S    
O36   Zn16  S    
C87   O28   A    
C35   C83   A    
O33   Zn14  S    
C1    C94   S    
C42   C48   A    
C13   C96   A    
C82   C86   A    
O27   Zn3   S    
C19   C103  S    
C54   O29   A    
O1    Zn12  S    
C77   H2    S    
C67   C68   S    
C56   O18   A    
C23   C31   A    
C28   C77   A    
C85   C94   A    
O12   Zn6   S    
C12   C25   A    
C69   H23   S    
O28   Zn4   S    
C58   O33   A    
C3    N15   T    
C41   C47   A    
C62   C72   S    
C59   O32   A    
C24   C107  S    
C16   C20   A    
C31   C53   S    
C69   C73   D    
C19   C28   A    
O45   Zn5   S    
C79   C92   A    
C78   H3    S    
O9    Zn10  S    
C52   O8    A    
C20   C104  S    
C30   C79   A    
C92   C101  A    
O50   Zn5   S    
C53   O9    A    
C51   O7    A    
C4    N16   T    
C64   O47   A    
C63   C71   S    
O49   Zn6   S    
C53   O20   A    
O52   Zn7   S    
C54   O52   A    
C91   H16   S    
O30   Zn2   S    
O23   Zn10  S    
C2    C24   A    
O1    Zn14  S    
O12   Zn9   S    
C60   O36   A    
C106  N12   T    
O12   Zn15  S    
C37   C45   A    
O17   Zn15  S    
C61   O37   A    
C90   C99   A    
C71   H28   S    
O21   Zn4   S    
C14   C97   A    
C87   C100  S    
C29   C51   S    
C76   C101  S    
C40   C48   A    
C30   C52   S    
C65   O30   A    
C45   C59   S    
O26   Zn13  S    
C1    O25   A    
C22   C30   A    
O47   Zn10  S    
C32   C96   S    
C58   O31   A    
C49   O5    A    
C83   H8    S    
C34   C56   S    
C3    C26   S    
C16   C100  A    
C18   C27   A    
C17   C22   A    
C15   C99   A    
C88   H13   S    
C47   C61   S    
C49   O16   A    
C64   C74   S    
C12   H20   S    
C13   H21   S    
O13   Zn11  S    
C78   C91   A    
C22   C105  S    
C8    C40   S    
C74   H31   S    
C10   N7    T    
O1    Zn5   S    
C24   C33   A    
O20   Zn3   S    
O23   Zn16  S    
C35   C57   S    
C33   C81   A    
O34   Zn2   S    
C65   C97   S    
O39   Zn4   S    
O32   Zn13  S    
O40   Zn5   S    
C66   C73   S    
C5    N2    T    
C70   H27   S    
O5    Zn1   S    
C93   C98   A    
C56   O11   A    
C67   C71   D    
C84   C93   A    
O51   Zn6   S    
C85   H10   S    
C54   C99   S    
C32   O50   A    
C81   C85   A    
C11   C44   S    
C38   C46   A    
O16   Zn14  S    
C86   C95   A    
C103  N9    T    
C62   O44   A    
O31   Zn12  S    
C63   O41   A    
C26   C35   A    
C98   H18   S    
C23   C98   A    
C108  N14   T    
C80   H5    S    
C25   C108  S    
C68   H12   S    
C9    C41   S    
C89   H14   S    
C75   C89   A    
O23   Zn7   S    
C17   H26   S    
C77   C90   A    
C7    C39   S    
O22   Zn14  S    
C40   C41   A    
C34   C82   A    
C55   O10   A    
C6    N3    T    
O34   Zn8   S    
O10   Zn11  S    
C46   C58   S    
O41   Zn6   S    
C27   C49   S    
C65   O2    A    
