data_mof_unit_39473.cif
_audit_creation_date              2012-12-10T17:29:22-0500
_audit_creation_method            fapswitch 2.2
_symmetry_space_group_name_H-M    P1
_symmetry_Int_Tables_number       1
_space_group_crystal_system       triclinic
_cell_length_a                    12.042744
_cell_length_b                    12.848521
_cell_length_c                    13.107546
_cell_angle_alpha                 86.787407
_cell_angle_beta                  113.372753
_cell_angle_gamma                 94.154032
_cell_volume                      1856.00965281

loop_
_atom_site_label
_atom_site_type_symbol
_atom_type_description
_atom_site_fract_x
_atom_site_fract_y
_atom_site_fract_z
_atom_type_partial_charge
C1    C     C_R   0.477343 0.299476 0.499615 0.893544
C2    C     C_R   0.611763 0.506525 0.828780 -0.108262
C3    C     C_R   0.538289 0.812096 0.501193 -0.079192
C4    C     C_R   0.567276 0.500928 0.708355 0.870242
C5    C     C_R   0.462916 0.187897 0.496949 -0.070438
C6    C     C_R   0.339642 0.030794 0.434356 -0.192523
C7    C     C_R   0.348650 0.137650 0.446146 -0.169653
C8    C     C_R   0.567852 0.132327 0.537542 -0.225821
C9    C     C_R   0.561535 0.026445 0.520653 0.096105
C10   C     C_R   0.445090 0.975371 0.470941 0.170587
C11   C     C_R   0.434857 0.868972 0.460522 -0.256384
C12   C     C_R   0.559682 0.519010 0.987713 0.097576
C13   C     C_R   0.653903 0.861418 0.545880 -0.250666
C14   C     C_R   0.667405 0.969483 0.554525 -0.032505
C15   C     C_R   0.011339 0.602853 0.400317 -0.302274
C16   C     C_R   0.522871 0.700515 0.500556 0.885301
C17   C     C_R   0.130693 0.592760 0.409685 -0.001179
C18   C     C_R   0.156705 0.454242 0.543597 0.069083
C19   C     C_R   0.036397 0.461985 0.536824 0.029853
C20   C     C_R   0.963228 0.537409 0.464079 0.084440
C21   C     C_R   0.843366 0.545079 0.456962 -0.025841
C22   C     C_R   0.868024 0.407162 0.590530 0.063043
C23   C     C_R   0.540366 0.548616 0.877578 0.113971
C24   C     C_R   0.986875 0.396523 0.600356 -0.257666
C25   C     C_R   0.433560 0.505062 0.291471 0.887168
C26   C     C_R   0.278781 0.616427 0.001977 -0.023392
C27   C     C_R   0.395301 0.522428 0.172526 -0.084525
C28   C     C_R   0.718046 0.457524 0.895472 -0.182001
C29   C     C_R   0.748861 0.444229 0.009034 -0.127617
C30   C     C_R   0.669453 0.472180 0.054952 -0.192768
C31   C     C_2   0.792175 0.019033 0.596788 0.887061
C32   C     C_2   0.232349 0.374015 0.618424 0.942689
C33   C     C_2   0.166322 0.670729 0.936078 0.895449
C34   C     C_R   0.468318 0.537091 0.025805 0.082182
C35   C     C_R   0.368812 0.598550 0.961011 0.089649
C36   C     C_R   0.365743 0.643582 0.860168 -0.179282
C37   C     C_R   0.449662 0.618466 0.818792 -0.167438
C38   C     C_R   0.472870 0.493195 0.126327 -0.240184
C39   C     C_R   0.296457 0.581527 0.110263 -0.246431
H1    H     H_    0.234428 0.601447 0.146653 0.187754
H2    H     H_    0.166574 0.643651 0.360128 0.139885
H3    H     H_    0.299148 0.698359 0.812048 0.185476
H4    H     H_    0.540059 0.438642 0.173351 0.157471
H5    H     H_    0.775441 0.426992 0.859446 0.160949
H6    H     H_    0.697638 0.458591 0.143418 0.138164
H7    H     H_    0.831867 0.407886 0.060893 0.152868
H8    H     H_    0.443637 0.655365 0.740629 0.161858
H9    H     H_    0.345562 0.829974 0.423218 0.159100
H10   H     H_    0.906414 0.136069 0.581658 0.348644
H11   H     H_    0.279411 0.224552 0.639424 0.341377
H12   H     H_    0.733442 0.815636 0.574514 0.195869
H13   H     H_    0.040089 0.765548 0.936573 0.360689
H14   H     H_    0.250757 0.991699 0.395626 0.149948
H15   H     H_    0.267279 0.180986 0.413606 0.196843
H16   H     H_    0.654226 0.172893 0.582134 0.185005
H17   H     H_    0.785986 0.602681 0.401201 0.127038
H18   H     H_    0.831262 0.356560 0.639640 0.129321
H19   H     H_    0.957055 0.661546 0.343478 0.154230
H20   H     H_    0.038837 0.337077 0.657616 0.159925
N1    N     N_R   0.798200 0.480260 0.519790 -0.101695
N2    N     N_R   0.201820 0.519740 0.480210 -0.141731
O1    O     O_R   0.579910 0.341070 0.505280 -0.619711
O2    O     O_R   0.818131 0.110690 0.545728 -0.811720
O3    O     O_2   0.291783 0.392802 0.716145 -0.619988
O4    O     O_R   0.226155 0.273787 0.579811 -0.818145
O5    O     O_2   0.113002 0.656575 0.836435 -0.621893
O6    O     O_R   0.117859 0.734274 0.989544 -0.805688
O7    O     O_R   0.388440 0.353740 0.492580 -0.596881
O8    O     O_R   0.643280 0.490550 0.663120 -0.621637
O9    O     O_R   0.451810 0.503220 0.650420 -0.592708
O10   O     O_R   0.611560 0.646260 0.507420 -0.617995
O11   O     O_R   0.420090 0.658930 0.494720 -0.636723
O12   O     O_R   0.548190 0.496780 0.349580 -0.617541
O13   O     O_R   0.356720 0.509450 0.336880 -0.622211
O14   O     O_2   0.873513 0.977222 0.673681 -0.613421
Zn1   Zn    Zn3+2 0.627850 0.491540 0.508480 0.957994
Zn2   Zn    Zn3+2 0.372150 0.508460 0.491520 0.967380

loop_
_geom_bond_atom_site_label_1
_geom_bond_atom_site_label_2
_ccdc_geom_bond_type
H10   O2    S    
C30   H6    S    
C36   H3    S    
C35   C36   A    
C16   O11   A    
C14   C31   S    
C1    O1    A    
C22   H18   S    
C4    O9    A    
C12   C23   A    
O11   Zn2   S    
C1    C5    S    
C36   C37   A    
C18   C19   A    
C22   N1    A    
O10   Zn1   S    
C26   C39   A    
C27   C38   A    
C1    O7    A    
O8    Zn1   S    
C34   C35   A    
C17   N2    A    
C13   H12   S    
C19   C20   A    
C27   C39   A    
C8    C9    A    
O13   Zn2   S    
C37   H8    S    
C9    C10   A    
C3    C13   A    
C13   C14   A    
O9    Zn2   S    
O1    Zn1   S    
C11   H9    S    
C16   O10   A    
C8    H16   S    
C4    O8    A    
C33   O5    D    
C15   C20   A    
C25   O13   A    
C31   O2    S    
C32   O3    D    
C21   N1    A    
N2    Zn2   S    
C39   H1    S    
C5    C7    A    
C23   C37   A    
N1    Zn1   S    
C2    C4    S    
C9    C14   A    
C29   C30   A    
C5    C8    A    
C26   C33   S    
C31   O14   D    
H13   O6    S    
C15   H19   S    
C22   C24   A    
C18   C32   S    
C6    H14   S    
C12   C34   A    
C33   O6    S    
O7    Zn2   S    
C15   C17   A    
C28   C29   A    
C12   C30   A    
C34   C38   A    
C6    C10   A    
C21   H17   S    
C18   N2    A    
C6    C7    A    
C25   C27   S    
C29   H7    S    
C19   C24   A    
C38   H4    S    
C24   H20   S    
O12   Zn1   S    
C28   H5    S    
C25   O12   A    
H11   O4    S    
C17   H2    S    
C3    C11   A    
C10   C11   A    
C26   C35   A    
C20   C21   A    
C2    C23   A    
C2    C28   A    
C7    H15   S    
C3    C16   S    
C32   O4    S    
