data_mof_unit_60771.cif
_audit_creation_date              2012-12-10T18:34:23-0500
_audit_creation_method            fapswitch 2.2
_symmetry_space_group_name_H-M    P1
_symmetry_Int_Tables_number       1
_space_group_crystal_system       triclinic
_cell_length_a                    36.132559
_cell_length_b                    36.132343
_cell_length_c                    25.551211
_cell_angle_alpha                 89.999987
_cell_angle_beta                  134.993446
_cell_angle_gamma                 90.0
_cell_volume                      23590.7097944

loop_
_atom_site_label
_atom_site_type_symbol
_atom_type_description
_atom_site_fract_x
_atom_site_fract_y
_atom_site_fract_z
_atom_type_partial_charge
Br1   Br    Br    0.520014 0.829261 0.080779 -0.554328
Br2   Br    Br    0.520018 0.170738 0.080779 -0.554328
Br3   Br    Br    0.020014 0.329261 0.080779 -0.554329
Br4   Br    Br    0.020016 0.670739 0.080779 -0.554328
C1    C     C_R   0.849703 0.750057 0.699341 0.825109
C2    C     C_3   0.536551 0.249984 0.499977 0.348808
C3    C     C_3   0.278843 0.521476 0.577746 -0.390960
C4    C     C_3   0.777959 0.978523 0.478437 -0.388329
C5    C     C_3   0.777959 0.021477 0.478437 -0.388329
C6    C     C_3   0.277959 0.478523 0.478436 -0.388327
C7    C     C_3   0.277959 0.521477 0.478437 -0.388328
C8    C     C_1   0.750004 0.110610 0.499965 -0.138963
C9    C     C_1   0.750004 0.889390 0.499964 -0.138963
C10   C     C_1   0.250004 0.610610 0.499965 -0.138963
C11   C     C_1   0.250004 0.389390 0.499964 -0.138963
C12   C     C_3   0.749990 0.963486 0.499941 0.344712
C13   C     C_3   0.036551 0.250016 0.499977 0.348806
C14   C     C_3   0.749990 0.036514 0.499941 0.344712
C15   C     C_3   0.249990 0.463486 0.499941 0.344712
C16   C     C_3   0.249990 0.536514 0.499941 0.344712
C17   C     C_3   0.693167 0.021477 0.443637 -0.385607
C18   C     C_3   0.693167 0.978523 0.443637 -0.385605
C19   C     C_3   0.193166 0.521477 0.443637 -0.385608
C20   C     C_3   0.193167 0.478523 0.443637 -0.385606
C21   C     C_1   0.749994 0.077257 0.499948 -0.124519
C22   C     C_1   0.749994 0.922743 0.499948 -0.124519
C23   C     C_1   0.249994 0.577257 0.499948 -0.124519
C24   C     C_3   0.036551 0.749984 0.499977 0.348808
C25   C     C_1   0.249994 0.422743 0.499948 -0.124519
C26   C     C_3   0.798589 0.521479 0.578097 -0.386753
C27   C     C_3   0.798589 0.478521 0.578097 -0.386753
C28   C     C_3   0.298593 0.021479 0.578094 -0.386753
C29   C     C_3   0.298593 0.978520 0.578094 -0.386754
C30   C     C_3   0.700198 0.521479 0.477365 -0.389588
C31   C     C_3   0.700198 0.478521 0.477365 -0.389587
C32   C     C_3   0.200202 0.021479 0.477375 -0.389588
C33   C     C_3   0.200202 0.978521 0.477375 -0.389587
C34   C     C_1   0.750068 0.389343 0.500004 -0.144095
C35   C     C_3   0.488614 0.788898 0.520127 -0.389892
C36   C     C_1   0.750068 0.610657 0.500004 -0.144095
C37   C     C_1   0.250068 0.889343 0.500004 -0.144095
C38   C     C_1   0.250068 0.110657 0.500004 -0.144095
C39   C     C_R   0.750018 0.849719 0.499989 0.829711
C40   C     C_R   0.750018 0.150281 0.499989 0.829712
C41   C     C_R   0.250018 0.349719 0.499989 0.829711
C42   C     C_R   0.250018 0.650281 0.499989 0.829712
C43   C     C_3   0.750074 0.536528 0.500008 0.348552
C44   C     C_3   0.750074 0.463472 0.500008 0.348551
C45   C     C_3   0.250074 0.036528 0.500008 0.348552
C46   C     C_3   0.488810 0.211153 0.520520 -0.389875
C47   C     C_3   0.250074 0.963472 0.500008 0.348552
C48   C     C_3   0.751436 0.478521 0.444561 -0.391543
C49   C     C_3   0.751436 0.521479 0.444561 -0.391544
C50   C     C_3   0.251429 0.978521 0.444554 -0.391546
C51   C     C_3   0.251428 0.021479 0.444553 -0.391544
C52   C     C_1   0.750073 0.422708 0.500007 -0.128375
C53   C     C_1   0.750073 0.577292 0.500007 -0.128375
C54   C     C_1   0.250073 0.922708 0.500007 -0.128375
C55   C     C_1   0.250072 0.077292 0.500007 -0.128375
C56   C     C_R   0.849722 0.750030 0.499989 0.823312
C57   C     C_3   0.988576 0.288908 0.520052 -0.389890
C58   C     C_R   0.849722 0.249970 0.499989 0.823310
C59   C     C_R   0.349722 0.250030 0.499989 0.823312
C60   C     C_R   0.349722 0.749970 0.499989 0.823312
C61   C     C_R   0.650354 0.750048 0.499998 0.829917
C62   C     C_R   0.650354 0.249952 0.499998 0.829919
C63   C     C_R   0.150354 0.250048 0.499998 0.829917
C64   C     C_R   0.150354 0.749952 0.499998 0.829919
C65   C     C_3   0.531568 0.788912 0.520125 -0.388931
C66   C     C_3   0.531765 0.211139 0.520518 -0.388936
C67   C     C_3   0.031529 0.288923 0.520047 -0.388933
C68   C     C_3   0.988810 0.711153 0.520520 -0.389875
C69   C     C_3   0.031765 0.711139 0.520518 -0.388936
C70   C     C_3   0.482793 0.739286 0.422535 -0.388238
C71   C     C_3   0.482740 0.260518 0.422428 -0.388233
C72   C     C_3   0.982805 0.239247 0.422557 -0.388238
C73   C     C_3   0.982740 0.760518 0.422428 -0.388233
C74   C     C_3   0.439835 0.739277 0.422529 -0.389336
C75   C     C_3   0.439781 0.260527 0.422421 -0.389348
C76   C     C_3   0.939845 0.239239 0.422549 -0.389329
C77   C     C_3   0.939781 0.760527 0.422421 -0.389348
C78   C     C_3   0.463506 0.749993 0.499971 0.349977
C79   C     C_3   0.463506 0.250007 0.499970 0.349979
C80   C     C_3   0.963506 0.249993 0.499970 0.349979
C81   C     C_R   0.849703 0.249943 0.699341 0.825109
C82   C     C_3   0.963506 0.750007 0.499970 0.349979
C83   C     C_3   0.507199 0.721818 0.557259 -0.390916
C84   C     C_3   0.507057 0.278326 0.556974 -0.390917
C85   C     C_3   0.007227 0.221846 0.557314 -0.390912
C86   C     C_3   0.007057 0.778326 0.556974 -0.390917
C87   C     C_3   0.550159 0.721834 0.557268 -0.390909
C88   C     C_3   0.550017 0.278310 0.556982 -0.390913
C89   C     C_3   0.050187 0.221863 0.557324 -0.390912
C90   C     C_3   0.050016 0.778310 0.556982 -0.390913
C91   C     C_1   0.422753 0.749981 0.499970 -0.129190
C92   C     C_R   0.349703 0.250057 0.699341 0.825109
C93   C     C_1   0.422753 0.250020 0.499970 -0.129190
C94   C     C_1   0.922753 0.249980 0.499970 -0.129190
C95   C     C_1   0.922753 0.750019 0.499970 -0.129189
C96   C     C_1   0.577306 0.750029 0.499982 -0.127540
C97   C     C_1   0.577306 0.249971 0.499983 -0.127540
C98   C     C_1   0.077306 0.250029 0.499982 -0.127540
C99   C     C_1   0.077306 0.749971 0.499983 -0.127540
C100  C     C_1   0.610668 0.750039 0.499989 -0.143121
C101  C     C_1   0.610668 0.249961 0.499989 -0.143121
C102  C     C_1   0.110668 0.250039 0.499989 -0.143121
C103  C     C_R   0.349703 0.749943 0.699341 0.825109
C104  C     C_1   0.110668 0.749961 0.499989 -0.143120
C105  C     C_3   0.482418 0.740090 0.042800 -0.366395
C106  C     C_3   0.482417 0.259908 0.042800 -0.366394
C107  C     C_3   0.982418 0.240090 0.042800 -0.366395
C108  C     C_3   0.982418 0.759909 0.042800 -0.366394
C109  C     C_R   0.650398 0.750014 0.300659 0.828294
C110  C     C_R   0.650398 0.249986 0.300659 0.828294
C111  C     C_R   0.150398 0.250014 0.300659 0.828294
C112  C     C_R   0.150398 0.749985 0.300659 0.828294
C113  C     C_3   0.532208 0.789493 0.042510 0.136534
C114  C     C_1   0.389397 0.749974 0.499975 -0.144198
C115  C     C_3   0.532210 0.210507 0.042510 0.136534
C116  C     C_3   0.032208 0.289493 0.042510 0.136534
C117  C     C_3   0.032209 0.710507 0.042510 0.136532
C118  C     C_3   0.488641 0.789266 0.956406 -0.407348
C119  C     C_3   0.488643 0.210734 0.956406 -0.407348
C120  C     C_3   0.988641 0.289266 0.956406 -0.407347
C121  C     C_3   0.988642 0.710734 0.956406 -0.407346
C122  C     C_1   0.389326 0.750014 0.778686 -0.144230
C123  C     C_1   0.389326 0.249986 0.778686 -0.144230
C124  C     C_1   0.889326 0.250014 0.778686 -0.144230
C125  C     C_1   0.389397 0.250026 0.499975 -0.144199
C126  C     C_1   0.889326 0.749986 0.778686 -0.144230
C127  C     C_3   0.536320 0.750720 0.073062 0.274263
C128  C     C_3   0.536320 0.249280 0.073062 0.274263
C129  C     C_3   0.036320 0.250720 0.073062 0.274262
C130  C     C_3   0.036320 0.749280 0.073062 0.274263
C131  C     C_3   0.439484 0.740305 0.956939 -0.387744
C132  C     C_3   0.439484 0.259693 0.956939 -0.387743
C133  C     C_3   0.939484 0.240305 0.956939 -0.387743
C134  C     C_3   0.939484 0.759694 0.956939 -0.387741
C135  C     C_3   0.463355 0.750384 0.926885 0.298340
C136  C     C_1   0.889397 0.249973 0.499975 -0.144200
C137  C     C_3   0.463355 0.249616 0.926885 0.298340
C138  C     C_3   0.963355 0.250384 0.926885 0.298340
C139  C     C_3   0.963355 0.749616 0.926885 0.298340
C140  C     C_3   0.506821 0.721919 0.957298 -0.396855
C141  C     C_3   0.506819 0.278082 0.957298 -0.396856
C142  C     C_3   0.006821 0.221919 0.957298 -0.396854
C143  C     C_3   0.006820 0.778081 0.957298 -0.396856
C144  C     C_3   0.549620 0.722025 0.043177 -0.470329
C145  C     C_3   0.549619 0.277976 0.043177 -0.470329
C146  C     C_3   0.049620 0.222025 0.043177 -0.470330
C147  C     C_1   0.889397 0.750026 0.499975 -0.144199
C148  C     C_3   0.049619 0.777975 0.043177 -0.470330
C149  C     C_1   0.422642 0.750141 0.845388 -0.107583
C150  C     C_1   0.422642 0.249859 0.845388 -0.107583
C151  C     C_1   0.922642 0.250141 0.845388 -0.107583
C152  C     C_1   0.922642 0.749858 0.845388 -0.107583
C153  C     C_1   0.577215 0.750333 0.154622 -0.064621
C154  C     C_1   0.577215 0.249667 0.154622 -0.064621
C155  C     C_1   0.077215 0.250333 0.154622 -0.064621
C156  C     C_1   0.077215 0.749667 0.154622 -0.064621
C157  C     C_R   0.750059 0.650350 0.500000 0.825477
C158  C     C_3   0.536550 0.750016 0.499977 0.348809
C159  C     C_R   0.750059 0.349650 0.500000 0.825477
C160  C     C_R   0.250059 0.150350 0.500000 0.825477
C161  C     C_R   0.250059 0.849650 0.500000 0.825477
C162  C     C_1   0.610647 0.750124 0.221322 -0.115644
C163  C     C_1   0.610648 0.249876 0.221322 -0.115644
C164  C     C_1   0.110647 0.250124 0.221322 -0.115644
C165  C     C_1   0.110647 0.749876 0.221322 -0.115644
C166  C     C_3   0.778842 0.978524 0.577746 -0.390960
C167  C     C_3   0.778842 0.021476 0.577746 -0.390961
C168  C     C_3   0.278843 0.478523 0.577746 -0.390960
H1    H     H_    0.458089 0.809715 0.479646 0.165927
H2    H     H_    0.506374 0.202930 0.576210 0.168523
H3    H     H_    0.198308 0.968243 0.516504 0.166750
H4    H     H_    0.716861 0.531757 0.387837 0.165275
H5    H     H_    0.716862 0.468243 0.387837 0.165274
H6    H     H_    0.216850 0.031757 0.387831 0.165275
H7    H     H_    0.216851 0.968243 0.387831 0.165276
H8    H     H_    0.835062 0.531757 0.595697 0.169683
H9    H     H_    0.835062 0.468243 0.595697 0.169683
H10   H     H_    0.335064 0.031757 0.595687 0.169683
H11   H     H_    0.335064 0.968243 0.595687 0.169683
H12   H     H_    0.471919 0.759182 0.380234 0.168154
H13   H     H_    0.006092 0.297299 0.575643 0.168526
H14   H     H_    0.471967 0.240515 0.380330 0.168147
H15   H     H_    0.971912 0.259122 0.380217 0.168156
H16   H     H_    0.971967 0.740515 0.380330 0.168147
H17   H     H_    0.408409 0.759175 0.380236 0.166417
H18   H     H_    0.408456 0.240523 0.380330 0.166401
H19   H     H_    0.908401 0.259117 0.380217 0.166417
H20   H     H_    0.908456 0.740523 0.380330 0.166401
H21   H     H_    0.421653 0.711333 0.406710 0.169012
H22   H     H_    0.421459 0.288431 0.406321 0.169018
H23   H     H_    0.921689 0.211289 0.406782 0.169008
H24   H     H_    0.006374 0.702930 0.576210 0.168523
H25   H     H_    0.921459 0.788431 0.406321 0.169018
H26   H     H_    0.588578 0.728964 0.613563 0.166853
H27   H     H_    0.588471 0.271323 0.613349 0.166841
H28   H     H_    0.088598 0.229022 0.613605 0.166859
H29   H     H_    0.088471 0.771323 0.613349 0.166841
H30   H     H_    0.553798 0.693571 0.543966 0.166327
H31   H     H_    0.553511 0.306540 0.543394 0.166340
H32   H     H_    0.053855 0.193593 0.544080 0.166324
H33   H     H_    0.053511 0.806540 0.543394 0.166340
H34   H     H_    0.525061 0.728936 0.613552 0.166305
H35   H     H_    0.490275 0.693548 0.543944 0.166130
H36   H     H_    0.524955 0.271350 0.613339 0.166288
H37   H     H_    0.025082 0.228991 0.613594 0.166305
H38   H     H_    0.024955 0.771350 0.613339 0.166288
H39   H     H_    0.759430 0.968245 0.594524 0.168323
H40   H     H_    0.759430 0.031754 0.594523 0.168324
H41   H     H_    0.259430 0.468245 0.594524 0.168324
H42   H     H_    0.259430 0.531755 0.594524 0.168324
H43   H     H_    0.787033 0.531757 0.459679 0.166096
H44   H     H_    0.787034 0.468243 0.459680 0.166096
H45   H     H_    0.287023 0.031757 0.459664 0.166096
H46   H     H_    0.489990 0.306562 0.543373 0.166147
H47   H     H_    0.287023 0.968243 0.459665 0.166097
H48   H     H_    0.990330 0.193569 0.544052 0.166127
H49   H     H_    0.989990 0.806562 0.543373 0.166147
H50   H     H_    0.408535 0.760641 0.936612 0.181569
H51   H     H_    0.408535 0.239356 0.936612 0.181569
H52   H     H_    0.908535 0.260641 0.936612 0.181569
H53   H     H_    0.458391 0.190235 0.480250 0.165936
H54   H     H_    0.908535 0.739357 0.936612 0.181569
H55   H     H_    0.471472 0.759598 0.063681 0.208719
H56   H     H_    0.471473 0.240399 0.063681 0.208718
H57   H     H_    0.971472 0.259598 0.063681 0.208719
H58   H     H_    0.971473 0.740400 0.063681 0.208718
H59   H     H_    0.570232 0.796011 0.061364 0.125625
H60   H     H_    0.570234 0.203991 0.061365 0.125624
H61   H     H_    0.070232 0.296011 0.061364 0.125625
H62   H     H_    0.070233 0.703990 0.061365 0.125624
H63   H     H_    0.457905 0.810064 0.934928 0.208323
H64   H     H_    0.958031 0.309705 0.479532 0.165925
H65   H     H_    0.457908 0.189935 0.934928 0.208323
H66   H     H_    0.957905 0.310064 0.934928 0.208323
H67   H     H_    0.957907 0.689935 0.934928 0.208322
H68   H     H_    0.505875 0.797280 0.935263 0.152906
H69   H     H_    0.505877 0.202722 0.935263 0.152905
H70   H     H_    0.005875 0.297280 0.935263 0.152906
H71   H     H_    0.005876 0.702721 0.935263 0.152905
H72   H     H_    0.552807 0.693872 0.063769 0.184000
H73   H     H_    0.552805 0.306129 0.063769 0.184000
H74   H     H_    0.052807 0.193872 0.063769 0.184000
H75   H     H_    0.958391 0.690235 0.480250 0.165936
H76   H     H_    0.052806 0.806128 0.063769 0.184000
H77   H     H_    0.521596 0.809733 0.479637 0.167258
H78   H     H_    0.521898 0.190216 0.480242 0.167260
H79   H     H_    0.021534 0.309723 0.479515 0.167258
H80   H     H_    0.021898 0.690216 0.480242 0.167260
H81   H     H_    0.588209 0.728652 0.063847 0.169780
H82   H     H_    0.588208 0.271350 0.063847 0.169780
H83   H     H_    0.088209 0.228652 0.063847 0.169780
H84   H     H_    0.088208 0.771349 0.063847 0.169780
H85   H     H_    0.489638 0.693707 0.936852 0.175660
H86   H     H_    0.569644 0.797287 0.575728 0.168336
H87   H     H_    0.489635 0.306294 0.936852 0.175661
H88   H     H_    0.989638 0.193707 0.936852 0.175660
H89   H     H_    0.989636 0.806294 0.936852 0.175661
H90   H     H_    0.484680 0.712036 0.062919 0.162163
H91   H     H_    0.484678 0.287962 0.062919 0.162163
H92   H     H_    0.984680 0.212036 0.062919 0.162163
H93   H     H_    0.984679 0.787963 0.062919 0.162163
H94   H     H_    0.420643 0.712566 0.936128 0.168683
H95   H     H_    0.420641 0.287432 0.936128 0.168683
H96   H     H_    0.920643 0.212566 0.936128 0.168683
H97   H     H_    0.569883 0.202905 0.576205 0.168336
H98   H     H_    0.920642 0.787432 0.936128 0.168682
H99   H     H_    0.524880 0.728689 0.936886 0.170545
H100  H     H_    0.524879 0.271314 0.936886 0.170545
H101  H     H_    0.024880 0.228689 0.936886 0.170544
H102  H     H_    0.024879 0.771313 0.936886 0.170545
H103  H     H_    0.819902 0.031754 0.619344 0.164996
H104  H     H_    0.819902 0.968245 0.619344 0.164996
H105  H     H_    0.319903 0.531755 0.619344 0.164996
H106  H     H_    0.319903 0.468245 0.619344 0.164996
H107  H     H_    0.757900 0.968245 0.422549 0.173935
H108  H     H_    0.069597 0.297326 0.575632 0.168335
H109  H     H_    0.757900 0.031755 0.422549 0.173935
H110  H     H_    0.257899 0.468245 0.422548 0.173934
H111  H     H_    0.257899 0.531755 0.422548 0.173935
H112  H     H_    0.819002 0.968245 0.518191 0.165071
H113  H     H_    0.819002 0.031755 0.518191 0.165071
H114  H     H_    0.319002 0.468245 0.518190 0.165070
H115  H     H_    0.319002 0.531755 0.518191 0.165070
H116  H     H_    0.672165 0.968245 0.457927 0.168134
H117  H     H_    0.672165 0.031755 0.457927 0.168135
H118  H     H_    0.172165 0.468245 0.457928 0.168135
H119  H     H_    0.069883 0.702905 0.576205 0.168336
H120  H     H_    0.172165 0.531755 0.457928 0.168135
H121  H     H_    0.671536 0.968245 0.387104 0.176285
H122  H     H_    0.671536 0.031755 0.387104 0.176286
H123  H     H_    0.171535 0.468245 0.387104 0.176285
H124  H     H_    0.171536 0.531755 0.387104 0.176286
H125  H     H_    0.485178 0.711344 0.406735 0.168542
H126  H     H_    0.484984 0.288419 0.406345 0.168551
H127  H     H_    0.985217 0.211297 0.406815 0.168542
H128  H     H_    0.984984 0.788419 0.406345 0.168551
H129  H     H_    0.798521 0.468243 0.619095 0.169149
H130  H     H_    0.506136 0.797263 0.575733 0.168526
H131  H     H_    0.798521 0.531757 0.619095 0.169149
H132  H     H_    0.298530 0.968243 0.619097 0.169150
H133  H     H_    0.298530 0.031757 0.619097 0.169150
H134  H     H_    0.664671 0.531757 0.421251 0.167635
H135  H     H_    0.664671 0.468243 0.421251 0.167636
H136  H     H_    0.164672 0.031757 0.421263 0.167636
H137  H     H_    0.164672 0.968243 0.421263 0.167636
H138  H     H_    0.698300 0.531757 0.516488 0.166750
H139  H     H_    0.698299 0.468243 0.516488 0.166750
H140  H     H_    0.198309 0.031757 0.516504 0.166750
O1    O     O_3   0.750040 0.750040 0.500000 -0.478004
O2    O     O_R   0.750020 0.167970 0.542980 -0.640245
O3    O     O_R   0.250020 0.332030 0.542980 -0.640244
O4    O     O_R   0.250020 0.667970 0.542980 -0.640245
O5    O     O_R   0.853500 0.728560 0.663950 -0.636915
O6    O     O_R   0.853500 0.271440 0.663950 -0.636915
O7    O     O_R   0.353500 0.228560 0.663950 -0.636915
O8    O     O_R   0.353500 0.771440 0.663950 -0.636915
O9    O     O_R   0.689570 0.771520 0.336050 -0.629481
O10   O     O_R   0.689570 0.228480 0.336050 -0.629480
O11   O     O_R   0.189570 0.271520 0.336050 -0.629481
O12   O     O_3   0.750040 0.249960 0.500000 -0.478004
O13   O     O_R   0.189570 0.728480 0.336050 -0.629481
O14   O     O_R   0.810510 0.771550 0.663950 -0.639542
O15   O     O_R   0.810510 0.228450 0.663950 -0.639542
O16   O     O_R   0.310510 0.271550 0.663950 -0.639542
O17   O     O_R   0.310510 0.728450 0.663950 -0.639542
O18   O     O_R   0.646590 0.728530 0.336050 -0.641759
O19   O     O_R   0.646590 0.271470 0.336050 -0.641760
O20   O     O_R   0.146590 0.228530 0.336050 -0.641759
O21   O     O_R   0.146590 0.771470 0.336050 -0.641759
O22   O     O_R   0.793040 0.668060 0.542980 -0.637300
O23   O     O_3   0.250040 0.250040 0.500000 -0.478004
O24   O     O_R   0.793040 0.331940 0.542980 -0.637299
O25   O     O_R   0.293040 0.168060 0.542980 -0.637300
O26   O     O_R   0.293040 0.831940 0.542980 -0.637299
O27   O     O_R   0.750030 0.832020 0.457020 -0.632841
O28   O     O_R   0.750030 0.167980 0.457020 -0.632841
O29   O     O_R   0.250030 0.332020 0.457020 -0.632841
O30   O     O_R   0.250030 0.667980 0.457020 -0.632841
O31   O     O_R   0.853520 0.728540 0.542980 -0.639015
O32   O     O_R   0.853520 0.271460 0.542980 -0.639014
O33   O     O_R   0.353520 0.228540 0.542980 -0.639015
O34   O     O_3   0.250040 0.749960 0.500000 -0.478004
O35   O     O_R   0.353520 0.771460 0.542980 -0.639015
O36   O     O_R   0.689540 0.771550 0.542990 -0.638064
O37   O     O_R   0.689540 0.228450 0.542990 -0.638064
O38   O     O_R   0.189540 0.271550 0.542990 -0.638064
O39   O     O_R   0.189540 0.728450 0.542990 -0.638064
O40   O     O_R   0.810530 0.771520 0.457010 -0.638910
O41   O     O_R   0.810530 0.228480 0.457010 -0.638909
O42   O     O_R   0.310530 0.271520 0.457010 -0.638910
O43   O     O_R   0.310530 0.728480 0.457010 -0.638910
O44   O     O_R   0.646570 0.728550 0.457020 -0.637078
O45   O     O_R   0.707070 0.668050 0.457020 -0.639970
O46   O     O_R   0.646570 0.271450 0.457020 -0.637079
O47   O     O_R   0.146570 0.228550 0.457020 -0.637078
O48   O     O_R   0.146570 0.771450 0.457020 -0.637079
O49   O     O_R   0.707070 0.331950 0.457020 -0.639970
O50   O     O_R   0.207070 0.168050 0.457020 -0.639970
O51   O     O_R   0.207070 0.831950 0.457020 -0.639970
O52   O     O_R   0.750020 0.832030 0.542980 -0.640244
Zn1   Zn    Zn3+2 0.688630 0.719330 0.438590 0.972309
Zn2   Zn    Zn3+2 0.750040 0.219260 0.438590 0.981492
Zn3   Zn    Zn3+2 0.250040 0.280740 0.438590 0.981492
Zn4   Zn    Zn3+2 0.250040 0.719260 0.438590 0.981492
Zn5   Zn    Zn3+2 0.750030 0.780760 0.561410 0.971541
Zn6   Zn    Zn3+2 0.750030 0.219240 0.561410 0.971541
Zn7   Zn    Zn3+2 0.250030 0.280760 0.561410 0.971541
Zn8   Zn    Zn3+2 0.250030 0.719240 0.561410 0.971541
Zn9   Zn    Zn3+2 0.688630 0.280670 0.438590 0.972309
Zn10  Zn    Zn3+2 0.188630 0.219330 0.438590 0.972309
Zn11  Zn    Zn3+2 0.188630 0.780670 0.438590 0.972309
Zn12  Zn    Zn3+2 0.811460 0.719330 0.561410 0.969762
Zn13  Zn    Zn3+2 0.811460 0.280670 0.561410 0.969763
Zn14  Zn    Zn3+2 0.311460 0.219330 0.561410 0.969763
Zn15  Zn    Zn3+2 0.311460 0.780670 0.561410 0.969762
Zn16  Zn    Zn3+2 0.750040 0.780740 0.438590 0.981492

loop_
_geom_bond_atom_site_label_1
_geom_bond_atom_site_label_2
_ccdc_geom_bond_type
C32   H140  S    
C83   C87   S    
C58   O41   A    
C138  C142  S    
O34   Zn4   S    
O49   Zn9   S    
C59   O33   A    
O18   Zn1   S    
C105  H55   S    
C1    O5    A    
C2    C71   S    
C131  C135  S    
C75   H22   S    
C132  H95   S    
C56   O40   A    
C118  C135  S    
C134  C139  S    
O13   Zn4   S    
C137  C150  S    
O45   Zn1   S    
C78   C83   S    
C14   C17   S    
C96   C100  T    
C60   C114  S    
C24   C90   S    
C30   C31   S    
C134  H54   S    
C142  C146  S    
C64   O48   A    
C40   O28   A    
C13   C72   S    
C12   C18   S    
C88   H27   S    
O36   Zn5   S    
C77   C82   S    
C65   H77   S    
C43   C49   S    
C69   H80   S    
C111  O20   A    
C57   C67   S    
C79   C84   S    
C4    C12   S    
C17   C18   S    
C27   H9    S    
C14   C21   S    
C84   H36   S    
C24   C69   S    
C67   H79   S    
C154  C163  T    
C157  O22   A    
O40   Zn16  S    
C108  C134  S    
C89   H28   S    
C51   H45   S    
C82   C86   S    
C109  C162  S    
C148  H84   S    
C29   H132  S    
C111  O11   A    
C92   C123  S    
C74   H21   S    
C132  C137  S    
C33   H3    S    
C74   C78   S    
C119  C137  S    
C90   H29   S    
C15   C168  S    
C82   C95   S    
O23   Zn3   S    
C88   H31   S    
O11   Zn3   S    
C1    C126  S    
C27   C44   S    
C62   O37   A    
C51   H6    S    
O47   Zn10  S    
C117  C130  S    
C19   H124  S    
C107  C133  S    
C134  H98   S    
O42   Zn3   S    
C108  C130  S    
C68   C69   S    
O29   Zn3   S    
C57   C80   S    
C68   H24   S    
C159  O49   A    
C115  C119  S    
C5    H113  S    
C160  O25   A    
O34   Zn11  S    
C6    H110  S    
C71   H126  S    
C46   C66   S    
C7    H115  S    
O31   Zn12  S    
C8    C40   S    
C106  H56   S    
C77   H25   S    
O41   Zn2   S    
C2    C88   S    
O43   Zn4   S    
C56   O31   A    
C30   H134  S    
C167  H103  S    
C31   H139  S    
C44   C48   S    
C117  H62   S    
C92   O16   A    
C26   H8    S    
C126  C152  T    
C105  H90   S    
C3    H105  S    
C18   H121  S    
C71   C75   S    
O6    Zn13  S    
C130  C156  S    
C133  C138  S    
C105  C131  S    
C106  C132  S    
C112  O21   A    
C113  C118  S    
C110  C163  S    
C133  H52   S    
C32   C33   S    
C37   C54   T    
C116  C129  S    
O12   Zn9   S    
C38   C160  S    
C46   C79   S    
C70   H12   S    
C166  C167  S    
C48   H5    S    
O1    Zn1   S    
C61   O44   A    
C19   C20   S    
C87   C158  S    
O34   Zn8   S    
C143  H89   S    
O50   Zn10  S    
C74   H17   S    
C123  C150  T    
C161  O51   A    
O24   Zn13  S    
C65   C158  S    
C86   H49   S    
C27   H129  S    
C70   C158  S    
C85   H37   S    
C45   C51   S    
O28   Zn2   S    
O52   Zn5   S    
C61   O36   A    
O30   Zn4   S    
C13   C98   S    
C117  C121  S    
C140  H85   S    
C116  H61   S    
C43   C53   S    
C120  H66   S    
C62   O46   A    
C16   C19   S    
C57   H13   S    
C35   C65   S    
Br1   C113  S    
O10   Zn2   S    
C106  C128  S    
C24   C73   S    
C106  H91   S    
C34   C159  S    
C13   C67   S    
C79   C93   S    
O27   Zn16  S    
C9    C22   T    
C71   H14   S    
C13   C89   S    
C62   C101  S    
C119  H69   S    
C4    H107  S    
C48   C49   S    
C146  H74   S    
C50   C51   S    
C78   C91   S    
C129  C146  S    
C72   C76   S    
C35   C78   S    
O21   Zn11  S    
C38   C55   T    
C63   O38   A    
C137  C141  S    
C107  H92   S    
C45   C55   S    
C109  O18   A    
C167  H40   S    
C146  H83   S    
C121  C139  S    
C107  H57   S    
C84   H46   S    
C85   C89   S    
C113  C127  S    
C141  C145  S    
C28   C45   S    
C3    H42   S    
C6    C7    S    
C26   H131  S    
C34   C52   T    
O3    Zn7   S    
C144  H72   S    
C73   H16   S    
C81   C124  S    
C96   C158  S    
C58   C136  S    
C111  C164  S    
C3    C168  S    
C160  O50   A    
C108  H93   S    
C20   H118  S    
O12   Zn6   S    
C119  H65   S    
C103  O8    A    
O23   Zn7   S    
O34   Zn15  S    
C6    H114  S    
C41   O29   A    
O19   Zn9   S    
C7    H111  S    
C76   C80   S    
C50   H47   S    
C10   C42   S    
C14   C167  S    
O16   Zn7   S    
O14   Zn5   S    
O17   Zn8   S    
C141  H100  S    
C30   H138  S    
C31   H135  S    
C26   C27   S    
C4    H112  S    
C133  H96   S    
C141  H87   S    
O33   Zn14  S    
C135  C149  S    
O23   Zn10  S    
C48   H44   S    
C108  H58   S    
C50   H7    S    
O9    Zn16  S    
C127  C153  S    
C41   O3    A    
C87   H26   S    
C142  H88   S    
C105  C127  S    
C131  H94   S    
C156  C165  T    
C86   C90   S    
C10   C23   T    
C66   H78   S    
O48   Zn11  S    
C118  H63   S    
O44   Zn1   S    
C49   H43   S    
O35   Zn15  S    
C128  C145  S    
C157  O45   A    
C31   C44   S    
C11   C25   T    
C39   O52   A    
C12   C22   S    
C7    C16   S    
C40   O2    A    
C66   H97   S    
O1    Zn5   S    
C113  H59   S    
O20   Zn10  S    
C129  C155  S    
O22   Zn12  S    
C83   H34   S    
C72   H127  S    
C39   O27   A    
C73   C77   S    
C6    C15   S    
C130  C148  S    
C63   O47   A    
C69   H119  S    
C47   C54   S    
O12   Zn2   S    
C112  O13   A    
C72   H15   S    
C115  H60   S    
O1    Zn12  S    
C59   O42   A    
C76   H19   S    
C17   H117  S    
C168  H41   S    
C15   C25   S    
C9    C39   S    
O7    Zn14  S    
C2    C66   S    
C76   H23   S    
C145  H73   S    
C36   C53   T    
O12   Zn13  S    
C68   C82   S    
O38   Zn7   S    
C63   C102  S    
C16   C23   S    
C29   C47   S    
C8    C21   T    
C32   H136  S    
C28   C29   S    
C15   C20   S    
C80   C94   S    
C36   C157  S    
C85   H48   S    
C75   C79   S    
C24   C99   S    
Br4   C117  S    
O37   Zn6   S    
C59   C125  S    
C128  C154  S    
C148  H76   S    
C122  C149  T    
C12   C166  S    
C3    C16   S    
C70   C74   S    
C46   H53   S    
C30   C43   S    
C42   O30   A    
C58   O32   A    
C56   C147  S    
C168  H106  S    
C32   C45   S    
C1    O14   A    
C140  C144  S    
C142  H101  S    
C166  H104  S    
C139  C143  S    
C68   H75   S    
C28   H10   S    
C33   C47   S    
C159  O24   A    
C155  C164  T    
C2    C97   S    
C89   H32   S    
C110  O19   A    
C124  C151  T    
C42   O4    A    
C81   O6    A    
C166  H39   S    
C84   C88   S    
C4    C5    S    
C75   H18   S    
C37   C161  S    
C29   H11   S    
C103  O17   A    
C99   C104  T    
C138  C151  S    
C121  H67   S    
C144  H81   S    
O5    Zn12  S    
C120  C138  S    
C90   H33   S    
C92   O7    A    
O51   Zn11  S    
C91   C114  T    
C97   C101  T    
C161  O26   A    
O23   Zn14  S    
C118  H68   S    
C64   O39   A    
C26   C43   S    
C140  H99   S    
C19   H120  S    
C86   H38   S    
C107  C129  S    
C60   O35   A    
C145  H82   S    
C95   C147  T    
O15   Zn6   S    
C94   C136  T    
C77   H20   S    
C135  C140  S    
C5    C14   S    
C35   H1    S    
O39   Zn8   S    
C115  C128  S    
C5    H109  S    
C127  C144  S    
C83   H35   S    
O46   Zn9   S    
C18   H116  S    
C28   H133  S    
C73   H128  S    
O4    Zn8   S    
C80   C85   S    
C11   C41   S    
C120  H70   S    
O26   Zn15  S    
C20   H123  S    
C44   C52   S    
C131  H50   S    
C60   O43   A    
C17   H122  S    
C103  C122  S    
C35   H130  S    
O32   Zn13  S    
C153  C162  T    
Br2   C115  S    
C87   H30   S    
O8    Zn15  S    
C110  O10   A    
C67   H108  S    
O25   Zn14  S    
C46   H2    S    
C47   C50   S    
C33   H137  S    
C143  C148  S    
C93   C125  T    
O1    Zn16  S    
C139  C152  S    
C132  H51   S    
C109  O9    A    
C112  C165  S    
C121  H71   S    
C143  H102  S    
Br3   C116  S    
C98   C102  T    
O2    Zn6   S    
C57   H64   S    
C70   H125  S    
C64   C104  S    
C61   C100  S    
C81   O15   A    
C116  C120  S    
C49   H4    S    
C65   H86   S    
