data_mof_unit_7847.cif
_audit_creation_date              2013-03-05T16:48:18-0500
_audit_creation_method            fapswitch 2.2
_symmetry_space_group_name_H-M    P1
_symmetry_Int_Tables_number       1
_space_group_crystal_system       triclinic
_cell_length_a                    23.41953
_cell_length_b                    8.914071
_cell_length_c                    8.101714
_cell_angle_alpha                 89.851323
_cell_angle_beta                  90.000033
_cell_angle_gamma                 90.000129
_cell_volume                      1691.33528702

loop_
_atom_site_label
_atom_site_type_symbol
_atom_site_description
_atom_site_fract_x
_atom_site_fract_y
_atom_site_fract_z
_atom_type_partial_charge
O1    O     O_R   0.500000 0.285350 0.636850 -0.615477
O2    O     O_R   0.500000 0.714650 0.363150 -0.615484
O3    O     O_R   0.500000 0.714650 0.636850 -0.610903
O4    O     O_R   0.500000 0.285350 0.363150 -0.610911
H1    H     H_    0.948131 0.380387 0.897082 0.198793
H2    H     H_    0.051865 0.619962 0.102955 0.198792
H3    H     H_    0.948131 0.619961 0.102955 0.198791
H4    H     H_    0.051865 0.380372 0.897076 0.198796
C1    C     C_R   0.499999 0.218004 0.500138 0.941435
C2    C     C_R   0.499999 0.781996 0.499862 0.941438
O5    O     O_R   0.416160 0.500000 0.636910 -0.611345
O6    O     O_R   0.583840 0.500000 0.363090 -0.611344
O7    O     O_R   0.583840 0.500000 0.636910 -0.611344
O8    O     O_R   0.416160 0.500000 0.363090 -0.611345
C3    C     C_R   0.208527 0.500104 0.499994 0.202635
C4    C     C_R   0.791470 0.500117 0.500000 0.202647
C5    C     C_R   0.389362 0.500001 0.500000 0.885063
C6    C     C_R   0.610638 0.500002 0.500000 0.885096
Zn1   Zn    Zn3+2 0.500000 0.500000 0.682780 1.025732
Zn2   Zn    Zn3+2 0.500000 0.500000 0.317220 1.025727
C7    C     C_R   0.297774 0.626539 0.559280 -0.090258
C8    C     C_R   0.702246 0.373480 0.440953 -0.090263
C9    C     C_R   0.297753 0.373565 0.440712 -0.090263
C10   C     C_R   0.702223 0.626638 0.559045 -0.090258
C11   C     C_R   0.327378 0.500034 0.499999 -0.128207
C12   C     C_R   0.672621 0.500039 0.500001 -0.128171
C13   C     C_R   0.880507 0.542627 0.359747 0.524333
C14   C     C_R   0.119489 0.457666 0.640269 0.524316
C15   C     C_R   0.880507 0.457695 0.640281 0.524329
C16   C     C_R   0.119488 0.542628 0.359746 0.524314
N1    N     N_R   0.852361 0.500151 0.500011 -0.358371
N2    N     N_R   0.147637 0.500135 0.500004 -0.358364
C17   C     C_R   0.940100 0.456931 0.643423 -0.015970
C18   C     C_R   0.059896 0.543409 0.356611 -0.015976
C19   C     C_R   0.940100 0.543411 0.356612 -0.015972
C20   C     C_R   0.059897 0.456916 0.643417 -0.015973
C21   C     C_R   0.970013 0.500172 0.500017 -0.015848
C22   C     C_R   0.029983 0.500168 0.500015 -0.015851
C23   C     C_R   0.970283 0.414088 0.785618 -0.162919
C24   C     C_R   0.029714 0.586259 0.214418 -0.162910
C25   C     C_R   0.970282 0.586258 0.214418 -0.162913
C26   C     C_R   0.029714 0.414079 0.785614 -0.162909
C27   C     C_1   0.499999 0.065227 0.500203 -0.146801
C28   C     C_1   0.499999 0.934773 0.499796 -0.146787
C29   C     C_R   0.238008 0.626499 0.558438 -0.004958
C30   C     C_R   0.762012 0.373597 0.441791 -0.004948
C31   C     C_R   0.237987 0.373676 0.441548 -0.004961
C32   C     C_R   0.761989 0.626599 0.558208 -0.004943
N3    N     N_1   0.500000 0.500000 0.073640 -0.019677
N4    N     N_1   0.500000 0.500000 0.926360 -0.019677
O9    O     O_2   0.850730 0.583819 0.224358 -0.523513
O10   O     O_2   0.149266 0.416436 0.775646 -0.523525
O11   O     O_2   0.850730 0.416493 0.775667 -0.523512
O12   O     O_2   0.149266 0.583842 0.224365 -0.523526
C33   C     C_1   0.206336 0.755808 0.616225 0.237831
N5    N     N_1   0.181004 0.859011 0.662301 -0.155920
C34   C     C_1   0.793706 0.244242 0.384231 0.237810
N6    N     N_1   0.819056 0.141003 0.338337 -0.155940
C35   C     C_1   0.206294 0.244405 0.383757 0.237828
N7    N     N_1   0.180945 0.141233 0.337677 -0.155916
C36   C     C_1   0.793659 0.755994 0.615767 0.237820
N8    N     N_1   0.818991 0.859264 0.661663 -0.155942
C37   C     C_1   0.328719 0.757377 0.617158 0.203322
N9    N     N_1   0.353397 0.861693 0.663216 -0.179159
C38   C     C_1   0.671321 0.242522 0.383309 0.203290
N10   N     N_1   0.646660 0.138111 0.337436 -0.179168
C39   C     C_1   0.328677 0.242693 0.382834 0.203312
N11   N     N_1   0.353338 0.138350 0.336776 -0.179144
C40   C     C_1   0.671275 0.757557 0.616689 0.203297
N12   N     N_1   0.646596 0.861938 0.662564 -0.179182

loop_
_geom_bond_atom_site_label_1
_geom_bond_atom_site_label_2
_geom_bond_distance
_ccdc_geom_bond_type
C13   N1    1.366370 A    
C33   N5    1.157332 T    
C8    C38   1.451964 S    
O3    Zn1   1.948304 S    
C21   C22   1.404479 A    
O8    Zn2   1.998355 S    
Zn2   N3    1.973415 S    
C14   O10   1.349907 S    
H2    C24   1.083271 S    
C10   C32   1.399708 A    
C20   C26   1.403707 A    
C6    C12   1.451617 S    
H1    C23   1.083264 S    
C3    C31   1.404672 A    
C27   C28   1.162887 T    
C14   C20   1.395868 A    
C5    C11   1.451634 S    
C13   C19   1.395886 A    
C4    C32   1.404657 A    
C20   C22   1.409567 A    
C34   N6    1.157330 T    
C1    C27   1.361867 S    
C35   N7    1.157335 T    
C15   N1    1.366377 A    
O3    C2    1.260425 A    
C4    N1    1.426034 S    
C16   N2    1.366407 A    
C16   O12   1.349905 S    
O8    C5    1.274449 A    
O6    Zn2   1.998352 S    
C32   C36   1.449399 S    
C17   C23   1.403696 A    
C15   O11   1.349900 S    
O7    C6    1.274443 A    
C18   C24   1.403701 A    
C14   N2    1.366392 A    
C24   C25   1.391853 A    
C8    C30   1.399723 A    
H4    C26   1.083270 S    
C10   C40   1.451958 S    
N3    N4    1.193220 T    
C23   C26   1.391853 A    
C7    C29   1.399711 A    
C40   N12   1.157478 T    
H3    C25   1.083266 S    
C30   C34   1.449404 S    
C4    C30   1.404654 A    
C36   N8    1.157338 T    
C19   C25   1.403703 A    
Zn1   N4    1.973415 S    
O1    Zn1   1.950201 S    
C9    C31   1.399711 A    
C9    C39   1.451960 S    
C16   C18   1.395872 A    
C2    C28   1.361867 S    
C39   N11   1.157472 T    
O4    Zn2   1.948305 S    
C15   C17   1.395886 A    
C3    N2    1.426008 S    
C9    C11   1.409187 A    
O1    C1    1.261199 A    
C29   C33   1.449414 S    
C17   C21   1.409555 A    
C38   N10   1.157465 T    
C8    C12   1.409170 A    
O6    C6    1.274443 A    
O2    Zn2   1.950200 S    
O7    Zn1   1.998353 S    
O5    Zn1   1.998355 S    
C7    C11   1.409189 A    
C19   C21   1.409561 A    
O4    C1    1.260425 A    
C18   C22   1.409559 A    
C31   C35   1.449412 S    
O5    C5    1.274449 A    
C37   N9    1.157465 T    
C7    C37   1.451966 S    
C13   O9    1.349890 S    
C10   C12   1.409175 A    
C3    C29   1.404668 A    
O2    C2    1.261199 A    
