data_mof_unit_61512.cif
_audit_creation_date              2012-12-10T19:36:57-0500
_audit_creation_method            fapswitch 2.2
_symmetry_space_group_name_H-M    P1
_symmetry_Int_Tables_number       1
_space_group_crystal_system       triclinic
_cell_length_a                    30.923582
_cell_length_b                    30.237746
_cell_length_c                    24.700208
_cell_angle_alpha                 90.160083
_cell_angle_beta                  128.10911
_cell_angle_gamma                 89.86726
_cell_volume                      18172.8366018

loop_
_atom_site_label
_atom_site_type_symbol
_atom_type_description
_atom_site_fract_x
_atom_site_fract_y
_atom_site_fract_z
_atom_type_partial_charge
Br1   Br    Br    0.764832 0.795317 0.703749 -0.236363
Br2   Br    Br    0.040051 0.657448 0.136709 -0.245355
Br3   Br    Br    0.517603 0.210708 0.862350 -0.256610
Br4   Br    Br    0.533290 0.163885 0.131795 -0.258767
Br5   Br    Br    0.938859 0.709127 0.706803 -0.250777
Br6   Br    Br    0.145705 0.653868 0.301007 -0.291318
Br7   Br    Br    0.416778 0.175871 0.708455 -0.213210
Br8   Br    Br    0.635461 0.155678 0.296510 -0.282676
Br9   Br    Br    0.709834 0.689542 0.639060 -0.295722
Br10  Br    Br    0.318649 0.709264 0.380200 -0.341654
Br11  Br    Br    0.185750 0.207320 0.622969 -0.263177
Br12  Br    Br    0.156948 0.846859 0.302811 -0.257196
Br13  Br    Br    0.799804 0.197318 0.366927 -0.345615
Br14  Br    Br    0.651787 0.736654 0.124998 -0.222883
Br15  Br    Br    0.488089 0.821348 0.881691 -0.230561
Br16  Br    Br    0.011341 0.322237 0.120284 -0.232281
Br17  Br    Br    0.844243 0.240273 0.872608 -0.225791
Br18  Br    Br    0.815245 0.973588 0.426997 -0.455924
Br19  Br    Br    0.192573 0.955734 0.618604 -0.380238
Br20  Br    Br    0.307365 0.457767 0.385413 -0.384258
Br21  Br    Br    0.687049 0.469831 0.586325 -0.432336
Br22  Br    Br    0.040583 0.844274 0.605059 -0.290258
Br23  Br    Br    0.273012 0.306572 0.706114 -0.230566
Br24  Br    Br    0.960446 0.876565 0.321613 -0.200683
Br25  Br    Br    0.542116 0.365045 0.665435 -0.203979
Br26  Br    Br    0.455035 0.356005 0.352531 -0.227457
Br27  Br    Br    0.882594 0.777181 0.429121 -0.215296
Br28  Br    Br    0.067457 0.769259 0.478971 -0.287346
Br29  Br    Br    0.419186 0.272025 0.488989 -0.310928
Br30  Br    Br    0.590809 0.267878 0.523516 -0.242101
Br31  Br    Br    0.660783 0.348023 0.305676 -0.281096
Br32  Br    Br    0.838899 0.775415 0.867203 -0.236025
Br33  Br    Br    0.085866 0.845019 0.135000 -0.257441
Br34  Br    Br    0.352779 0.296958 0.871512 -0.248373
Br35  Br    Br    0.600780 0.346603 0.140511 -0.243808
Br36  Br    Br    0.023353 0.728524 0.870525 -0.276537
C1    C     C_R   0.810202 0.810401 0.500546 0.955981
C2    C     C_R   0.531055 0.733704 0.070734 0.448010
C3    C     C_R   0.910758 0.097115 0.500852 -0.289380
C4    C     C_R   0.593448 0.597931 0.446166 0.039202
C5    C     C_R   0.388167 0.588396 0.533993 -0.017178
C6    C     C_R   0.111317 0.088226 0.465565 -0.022308
C7    C     C_R   0.905633 0.097849 0.553219 -0.011118
C8    C     C_3   0.606674 0.560445 0.418719 0.153343
C9    C     C_3   0.358959 0.546646 0.525240 0.154774
C10   C     C_3   0.140406 0.046366 0.473772 0.146295
C11   C     C_3   0.892673 0.060593 0.580928 0.176860
C12   C     C_3   0.648724 0.591781 0.425513 0.175759
C13   C     C_R   0.965471 0.234924 0.928936 0.442857
C14   C     C_3   0.310833 0.576324 0.502992 0.203554
C15   C     C_3   0.188161 0.076019 0.494870 0.201728
C16   C     C_3   0.849513 0.091683 0.572367 0.182143
C17   C     C_R   0.441804 0.562069 0.500050 0.978178
C18   C     C_R   0.559343 0.561102 0.500053 0.976360
C19   C     C_R   0.940398 0.060813 0.500058 0.975311
C20   C     C_R   0.057940 0.062425 0.500137 0.994984
C21   C     C_R   0.938901 0.941471 0.500329 0.885453
C22   C     C_R   0.060862 0.940928 0.499605 0.887853
C23   C     C_R   0.439086 0.441002 0.500258 0.878388
C24   C     C_R   0.035777 0.240657 0.067520 0.447523
C25   C     C_R   0.560466 0.440688 0.499507 0.872591
C26   C     C_R   0.817339 0.750206 0.635171 0.945953
C27   C     C_R   0.182905 0.750048 0.365596 0.968478
C28   C     C_R   0.316402 0.249077 0.635132 0.938535
C29   C     C_R   0.682561 0.250434 0.365550 0.961404
C30   C     C_R   0.661722 0.748880 0.250045 0.259788
C31   C     C_R   0.388988 0.785722 0.753129 0.345767
C32   C     C_R   0.110967 0.285961 0.247369 0.345845
C33   C     C_R   0.836100 0.250690 0.748588 0.263350
C34   C     C_R   0.625726 0.739947 0.178957 0.199585
C35   C     C_R   0.898718 0.836922 0.533264 -0.005527
C36   C     C_R   0.427326 0.780609 0.825269 0.184863
C37   C     C_R   0.071743 0.280949 0.175346 0.184833
C38   C     C_R   0.871302 0.241973 0.819756 0.198333
C39   C     C_R   0.569903 0.731855 0.146055 -0.249847
C40   C     C_R   0.424119 0.743669 0.857026 -0.260964
C41   C     C_R   0.073892 0.243852 0.142750 -0.261470
C42   C     C_R   0.927131 0.232926 0.853593 -0.245696
C43   C     C_R   0.549675 0.728960 0.183743 0.274623
C44   C     C_R   0.387398 0.709120 0.817137 0.323427
C45   C     C_R   0.110623 0.209130 0.181836 0.323533
C46   C     C_R   0.101467 0.846996 0.444492 -0.003432
C47   C     C_R   0.948119 0.228988 0.816838 0.286757
C48   C     C_R   0.584249 0.741410 0.254176 0.294426
C49   C     C_R   0.360716 0.708666 0.745996 0.230684
C50   C     C_R   0.138393 0.208685 0.253289 0.229890
C51   C     C_R   0.914494 0.241275 0.746492 0.206864
C52   C     C_R   0.399194 0.343774 0.549521 -0.007583
C53   C     C_R   0.600056 0.340906 0.454493 -0.028170
C54   C     C_R   0.842925 0.844195 0.500989 -0.129399
C55   C     C_R   0.157587 0.844384 0.498155 -0.136598
C56   C     C_R   0.342193 0.344301 0.500710 -0.145171
C57   C     C_R   0.189924 0.810320 0.499285 0.925298
C58   C     C_R   0.657054 0.344609 0.497134 -0.104430
C59   C     C_R   0.819734 0.886049 0.473725 -0.159005
C60   C     C_R   0.183891 0.878973 0.545879 -0.156980
C61   C     C_R   0.316165 0.380878 0.457312 -0.147816
C62   C     C_R   0.682022 0.384392 0.532604 -0.139790
C63   C     C_R   0.850604 0.918892 0.472613 0.254799
C64   C     C_R   0.153217 0.912027 0.546977 0.276652
C65   C     C_R   0.346942 0.413308 0.455479 0.273519
C66   C     C_R   0.650767 0.417103 0.533697 0.261663
C67   C     C_R   0.905706 0.910147 0.502223 -0.138003
C68   C     C_R   0.309775 0.310363 0.499931 0.923344
C69   C     C_R   0.095556 0.911005 0.497390 -0.148744
C70   C     C_R   0.404723 0.410618 0.502060 -0.146638
C71   C     C_R   0.594088 0.410019 0.496906 -0.143598
C72   C     C_R   0.929939 0.870428 0.535650 0.002870
C73   C     C_R   0.071220 0.880886 0.443047 0.038453
C74   C     C_R   0.429894 0.377880 0.552463 0.028238
C75   C     C_R   0.568916 0.374027 0.452565 0.008593
C76   C     C_3   0.962990 0.840790 0.525861 -0.023599
C77   C     C_3   0.021072 0.853225 0.411392 0.018534
C78   C     C_3   0.476944 0.348753 0.573731 0.013198
C79   C     C_R   0.689697 0.310397 0.498834 0.961518
C80   C     C_3   0.526091 0.343195 0.440230 0.010052
C81   C     C_3   0.927798 0.803082 0.520767 0.501057
C82   C     C_3   0.055003 0.814647 0.414774 0.475469
C83   C     C_3   0.441686 0.310100 0.566294 0.476609
C84   C     C_3   0.561314 0.305615 0.443779 0.491615
C85   C     C_R   0.681512 0.749056 0.365003 1.037945
C86   C     C_R   0.317510 0.750032 0.635290 1.006079
C87   C     C_R   0.182491 0.250029 0.364651 1.009075
C88   C     C_R   0.818151 0.249334 0.634892 1.030818
C89   C     C_R   0.835930 0.767386 0.748113 0.241198
C90   C     C_R   0.641702 0.747406 0.288576 -0.383149
C91   C     C_R   0.130726 0.790790 0.254573 0.205110
C92   C     C_R   0.340711 0.273331 0.749250 0.237092
C93   C     C_R   0.634061 0.292421 0.256029 0.210286
C94   C     C_R   0.869884 0.764358 0.820009 0.237094
C95   C     C_R   0.095169 0.790739 0.182581 0.227839
C96   C     C_R   0.377301 0.273317 0.821406 0.234812
C97   C     C_R   0.601795 0.293124 0.184277 0.247648
C98   C     C_R   0.925055 0.751276 0.856791 -0.192456
C99   C     C_R   0.069059 0.751037 0.146500 -0.197760
C100  C     C_R   0.429827 0.254114 0.856239 -0.185593
C101  C     C_R   0.356229 0.748529 0.712202 -0.411841
C102  C     C_R   0.573292 0.254590 0.146119 -0.197299
C103  C     C_R   0.945358 0.738533 0.821426 0.236887
C104  C     C_R   0.080895 0.711128 0.182839 0.247512
C105  C     C_R   0.443283 0.230893 0.818991 0.209908
C106  C     C_R   0.579408 0.215011 0.180635 0.237912
C107  C     C_R   0.909540 0.735227 0.749562 0.219808
C108  C     C_R   0.121149 0.710432 0.254274 0.223733
C109  C     C_R   0.403210 0.223867 0.748481 0.215178
C110  C     C_R   0.617697 0.212931 0.252325 0.225990
C111  C     C_R   0.854595 0.750826 0.711625 -0.303052
C112  C     C_R   0.143626 0.248601 0.287714 -0.410484
C113  C     C_R   0.144848 0.750447 0.290453 -0.264753
C114  C     C_R   0.353489 0.248557 0.711566 -0.307980
C115  C     C_R   0.644252 0.251888 0.290342 -0.282505
C116  C     C_R   0.030722 0.750860 0.071125 0.394671
C117  C     C_R   0.961632 0.750917 0.932159 0.395404
C118  C     C_R   0.537519 0.255390 0.070682 0.389617
C119  C     C_R   0.469132 0.255375 0.931625 0.391363
C120  C     C_R   0.628502 0.627098 0.447961 0.046208
C121  C     C_R   0.348186 0.616083 0.525041 0.065733
C122  C     C_R   0.150916 0.115859 0.473452 0.075342
C123  C     C_R   0.857109 0.248184 0.711205 -0.391768
C124  C     C_R   0.870058 0.126885 0.550430 0.040435
C125  C     C_R   0.659897 0.655918 0.503247 -0.267092
C126  C     C_R   0.335084 0.655060 0.487664 -0.271943
C127  C     C_R   0.164635 0.154862 0.511236 -0.301615
C128  C     C_R   0.839896 0.156252 0.495814 -0.237611
C129  C     C_R   0.655493 0.656869 0.556441 0.176548
C130  C     C_R   0.353957 0.663116 0.449452 0.163636
C131  C     C_R   0.147754 0.162495 0.551584 0.171045
C132  C     C_R   0.847865 0.159154 0.445705 0.164484
C133  C     C_R   0.690440 0.689527 0.500060 0.992096
C134  C     C_R   0.461578 0.740105 0.932225 0.445196
C135  C     C_R   0.307433 0.689433 0.495752 0.975210
C136  C     C_R   0.192080 0.189346 0.503235 0.974145
C137  C     C_R   0.809103 0.189607 0.499001 0.982339
C138  C     C_R   0.617354 0.629336 0.552998 0.360418
C139  C     C_R   0.393331 0.634753 0.456831 0.280441
C140  C     C_R   0.108583 0.134573 0.544996 0.372125
C141  C     C_R   0.885933 0.130837 0.449801 0.331523
C142  C     C_R   0.589492 0.597047 0.499605 -0.274570
C143  C     C_R   0.410415 0.597128 0.500138 -0.289036
C144  C     C_R   0.089887 0.097188 0.500490 -0.283876
H1    H     H_    0.626319 0.532122 0.455018 0.080806
H2    H     H_    0.227811 0.879166 0.584655 0.218534
H3    H     H_    0.272083 0.383061 0.421847 0.217021
H4    H     H_    0.725959 0.389045 0.562264 0.189761
H5    H     H_    0.955414 0.847937 0.476637 0.119127
H6    H     H_    0.010436 0.849525 0.446489 0.112557
H7    H     H_    0.484285 0.348698 0.535142 0.103673
H8    H     H_    0.524579 0.343493 0.483894 0.109021
H9    H     H_    0.725283 0.828146 0.329662 0.353787
H10   H     H_    0.321892 0.873028 0.623279 0.393588
H11   H     H_    0.180058 0.371320 0.379747 0.391309
H12   H     H_    0.350589 0.525452 0.483144 0.086023
H13   H     H_    0.777471 0.331267 0.671763 0.347813
H14   H     H_    0.021095 0.764588 0.697420 0.419806
H15   H     H_    0.027280 0.814084 0.247037 0.390711
H16   H     H_    0.476907 0.290066 0.735876 0.393385
H17   H     H_    0.513858 0.287355 0.267904 0.392049
H18   H     H_    0.523310 0.648907 0.576132 0.384018
H19   H     H_    0.338540 0.637646 0.309235 0.380113
H20   H     H_    0.020208 0.132547 0.597795 0.403416
H21   H     H_    0.820216 0.117383 0.302008 0.378953
H22   H     H_    0.473429 0.575627 0.247197 0.396079
H23   H     H_    0.149608 0.025196 0.516342 0.084067
H24   H     H_    0.440384 0.536251 0.713271 0.408105
H25   H     H_    0.057148 0.035520 0.285478 0.410327
H26   H     H_    0.024418 0.078672 0.753079 0.396437
H27   H     H_    0.582389 0.635228 0.250962 0.388493
H28   H     H_    0.300254 0.554863 0.641762 0.407822
H29   H     H_    0.196556 0.054297 0.354122 0.410095
H30   H     H_    0.912039 0.137045 0.745119 0.389143
H31   H     H_    0.442808 0.664597 0.171456 0.406531
H32   H     H_    0.308314 0.621188 0.822597 0.407163
H33   H     H_    0.187404 0.120334 0.172904 0.407641
H34   H     H_    0.874111 0.031809 0.545569 0.089755
H35   H     H_    0.054726 0.162542 0.830962 0.404904
H36   H     H_    0.567220 0.807272 0.364178 0.391904
H37   H     H_    0.397514 0.664208 0.674398 0.357761
H38   H     H_    0.102808 0.164310 0.325910 0.359170
H39   H     H_    0.936787 0.323643 0.708936 0.357473
H40   H     H_    0.691641 0.581857 0.468482 0.098939
H41   H     H_    0.279147 0.575914 0.445917 0.100783
H42   H     H_    0.220413 0.075773 0.551836 0.089946
H43   H     H_    0.806991 0.081325 0.528764 0.104108
H44   H     H_    0.776979 0.892484 0.450142 0.199473
N1    N     N_R   0.531517 0.702547 0.031512 -0.063979
N2    N     N_R   0.994271 0.784267 0.036116 -0.082299
N3    N     N_R   0.500197 0.219421 0.967030 -0.079424
N4    N     N_R   0.506354 0.291341 0.035312 -0.081887
N5    N     N_R   0.031786 0.717395 0.035405 -0.084879
N6    N     N_R   0.960861 0.784617 0.967822 -0.082901
N7    N     N_R   0.534469 0.219724 0.035230 -0.080944
N8    N     N_R   0.473435 0.291600 0.967036 -0.082953
N9    N     N_R   0.497297 0.705746 0.963272 -0.077012
N10   N     N_R   0.036990 0.271285 0.028542 -0.077897
N11   N     N_R   0.002368 0.268436 0.960319 -0.100305
N12   N     N_R   0.460773 0.770992 0.971450 -0.077481
N13   N     N_R   0.495026 0.767836 0.039649 -0.093144
N14   N     N_R   0.964456 0.204084 0.967890 -0.062505
N15   N     N_R   0.999094 0.206955 0.036188 -0.077131
N16   N     N_R   0.997299 0.717085 0.967179 -0.082438
O1    O     O_R   0.821670 0.769930 0.500000 -0.548478
O2    O     O_R   0.074580 0.954200 0.557500 -0.583086
O3    O     O_2   0.234218 0.602671 0.516469 -0.210093
O4    O     O_2   0.249255 0.523481 0.517365 -0.228124
O5    O     O_3   0.320847 0.568404 0.627367 -0.377564
O6    O     O_2   0.263324 0.102365 0.479101 -0.213427
O7    O     O_2   0.249057 0.023141 0.478860 -0.227922
O8    O     O_3   0.176265 0.067664 0.369171 -0.376515
O9    O     O_2   0.807655 0.137650 0.623577 -0.276964
O10   O     O_2   0.846858 0.065824 0.674918 -0.188713
O11   O     O_3   0.913616 0.131222 0.706887 -0.427353
O12   O     O_2   0.440976 0.741321 0.112432 -0.191673
O13   O     O_R   0.425420 0.454200 0.442500 -0.591357
O14   O     O_2   0.468961 0.674443 0.085496 -0.241589
O15   O     O_3   0.481162 0.675317 0.198388 -0.433155
O16   O     O_2   0.416394 0.632966 0.887933 -0.203547
O17   O     O_2   0.372909 0.689263 0.911361 -0.228185
O18   O     O_3   0.310947 0.645274 0.797662 -0.450649
O19   O     O_2   0.079812 0.133220 0.109787 -0.203219
O20   O     O_2   0.123075 0.189003 0.085731 -0.225932
O21   O     O_3   0.185571 0.144496 0.198587 -0.448599
O22   O     O_2   0.057182 0.239751 0.889619 -0.198486
O23   O     O_2   0.027357 0.173934 0.915730 -0.237308
O24   O     O_R   0.574580 0.454200 0.557500 -0.589786
O25   O     O_3   0.016432 0.173518 0.803689 -0.435455
O26   O     O_2   0.494233 0.754128 0.251387 -0.142823
O27   O     O_2   0.576944 0.721173 0.354298 -0.260421
O28   O     O_3   0.575439 0.805364 0.331308 -0.507848
O29   O     O_2   0.379010 0.620265 0.753296 -0.188122
O30   O     O_2   0.284978 0.646373 0.665931 -0.157814
O31   O     O_3   0.357418 0.659120 0.646330 -0.524487
O32   O     O_2   0.120338 0.120298 0.245834 -0.186361
O33   O     O_2   0.214497 0.146407 0.332416 -0.156233
O34   O     O_3   0.142876 0.159201 0.353500 -0.524393
O35   O     O_R   0.982890 0.954220 0.557510 -0.569005
O36   O     O_2   0.005655 0.251969 0.750986 -0.143369
O37   O     O_2   0.922902 0.219821 0.647455 -0.214910
O38   O     O_3   0.925568 0.303977 0.670095 -0.482766
O39   O     O_R   0.017110 0.954220 0.442490 -0.571103
O40   O     O_R   0.482890 0.454220 0.557510 -0.567589
O41   O     O_R   0.517110 0.454220 0.442490 -0.573183
O42   O     O_R   0.769920 0.821660 0.500020 -0.640700
O43   O     O_R   0.230080 0.821660 0.499980 -0.603116
O44   O     O_R   0.269920 0.321660 0.500020 -0.615261
O45   O     O_R   0.178330 0.769930 0.500000 -0.584692
O46   O     O_R   0.730080 0.321660 0.499980 -0.632896
O47   O     O_R   0.724940 0.724130 0.398140 -0.534225
O48   O     O_R   0.275060 0.724130 0.601860 -0.553667
O49   O     O_R   0.224940 0.224130 0.398140 -0.551620
O50   O     O_R   0.775060 0.224130 0.601860 -0.536445
O51   O     O_R   0.673180 0.775850 0.398150 -0.577709
O52   O     O_R   0.326820 0.775850 0.601850 -0.567086
O53   O     O_R   0.173180 0.275850 0.398150 -0.570012
O54   O     O_R   0.826820 0.275850 0.601850 -0.573583
O55   O     O_R   0.730060 0.678320 0.499990 -0.614298
O56   O     O_R   0.321670 0.269930 0.500000 -0.575791
O57   O     O_R   0.269940 0.678320 0.500010 -0.553390
O58   O     O_R   0.230060 0.178320 0.499990 -0.560234
O59   O     O_R   0.769940 0.178320 0.500010 -0.607881
O60   O     O_R   0.678300 0.730040 0.500010 -0.570365
O61   O     O_R   0.321700 0.730040 0.499990 -0.594375
O62   O     O_R   0.178300 0.230040 0.500010 -0.589929
O63   O     O_R   0.821700 0.230040 0.499990 -0.557584
O64   O     O_R   0.826790 0.724120 0.601860 -0.574519
O65   O     O_R   0.173210 0.724120 0.398140 -0.558872
O66   O     O_R   0.326790 0.224120 0.601860 -0.563468
O67   O     O_R   0.678330 0.269930 0.500000 -0.553235
O68   O     O_R   0.673210 0.224120 0.398140 -0.567875
O69   O     O_R   0.775040 0.775850 0.601880 -0.585361
O70   O     O_R   0.224960 0.775850 0.398120 -0.585152
O71   O     O_R   0.275040 0.275850 0.601880 -0.580513
O72   O     O_R   0.724960 0.275850 0.398120 -0.582750
O73   O     O_R   0.425360 0.545810 0.442460 -0.582363
O74   O     O_R   0.574640 0.545810 0.557540 -0.561787
O75   O     O_R   0.925360 0.045810 0.442460 -0.563358
O76   O     O_R   0.074640 0.045810 0.557540 -0.590920
O77   O     O_2   0.767340 0.726488 0.320046 -0.150324
O78   O     O_R   0.482840 0.545830 0.557470 -0.543291
O79   O     O_2   0.736669 0.788555 0.240787 -0.171262
O80   O     O_3   0.750799 0.802784 0.352991 -0.573958
O81   O     O_2   0.402273 0.875180 0.767080 -0.170574
O82   O     O_2   0.419735 0.837392 0.694437 -0.225413
O83   O     O_3   0.318997 0.849117 0.648239 -0.573572
O84   O     O_2   0.099657 0.375500 0.234124 -0.166821
O85   O     O_2   0.081682 0.338948 0.306794 -0.225235
O86   O     O_3   0.182579 0.348757 0.352629 -0.571757
O87   O     O_2   0.728706 0.231268 0.673615 -0.153077
O88   O     O_2   0.760429 0.291864 0.755797 -0.171164
O89   O     O_R   0.517160 0.545830 0.442530 -0.545026
O90   O     O_3   0.750340 0.307092 0.646592 -0.584950
O91   O     O_2   0.923773 0.725472 0.570689 -0.209027
O92   O     O_2   0.008423 0.742100 0.586977 -0.188068
O93   O     O_3   0.990016 0.784100 0.663415 -0.492815
O94   O     O_2   0.068985 0.753008 0.347841 -0.268221
O95   O     O_2   0.974596 0.775972 0.293938 -0.166392
O96   O     O_3   0.037456 0.829911 0.288603 -0.488641
O97   O     O_2   0.429232 0.240412 0.621970 -0.232270
O98   O     O_2   0.523666 0.262071 0.674107 -0.152733
O99   O     O_3   0.468031 0.310684 0.699172 -0.512722
O100  O     O_R   0.982840 0.045830 0.557470 -0.562158
O101  O     O_2   0.571761 0.238282 0.380722 -0.259056
O102  O     O_2   0.479112 0.253946 0.342559 -0.167435
O103  O     O_3   0.521664 0.307631 0.304549 -0.498721
O104  O     O_2   0.647715 0.606275 0.676864 -0.183551
O105  O     O_2   0.616220 0.682353 0.641053 -0.200950
O106  O     O_3   0.543407 0.620767 0.586031 -0.525125
O107  O     O_2   0.422291 0.694338 0.401929 -0.179159
O108  O     O_2   0.473550 0.625887 0.443306 -0.278646
O109  O     O_3   0.374287 0.622961 0.330143 -0.458715
O110  O     O_2   0.130798 0.131142 0.668028 -0.219858
O111  O     O_R   0.017160 0.045830 0.442530 -0.546167
O112  O     O_2   0.079257 0.195708 0.596570 -0.175791
O113  O     O_3   0.027742 0.122622 0.566072 -0.550185
O114  O     O_2   0.895493 0.185245 0.369954 -0.174990
O115  O     O_2   0.958622 0.123502 0.423134 -0.233848
O116  O     O_3   0.857332 0.106692 0.320646 -0.469207
O117  O     O_2   0.562782 0.525184 0.292584 -0.170175
O118  O     O_2   0.516922 0.508578 0.342066 -0.254718
O119  O     O_3   0.504314 0.587251 0.292988 -0.424640
O120  O     O_2   0.358429 0.486562 0.606440 -0.207540
O121  O     O_2   0.442052 0.492258 0.617183 -0.265821
O122  O     O_R   0.925420 0.954200 0.442500 -0.598383
O123  O     O_3   0.422951 0.554590 0.671411 -0.445780
O124  O     O_2   0.139923 0.986031 0.391619 -0.192505
O125  O     O_2   0.057057 0.991799 0.382583 -0.261320
O126  O     O_3   0.074962 0.053957 0.327412 -0.443751
O127  O     O_2   0.936429 0.026081 0.707237 -0.177544
O128  O     O_2   0.984319 0.010970 0.659857 -0.262135
O129  O     O_3   0.993113 0.089738 0.707159 -0.446107
O130  O     O_2   0.687117 0.639042 0.371531 -0.283941
O131  O     O_2   0.651245 0.566010 0.322672 -0.181754
O132  O     O_3   0.581583 0.629323 0.289754 -0.426584
S1    S     S_3+6 0.730511 0.766358 0.290024 0.136759
S2    S     S_3+6 0.417842 0.645529 0.408908 0.117931
S3    S     S_3+6 0.087037 0.146676 0.595751 0.132415
S4    S     S_3+6 0.900966 0.137738 0.391058 0.142776
S5    S     S_3+6 0.546801 0.543913 0.334346 0.157330
S6    S     S_3+6 0.395873 0.518114 0.606386 0.126369
S7    S     S_3+6 0.102804 0.017632 0.392542 0.134586
S8    S     S_3+6 0.952530 0.045414 0.666066 0.141804
S9    S     S_3+6 0.642830 0.606415 0.350731 0.129788
S10   S     S_3+6 0.277258 0.567748 0.541157 0.181058
S11   S     S_3+6 0.220703 0.067304 0.455346 0.178894
S12   S     S_3+6 0.383987 0.838180 0.716451 0.122435
S13   S     S_3+6 0.853722 0.106458 0.646034 0.128405
S14   S     S_3+6 0.483152 0.705024 0.142478 0.128727
S15   S     S_3+6 0.372921 0.668289 0.856106 0.139272
S16   S     S_3+6 0.123727 0.168101 0.141393 0.140900
S17   S     S_3+6 0.014309 0.204050 0.859042 0.127045
S18   S     S_3+6 0.555879 0.754159 0.297637 0.143827
S19   S     S_3+6 0.344690 0.656822 0.703290 0.147103
S20   S     S_3+6 0.154871 0.156864 0.295835 0.147666
S21   S     S_3+6 0.944003 0.252907 0.704163 0.153298
S22   S     S_3+6 0.117288 0.338645 0.284560 0.124741
S23   S     S_3+6 0.767447 0.269834 0.707077 0.130632
S24   S     S_3+6 0.963267 0.761560 0.586236 0.149357
S25   S     S_3+6 0.032994 0.791654 0.334265 0.124472
S26   S     S_3+6 0.466843 0.278996 0.642176 0.140220
S27   S     S_3+6 0.532521 0.274399 0.366417 0.127284
S28   S     S_3+6 0.607161 0.635248 0.616502 0.141909
Zn1   Zn    Zn3+2 0.784540 0.715450 0.500000 1.230936
Zn2   Zn    Zn3+2 0.538410 0.500000 0.576790 1.218995
Zn3   Zn    Zn3+2 0.961590 0.000000 0.423210 1.216747
Zn4   Zn    Zn3+2 0.038410 0.000000 0.576790 1.199786
Zn5   Zn    Zn3+2 0.215460 0.715450 0.500000 1.250127
Zn6   Zn    Zn3+2 0.284540 0.215450 0.500000 1.252463
Zn7   Zn    Zn3+2 0.715460 0.215450 0.500000 1.236746
Zn8   Zn    Zn3+2 0.715430 0.784520 0.500010 1.136651
Zn9   Zn    Zn3+2 0.284570 0.784520 0.499990 1.161144
Zn10  Zn    Zn3+2 0.215430 0.284520 0.500010 1.160805
Zn11  Zn    Zn3+2 0.784570 0.284520 0.499990 1.180786
Zn12  Zn    Zn3+2 0.461590 0.500000 0.423210 1.215562

loop_
_geom_bond_atom_site_label_1
_geom_bond_atom_site_label_2
_ccdc_geom_bond_type
C63   C67   A    
H19   O109  S    
C106  C110  A    
O13   Zn12  S    
O101  S27   D    
O70   Zn9   S    
C54   C59   A    
C26   O69   A    
Br29  C83   S    
C88   O50   A    
Br4   C106  S    
C59   C63   A    
Br5   C107  S    
C81   S24   S    
O31   S19   S    
C92   C96   A    
C13   C42   S    
C53   C58   A    
C55   C60   A    
C126  C135  S    
C6    C144  A    
H22   O119  S    
C9    S6    S    
C28   O66   A    
Br8   C110  S    
C45   C50   A    
C105  C109  A    
C15   S11   S    
C102  C118  S    
O127  S8    D    
O8    S11   S    
O67   Zn7   S    
C23   O40   A    
Br11  C131  S    
C94   C98   A    
O72   Zn11  S    
C61   H3    S    
Br27  C81   S    
C48   C90   A    
C23   C70   S    
O77   S1    D    
O19   S16   D    
C85   O51   A    
C128  C132  A    
C86   O52   A    
H31   O15   S    
O130  S9    D    
O87   S23   D    
C121  C126  A    
H37   O31   S    
O117  S5    D    
C46   C55   A    
C18   C142  S    
C25   O41   A    
O16   S15   D    
C100  C105  A    
O5    S10   S    
C53   C84   S    
C128  C137  S    
C52   C83   S    
C40   C134  S    
C127  C136  S    
C93   C97   A    
C92   C114  A    
C10   H23   S    
H20   O113  S    
O61   Zn9   S    
C46   C82   S    
C98   C103  A    
O59   Zn7   S    
C86   C101  S    
C30   S1    S    
O99   S26   S    
C3    C7    A    
C58   C79   S    
C11   C16   S    
C14   S10   S    
O90   S23   S    
O131  S9    D    
O65   Zn5   S    
C129  C138  A    
C44   S15   S    
Br28  C82   S    
Br25  C78   S    
C30   C34   A    
Br30  C84   S    
C9    C14   S    
C137  O59   A    
C51   C123  A    
H24   O123  S    
C25   C71   S    
C91   C95   A    
C56   C68   S    
C80   C84   S    
C22   O39   A    
H33   O21   S    
H14   O93   S    
C37   C41   A    
O40   Zn2   S    
O103  S27   S    
H16   O99   S    
C7    C11   S    
C8    H1    S    
O104  S28   D    
C125  C129  A    
C8    C12   S    
Br23  C92   S    
O43   Zn9   S    
O71   Zn10  S    
N3    N7    A    
C33   S23   S    
C118  N7    A    
C23   O13   A    
C18   O89   A    
C17   O78   A    
Br3   C105  S    
O37   S21   D    
C28   C114  S    
Br15  C36   S    
C119  N3    A    
O63   Zn11  S    
C1    C54   S    
C49   S19   S    
C50   S20   S    
O23   S17   D    
O49   Zn6   S    
C18   O74   A    
C43   C48   A    
C10   S7    S    
C98   C117  S    
O57   Zn5   S    
C99   C116  S    
C11   H34   S    
N12   N13   A    
C31   C36   A    
C22   O2    A    
H36   O28   S    
C103  C107  A    
O88   S23   D    
O7    S11   D    
O116  S4    S    
C74   C78   S    
C109  C114  A    
C32   C112  A    
Br10  C130  S    
C125  C133  S    
O115  S4    D    
O44   Zn10  S    
C11   S8    S    
C88   O54   A    
C17   C143  S    
C56   C61   A    
O92   S24   D    
C134  N9    A    
O15   S14   S    
C1    O1    A    
C35   C81   S    
C46   C73   A    
C76   H5    S    
C100  C119  S    
Br13  C132  S    
Br20  C65   S    
C19   O100  A    
N2    N6    A    
C10   C15   S    
C30   C90   A    
C118  N4    A    
O36   S21   D    
C29   C115  S    
H39   O38   S    
O110  S3    D    
O66   Zn6   S    
C32   S22   S    
H17   O103  S    
C96   C100  A    
O55   Zn1   S    
O33   S20   D    
O107  S2    D    
O56   Zn6   S    
C66   C71   A    
H21   O116  S    
H29   O8    S    
C122  C127  A    
Br21  C66   S    
C120  C125  A    
Br22  C76   S    
O78   Zn2   S    
Br18  C63   S    
Br6   C108  S    
C87   O53   A    
C8    S5    S    
C20   C144  S    
C65   C70   A    
C69   C73   A    
C5    C9    S    
C71   C75   A    
O53   Zn10  S    
C5    C143  A    
C79   O67   A    
H13   O90   S    
O26   S18   D    
C50   C112  A    
H9    O80   S    
O50   Zn7   S    
O74   Zn2   S    
O114  S4    D    
C22   C69   S    
C26   O64   A    
Br31  C93   S    
C91   C113  A    
C57   O45   A    
C135  O61   A    
C35   C54   A    
C39   C43   A    
C51   S21   S    
C60   C64   A    
H32   O18   S    
C33   C123  A    
O82   S12   D    
C62   H4    S    
O58   Zn6   S    
Br36  C103  S    
O6    S11   D    
O45   Zn5   S    
C110  C115  A    
O47   Zn1   S    
C20   O76   A    
C4    C8    S    
C87   C112  S    
O109  S2    S    
C34   C39   A    
C45   S16   S    
O123  S6    S    
C35   C72   A    
C28   O71   A    
O75   Zn3   S    
Br7   C109  S    
C47   C51   A    
C16   C124  S    
Br14  C34   S    
O84   S22   D    
Br35  C97   S    
O20   S16   D    
O11   S13   S    
O38   S21   S    
C130  C139  A    
C124  C128  A    
C93   C115  A    
O91   S24   D    
C76   C81   S    
O120  S6    D    
O30   S19   D    
C58   C62   A    
C132  C141  A    
C119  N8    A    
C6    C10   S    
C138  S28   S    
O10   S13   D    
C126  C130  A    
C42   C47   A    
O21   S16   S    
C3    C19   S    
O102  S27   D    
O69   Zn8   S    
C75   C80   S    
C138  C142  A    
O98   S26   D    
C52   C74   A    
O100  Zn4   S    
C12   C120  S    
C97   C102  A    
O28   S18   S    
O29   S19   D    
C6    C122  A    
O3    S10   D    
O54   Zn11  S    
C3    C141  A    
O52   Zn9   S    
H10   O83   S    
C21   O35   A    
C99   C104  A    
C21   C67   S    
O73   Zn12  S    
C136  O58   A    
C47   S17   S    
C141  S4    S    
C40   C44   A    
C24   N10   A    
C102  C106  A    
O94   S25   D    
C134  N12   A    
C139  S2    S    
O122  Zn3   S    
C72   C76   S    
O113  S3    S    
C44   C49   A    
C29   O68   A    
C19   O75   A    
O126  S7    S    
C55   C57   S    
C80   H8    S    
C9    H12   S    
C41   C45   A    
O64   Zn1   S    
O18   S15   S    
C24   N15   A    
H27   O132  S    
H18   O106  S    
C2    N1    A    
C5    C121  A    
O97   S26   D    
O86   S22   S    
C140  S3    S    
O132  S9    S    
C89   C111  A    
O51   Zn8   S    
O119  S5    S    
C49   C101  A    
N4    N8    A    
C12   H40   S    
C83   S26   S    
N14   N15   A    
C117  N16   A    
C12   S9    S    
C104  C108  A    
C60   H2    S    
C13   N14   A    
O17   S15   D    
Br19  C64   S    
O128  S8    D    
C68   O56   A    
C15   C122  S    
O35   Zn4   S    
H11   O86   S    
N1    N9    A    
Br9   C129  S    
C62   C66   A    
C68   O44   A    
O95   S25   D    
O68   Zn7   S    
O121  S6    D    
C87   O49   A    
C133  O60   A    
C78   H7    S    
O48   Zn5   S    
C16   H43   S    
C38   C42   A    
O1    Zn1   S    
O76   Zn4   S    
C43   S14   S    
O106  S28   S    
H15   O96   S    
O25   S17   S    
C14   H41   S    
O112  S3    D    
C27   O65   A    
O93   S24   S    
C36   C40   A    
Br32  C94   S    
C135  O57   A    
Br12  C91   S    
C107  C111  A    
O129  S8    S    
C64   C69   A    
O60   Zn8   S    
Br1   C89   S    
O22   S17   D    
C95   C99   A    
H25   O126  S    
O79   S1    D    
C79   O46   A    
C88   C123  S    
C85   O47   A    
C86   O48   A    
H28   O5    S    
C27   C113  S    
O108  S2    D    
C89   C94   A    
C52   C56   A    
O34   S20   S    
C67   C72   A    
O118  S5    D    
C73   C77   S    
Br33  C95   S    
Br34  C96   S    
Br24  C77   S    
H38   O34   S    
C31   S12   S    
O41   Zn12  S    
H35   O25   S    
C31   C101  A    
C133  O55   A    
C2    C39   S    
C14   C121  S    
O62   Zn10  S    
C24   C41   S    
Br16  C37   S    
O81   S12   D    
C33   C38   A    
O111  Zn3   S    
C7    C124  A    
O27   S18   D    
C15   H42   S    
C27   O70   A    
O125  S7    D    
C139  C143  A    
C32   C37   A    
O39   Zn3   S    
O80   S1    S    
O9    S13   D    
C20   O111  A    
C127  C131  A    
C108  C113  A    
C140  C144  A    
C82   S25   S    
O2    Zn4   S    
O4    S10   D    
N5    N16   A    
C48   S18   S    
C4    C142  A    
C16   S13   S    
O46   Zn11  S    
C136  O62   A    
C26   C111  S    
C137  O63   A    
Br17  C38   S    
C116  N2    A    
C117  N6    A    
O124  S7    D    
O32   S20   D    
H30   O11   S    
C57   O43   A    
C116  N5    A    
C70   C74   A    
O85   S22   D    
O24   Zn2   S    
C78   C83   S    
C25   O24   A    
C29   O72   A    
O105  S28   D    
C53   C75   A    
C59   H44   S    
Br2   C104  S    
O42   Zn8   S    
C21   O122  A    
C85   C90   S    
C13   N11   A    
O83   S12   S    
C2    N13   A    
C84   S27   S    
C77   H6    S    
O89   Zn12  S    
Br26  C80   S    
H26   O129  S    
O14   S14   D    
O12   S14   D    
C77   C82   S    
O96   S25   S    
N10   N11   A    
C17   O73   A    
C4    C120  A    
C1    O42   A    
C61   C65   A    
C131  C140  A    
