data_mof_unit_28494.cif
_audit_creation_date              2012-12-10T20:48:18-0500
_audit_creation_method            fapswitch 2.2
_symmetry_space_group_name_H-M    P1
_symmetry_Int_Tables_number       1
_space_group_crystal_system       triclinic
_cell_length_a                    10.939651
_cell_length_b                    9.251407
_cell_length_c                    8.387893
_cell_angle_alpha                 86.663966
_cell_angle_beta                  88.380404
_cell_angle_gamma                 90.027677
_cell_volume                      847.135817386

loop_
_atom_site_label
_atom_site_type_symbol
_atom_type_description
_atom_site_fract_x
_atom_site_fract_y
_atom_site_fract_z
_atom_type_partial_charge
C1    C     C_R   0.497483 0.218418 0.503036 0.840913
C2    C     C_1   0.495036 0.935476 0.496279 -0.224598
C3    C     C_3   0.073968 0.644849 0.548420 0.765783
C4    C     C_3   0.928110 0.641736 0.536928 0.737392
C5    C     C_3   0.121374 0.487019 0.508538 -0.563650
C6    C     C_3   0.880786 0.482359 0.495718 -0.514259
C7    C     C_3   0.192473 0.379335 0.888064 -0.123130
C8    C     C_3   0.140424 0.645683 0.155345 -0.264771
C9    C     C_3   0.767451 0.280763 0.826590 -0.255828
C10   C     C_3   0.901893 0.542921 0.051916 -0.100023
C11   C     C_3   0.094316 0.132050 0.766549 -0.253518
C12   C     C_R   0.258224 0.491580 0.503086 1.054198
C13   C     C_3   0.217366 0.232422 0.291880 -0.133658
C14   C     C_3   0.798840 0.149147 0.537514 -0.242798
C15   C     C_3   0.814027 0.272475 0.177545 -0.305908
C16   C     C_3   0.214930 0.754534 0.728407 -0.184864
C17   C     C_3   0.108327 0.893583 0.439086 -0.187863
C18   C     C_3   0.871117 0.810358 0.739022 -0.287722
C19   C     C_3   0.776565 0.788501 0.391031 -0.215242
C20   C     C_R   0.742330 0.490350 0.498574 1.004349
C21   C     C_R   0.495475 0.781498 0.497202 0.856638
C22   C     C_1   0.495770 0.064489 0.504066 -0.210227
C23   C     C_3   0.069082 0.373011 0.649071 0.810537
C24   C     C_3   0.076470 0.434340 0.336155 0.734363
C25   C     C_3   0.923705 0.355707 0.626182 0.780242
C26   C     C_3   0.931965 0.445602 0.325353 0.781682
H1    H     H_    0.261779 0.317346 0.821943 0.181013
H2    H     H_    0.810810 0.532946 0.999924 0.207936
H3    H     H_    0.963933 0.454759 0.023821 0.261210
H4    H     H_    0.938103 0.644615 0.995601 0.194564
H5    H     H_    0.177194 0.093449 0.828799 0.118576
H6    H     H_    0.050383 0.038289 0.720652 0.179052
H7    H     H_    0.027820 0.172321 0.856042 0.179744
H8    H     H_    0.269980 0.205626 0.399822 0.174047
H9    H     H_    0.271021 0.305473 0.207966 0.189333
H10   H     H_    0.207082 0.131092 0.229487 0.106037
H11   H     H_    0.732599 0.227917 0.490749 0.160808
H12   H     H_    0.159370 0.309442 0.991054 0.159692
H13   H     H_    0.756166 0.078457 0.634088 0.103773
H14   H     H_    0.821744 0.077794 0.443175 0.217251
H15   H     H_    0.875986 0.250874 0.076875 0.195511
H16   H     H_    0.740955 0.352730 0.160520 0.217072
H17   H     H_    0.766024 0.168543 0.206338 0.144842
H18   H     H_    0.275992 0.766375 0.622380 0.196676
H19   H     H_    0.269174 0.698376 0.822065 0.170802
H20   H     H_    0.193953 0.862024 0.770603 0.107393
H21   H     H_    0.036288 0.917962 0.523729 0.209231
H22   H     H_    0.079120 0.935007 0.319518 0.194560
H23   H     H_    0.242407 0.471409 0.932443 0.201434
H24   H     H_    0.192399 0.952699 0.467070 0.162740
H25   H     H_    0.868093 0.891783 0.640962 0.173600
H26   H     H_    0.950199 0.830994 0.813542 0.174237
H27   H     H_    0.787793 0.825125 0.814717 0.168307
H28   H     H_    0.721994 0.781477 0.503264 0.172199
H29   H     H_    0.736557 0.730858 0.294324 0.242828
H30   H     H_    0.772467 0.898346 0.335715 0.116486
H31   H     H_    0.228541 0.692389 0.189565 0.230023
H32   H     H_    0.059753 0.705594 0.195385 0.248337
H33   H     H_    0.140035 0.663825 0.025161 0.172532
H34   H     H_    0.800775 0.171633 0.866457 0.132607
H35   H     H_    0.695701 0.271836 0.741593 0.202935
H36   H     H_    0.711586 0.329945 0.918911 0.150504
N1    N     N_1   0.500000 0.500030 0.073640 -0.089696
N2    N     N_1   0.500000 0.500030 0.926360 -0.100029
O1    O     O_R   0.500000 0.285340 0.636850 -0.655680
O2    O     O_3   0.135976 0.495011 0.192196 -0.645425
O3    O     O_3   0.865073 0.376143 0.778050 -0.614197
O4    O     O_3   0.887517 0.557614 0.216554 -0.669934
O5    O     O_3   0.128310 0.234612 0.638629 -0.607896
O6    O     O_3   0.099347 0.280672 0.337776 -0.558771
O7    O     O_3   0.911617 0.208369 0.579541 -0.584919
O8    O     O_3   0.889050 0.303210 0.300889 -0.589117
O9    O     O_3   0.104067 0.678521 0.707997 -0.597140
O10   O     O_3   0.133622 0.744241 0.434305 -0.701810
O11   O     O_3   0.871220 0.667172 0.689541 -0.576279
O12   O     O_R   0.500000 0.285340 0.363150 -0.648822
O13   O     O_3   0.899647 0.749777 0.412718 -0.645929
O14   O     O_R   0.314790 0.499970 0.636880 -0.641694
O15   O     O_R   0.314790 0.499970 0.363120 -0.601964
O16   O     O_R   0.685210 0.499970 0.636880 -0.570050
O17   O     O_R   0.685210 0.499970 0.363120 -0.622945
O18   O     O_R   0.500000 0.714650 0.636900 -0.627248
O19   O     O_R   0.500000 0.714650 0.363100 -0.625936
O20   O     O_3   0.088936 0.429696 0.801933 -0.605780
Zn1   Zn    Zn3+2 0.500000 0.499990 0.682780 0.931652
Zn2   Zn    Zn3+2 0.500000 0.499990 0.317220 0.933677

loop_
_geom_bond_atom_site_label_1
_geom_bond_atom_site_label_2
_ccdc_geom_bond_type
C19   H30   S    
C8    O2    S    
C18   O11   S    
C26   O8    S    
C14   O7    S    
C23   O5    S    
C25   O3    S    
C17   H22   S    
C18   H26   S    
C15   O8    S    
C9    H35   S    
C24   C26   S    
C13   H9    S    
C8    H33   S    
C6    C25   S    
C13   O6    S    
C19   H29   S    
C12   O15   A    
C7    H1    S    
C19   O13   S    
C3    O10   S    
C4    O11   S    
C18   H27   S    
C8    H32   S    
C14   H13   S    
C21   O19   A    
C12   O14   A    
C2    C22   T    
C1    O1    A    
C25   O7    S    
C16   H18   S    
O17   Zn2   S    
C24   O2    S    
C7    O20   S    
C11   H5    S    
C1    C22   S    
C20   O17   A    
C18   H25   S    
C23   O20   S    
C20   O16   A    
C24   O6    S    
C9    H36   S    
C11   H7    S    
C15   H15   S    
C13   H10   S    
C4    C6    S    
C16   H20   S    
C16   O9    S    
C16   H19   S    
C9    O3    S    
O16   Zn1   S    
C8    H31   S    
C10   H4    S    
C5    C23   S    
C2    C21   S    
C7    H23   S    
C5    C12   S    
C19   H28   S    
C11   H6    S    
N1    Zn2   S    
C17   O10   S    
C3    C4    S    
O12   Zn2   S    
N2    Zn1   S    
O14   Zn1   S    
C10   H2    S    
C1    O12   A    
C17   H21   S    
C15   H16   S    
C3    C5    S    
C17   H24   S    
C11   O5    S    
O1    Zn1   S    
C10   O4    S    
O18   Zn1   S    
C6    C20   S    
C9    H34   S    
C26   O4    S    
C15   H17   S    
C13   H8    S    
C14   H11   S    
C10   H3    S    
C6    C26   S    
C5    C24   S    
C7    H12   S    
C23   C25   S    
C3    O9    S    
C14   H14   S    
N1    N2    T    
C4    O13   S    
O19   Zn2   S    
C21   O18   A    
O15   Zn2   S    
