data_mof_unit_66318.cif
_audit_creation_date              2012-12-10T17:17:22-0500
_audit_creation_method            fapswitch 2.2
_symmetry_space_group_name_H-M    P1
_symmetry_Int_Tables_number       1
_space_group_crystal_system       triclinic
_cell_length_a                    18.759146
_cell_length_b                    18.788864
_cell_length_c                    18.817347
_cell_angle_alpha                 109.518863
_cell_angle_beta                  109.379659
_cell_angle_gamma                 109.256857
_cell_volume                      5121.82856484

loop_
_atom_site_label
_atom_site_type_symbol
_atom_type_description
_atom_site_fract_x
_atom_site_fract_y
_atom_site_fract_z
_atom_type_partial_charge
C1    C     C_R   0.117081 0.118735 0.497938 0.792396
C2    C     C_R   0.264729 0.009388 0.679255 -0.023018
C3    C     C_R   0.189539 0.002920 0.684814 -0.133202
C4    C     C_R   0.177612 0.992842 0.751376 0.403334
C5    C     C_R   0.241027 0.989432 0.812852 -0.293610
C6    C     C_R   0.314905 0.994134 0.807783 -0.129564
C7    C     C_R   0.182985 0.171852 0.416767 0.166809
C8    C     C_R   0.253065 0.234350 0.419985 0.126492
C9    C     C_R   0.314238 0.313772 0.498991 -0.055115
C10   C     C_R   0.308922 0.328603 0.575261 0.131126
C11   C     C_R   0.244415 0.262905 0.572700 -0.232426
C12   C     C_R   0.120202 0.001296 0.618604 0.853182
C13   C     C_R   0.182049 0.185213 0.495043 -0.108461
C14   C     C_R   0.755564 0.926367 0.233239 -0.172791
C15   C     C_R   0.690983 0.927136 0.170762 -0.217563
C16   C     C_R   0.685578 0.003100 0.188444 0.002941
C17   C     C_R   0.744659 0.079206 0.270431 0.170330
C18   C     C_R   0.808334 0.077031 0.333112 -0.163401
C19   C     C_R   0.814188 0.001165 0.314726 -0.060767
C20   C     C_R   0.819902 0.742629 0.495472 -0.195081
C21   C     C_R   0.757983 0.677181 0.496347 0.163225
C22   C     C_R   0.685864 0.684083 0.498236 -0.116285
C23   C     C_R   0.879601 0.881213 0.498492 0.802855
C24   C     C_R   0.676045 0.754549 0.497437 -0.200242
C25   C     C_R   0.737133 0.819280 0.495468 0.416291
C26   C     C_R   0.810901 0.813941 0.496349 -0.165790
C27   C     C_R   0.499508 0.881496 0.880770 0.754393
C28   C     C_R   0.381370 0.997162 0.878328 0.792640
C29   C     C_R   0.501003 0.118670 0.119935 0.760624
C30   C     C_R   0.618740 0.001180 0.119890 0.769645
C31   C     C_R   0.499706 0.619011 0.618983 0.798702
C32   C     C_R   0.381347 0.381823 0.500531 0.807015
C33   C     C_R   0.500126 0.381091 0.381280 0.789193
C34   C     C_R   0.881027 0.000221 0.381132 0.772511
C35   C     C_R   0.618904 0.617961 0.499130 0.818452
C36   C     C_R   0.570794 0.804285 0.832143 -0.219890
C37   C     C_R   0.571224 0.739617 0.769367 -0.171076
C38   C     C_R   0.498921 0.686068 0.685543 -0.114937
C39   C     C_R   0.425913 0.697378 0.665128 -0.152387
C40   C     C_R   0.424196 0.761477 0.727578 0.405933
C41   C     C_R   0.497710 0.815109 0.812140 -0.103088
C42   C     C_R   0.485528 0.247215 0.173047 -0.213699
C43   C     C_R   0.483342 0.310544 0.235446 -0.176008
C44   C     C_R   0.500306 0.313594 0.314895 -0.111162
C45   C     C_R   0.280783 0.025417 0.616225 -0.158140
C46   C     C_R   0.518492 0.252410 0.331347 -0.155660
C47   C     C_R   0.519669 0.187666 0.268999 0.407925
C48   C     C_R   0.502707 0.185246 0.188709 -0.112539
C49   C     C_R   0.352330 0.026073 0.607933 0.225271
C50   C     C_R   0.408622 0.010208 0.662463 -0.117873
C51   C     C_R   0.395735 0.997515 0.727042 -0.181662
C52   C     C_R   0.326020 0.000712 0.738918 0.094964
Cu1   Cu    Cu3+1 0.999980 0.061790 0.561790 0.999260
Cu2   Cu    Cu3+1 0.000020 0.938210 0.438210 0.950747
Cu3   Cu    Cu3+1 0.438200 0.938230 0.000040 0.981209
Cu4   Cu    Cu3+1 0.561800 0.061850 0.000040 0.958628
Cu5   Cu    Cu3+1 0.438190 0.500100 0.438300 0.963620
Cu6   Cu    Cu3+1 0.561810 0.500080 0.561880 0.953868
H1    H     H_    0.242326 0.273017 0.632050 0.172940
H2    H     H_    0.758986 0.867092 0.218324 0.157511
H3    H     H_    0.645833 0.868722 0.107931 0.142510
H4    H     H_    0.853906 0.135028 0.396240 0.158021
H5    H     H_    0.876253 0.738753 0.495243 0.166576
H6    H     H_    0.619938 0.759003 0.497676 0.175158
H7    H     H_    0.627132 0.845329 0.896848 0.148379
H8    H     H_    0.238819 0.038656 0.573523 0.147394
H9    H     H_    0.628358 0.732105 0.786095 0.164814
H10   H     H_    0.369660 0.656118 0.600404 0.175511
H11   H     H_    0.472425 0.245623 0.111770 0.156188
H12   H     H_    0.469675 0.357848 0.222204 0.161029
H13   H     H_    0.531471 0.254599 0.392851 0.170499
H14   H     H_    0.463132 0.008256 0.655584 0.143330
H15   H     H_    0.440260 0.983850 0.766265 0.155718
H16   H     H_    0.233222 0.984135 0.865752 0.155517
O1    O     O_R   0.090150 0.142360 0.552170 -0.594130
O2    O     O_R   0.552230 0.962090 0.909900 -0.585949
O3    O     O_R   0.357630 0.947820 0.909860 -0.578368
O4    O     O_R   0.462000 0.052220 0.909860 -0.589806
O5    O     O_R   0.447770 0.037990 0.090190 -0.574571
O6    O     O_R   0.552150 0.142390 0.090190 -0.579809
O7    O     O_R   0.538000 0.947860 0.090220 -0.580726
O8    O     O_R   0.642370 0.052260 0.090230 -0.578747
O9    O     O_R   0.447810 0.590260 0.538090 -0.587355
O10   O     O_R   0.552200 0.590240 0.642450 -0.590088
O11   O     O_R   0.357640 0.409920 0.447920 -0.577376
O12   O     O_R   0.090180 0.037990 0.447810 -0.590522
O13   O     O_R   0.462030 0.409900 0.552280 -0.582463
O14   O     O_R   0.447800 0.409940 0.357730 -0.584427
O15   O     O_R   0.552190 0.409920 0.462090 -0.587784
O16   O     O_R   0.537970 0.590270 0.447900 -0.586529
O17   O     O_R   0.642360 0.590260 0.552260 -0.579981
O18   O     O_R   0.090170 0.052200 0.642360 -0.540049
O19   O     O_R   0.090200 0.947840 0.538010 -0.598487
O20   O     O_R   0.909820 0.962010 0.552190 -0.555662
O21   O     O_R   0.909850 0.857640 0.447830 -0.586691
O22   O     O_R   0.909800 0.052160 0.461990 -0.590661
O23   O     O_R   0.909830 0.947800 0.357640 -0.591222
O24   O     O_R   0.447850 0.857690 0.909890 -0.574192
O25   O     O_3   0.102911 0.985365 0.754309 -0.717830
H17   H     H_    0.104518 0.978110 0.804562 0.323280
C53   C     C_3   0.741505 0.162773 0.294848 -0.851510
H18   H     H_    0.686726 0.157950 0.243248 0.230411
H19   H     H_    0.734331 0.181698 0.353574 0.249545
H20   H     H_    0.803047 0.215134 0.309643 0.236467
C54   C     C_3   0.768771 0.600141 0.492668 -0.805518
H21   H     H_    0.824364 0.601832 0.482783 0.222034
H22   H     H_    0.781326 0.600036 0.554540 0.249666
H23   H     H_    0.709080 0.538844 0.437791 0.221944
O26   O     O_3   0.720876 0.884566 0.490708 -0.713589
H24   H     H_    0.754709 0.912634 0.467844 0.324888
O27   O     O_3   0.350532 0.769660 0.702562 -0.728568
H25   H     H_    0.359952 0.821881 0.749509 0.313542
O28   O     O_3   0.539004 0.130157 0.290279 -0.730157
H26   H     H_    0.547837 0.093886 0.245885 0.325430
C55   C     C_3   0.367151 0.042843 0.540079 -0.857480
H27   H     H_    0.310215 0.992471 0.474705 0.239608
H28   H     H_    0.375437 0.107782 0.551835 0.235504
H29   H     H_    0.426187 0.041332 0.541153 0.237421
C56   C     C_3   0.108558 0.092883 0.330522 -0.806337
H30   H     H_    0.045344 0.078898 0.328447 0.225433
H31   H     H_    0.102847 0.102852 0.274511 0.227975
H32   H     H_    0.117709 0.035636 0.321016 0.243352
C57   C     C_3   0.263811 0.214452 0.340221 -0.823906
H33   H     H_    0.331006 0.255270 0.355953 0.220729
H34   H     H_    0.250338 0.146385 0.308196 0.234887
H35   H     H_    0.218560 0.224113 0.293799 0.239224
C58   C     C_3   0.369153 0.413276 0.660443 -0.829064
H36   H     H_    0.411169 0.466433 0.655239 0.231912
H37   H     H_    0.330100 0.435992 0.685115 0.230463
H38   H     H_    0.411184 0.402915 0.708857 0.236597

loop_
_geom_bond_atom_site_label_1
_geom_bond_atom_site_label_2
_ccdc_geom_bond_type
C8    C9    A    
Cu3   Cu4   S    
C27   O24   A    
C53   H18   S    
Cu4   O2    S    
C39   H10   S    
O27   H25   S    
Cu6   O13   S    
Cu5   Cu6   S    
Cu4   O4    S    
C7    C8    A    
Cu1   Cu2   S    
C22   C35   S    
C54   H22   S    
C36   C37   A    
C33   O14   A    
C34   O22   A    
C33   O15   A    
C5    C6    A    
Cu3   O3    S    
C57   H34   S    
C16   C30   S    
C15   C16   A    
C34   O23   A    
C31   O9    A    
C18   C19   A    
C23   C26   S    
C5    H16   S    
C50   H14   S    
Cu2   O19   S    
C17   C53   S    
C3    C12   S    
C9    C32   S    
C6    C28   S    
C47   C48   A    
Cu5   O11   S    
C16   C17   A    
C55   H28   S    
Cu5   O9    S    
Cu2   O23   S    
Cu3   O7    S    
C28   O4    A    
Cu6   O17   S    
C25   O26   S    
C24   H6    S    
C21   C22   A    
Cu1   O22   S    
C36   C41   A    
Cu1   O1    S    
C11   H1    S    
C44   C46   A    
C50   C51   A    
C40   O27   S    
C56   H31   S    
C2    C45   A    
C54   H23   S    
C46   H13   S    
Cu5   O16   S    
C29   C48   S    
C51   C52   A    
C1    O1    A    
C7    C56   S    
C10   C58   S    
C57   H33   S    
C24   C25   A    
C39   C40   A    
Cu2   O12   S    
C36   H7    S    
C18   H4    S    
C57   H35   S    
C25   C26   A    
C32   O13   A    
C42   H11   S    
C31   O10   A    
C30   O8    A    
C43   C44   A    
C58   H37   S    
C37   C38   A    
Cu6   O10   S    
Cu3   O5    S    
C27   C41   S    
O25   H17   S    
C29   O5    A    
C45   C49   A    
C55   H29   S    
Cu1   O18   S    
C17   C18   A    
C15   H3    S    
C42   C48   A    
C28   O3    A    
Cu2   O21   S    
C2    C52   A    
C40   C41   A    
C49   C55   S    
C53   H20   S    
C22   C24   A    
C12   O19   A    
C1    C13   S    
C42   C43   A    
C27   O2    A    
Cu5   O14   S    
O28   H26   S    
C9    C10   A    
C56   H32   S    
C1    O12   A    
C47   O28   S    
C46   C47   A    
Cu1   O20   S    
C33   C44   S    
C14   C19   A    
C12   O18   A    
C51   H15   S    
C4    C5    A    
C19   C34   S    
C56   H30   S    
C31   C38   S    
C8    C57   S    
Cu4   O8    S    
C58   H36   S    
C43   H12   S    
C14   H2    S    
C54   H21   S    
Cu4   O6    S    
C23   O20   A    
C20   H5    S    
C2    C3    A    
C58   H38   S    
O26   H24   S    
C11   C13   A    
C55   H27   S    
C38   C39   A    
C29   O6    A    
C20   C26   A    
C30   O7    A    
C32   O11   A    
C37   H9    S    
Cu3   O24   S    
C23   O21   A    
Cu6   O15   S    
C10   C11   A    
C35   O16   A    
C7    C13   A    
C20   C21   A    
C53   H19   S    
C49   C50   A    
C4    O25   S    
C45   H8    S    
C14   C15   A    
C6    C52   A    
C21   C54   S    
C3    C4    A    
C35   O17   A    
