data_mof_unit_18079.cif
_audit_creation_date              2013-03-05T16:48:19-0500
_audit_creation_method            fapswitch 2.2
_symmetry_space_group_name_H-M    P1
_symmetry_Int_Tables_number       1
_space_group_crystal_system       triclinic
_cell_length_a                    15.064266
_cell_length_b                    10.802405
_cell_length_c                    13.689458
_cell_angle_alpha                 90.345416
_cell_angle_beta                  89.310109
_cell_angle_gamma                 90.2047
_cell_volume                      2227.47402761

loop_
_atom_site_label
_atom_site_type_symbol
_atom_site_description
_atom_site_fract_x
_atom_site_fract_y
_atom_site_fract_z
_atom_type_partial_charge
O1    O     O_R   0.500000 0.319630 0.582270 -0.576862
O2    O     O_R   0.500000 0.680370 0.417730 -0.575430
O3    O     O_R   0.499990 0.319660 0.417730 -0.598369
O4    O     O_R   0.500010 0.680340 0.582270 -0.602188
C1    C     C_R   0.497400 0.262189 0.499657 0.815848
C2    C     C_R   0.502534 0.737808 0.500371 0.807700
O5    O     O_R   0.370260 0.499960 0.582280 -0.536604
O6    O     O_R   0.629740 0.500040 0.417720 -0.536505
O7    O     O_R   0.370250 0.499990 0.417740 -0.589049
O8    O     O_R   0.629750 0.500010 0.582260 -0.590252
C3    C     C_R   0.328774 0.496637 0.500625 0.835422
C4    C     C_R   0.671240 0.503563 0.499416 0.834672
Cu1   Cu    Cu3+1 0.500010 0.499980 0.597420 0.995869
Cu2   Cu    Cu3+1 0.499990 0.500020 0.402580 0.997120
C5    C     C_R   0.815389 0.582976 0.431566 0.327722
C6    C     C_R   0.184528 0.423378 0.571490 0.307746
C7    C     C_R   0.767811 0.509679 0.499020 -0.165283
C8    C     C_R   0.232207 0.493360 0.501976 -0.172703
C9    C     C_R   0.811737 0.439893 0.568094 -0.154520
C10   C     C_R   0.188287 0.566511 0.434982 -0.169819
C11   C     C_R   0.903885 0.438250 0.571132 -0.001414
C12   C     C_R   0.096314 0.577263 0.438259 -0.002466
C13   C     C_R   0.953347 0.511056 0.504389 -0.068369
C14   C     C_R   0.046698 0.504598 0.504860 -0.077870
C15   C     C_R   0.909379 0.588725 0.436484 -0.136305
C16   C     C_R   0.090496 0.423481 0.570191 -0.162349
C17   C     C_R   0.946750 0.360544 0.637736 0.372754
C18   C     C_R   0.053916 0.662094 0.377044 0.396026
C19   C     C_R   0.038952 0.345916 0.632247 0.253192
C20   C     C_R   0.961018 0.668274 0.375748 0.255683
H1    H     H_    0.772881 0.382265 0.617206 0.187302
H2    H     H_    0.227052 0.619842 0.382777 0.188059
H3    H     H_    0.282212 0.269710 0.126602 0.170933
H4    H     H_    0.712627 0.728350 0.876370 0.153270
C21   C     C_R   0.285509 0.242330 0.282396 0.536778
C22   C     C_R   0.711693 0.754771 0.718960 0.550521
C23   C     C_R   0.332971 0.189481 0.359632 -0.218655
C24   C     C_R   0.665013 0.808114 0.642072 -0.141972
H5    H     H_    0.311349 0.204786 0.434337 0.161449
H6    H     H_    0.687622 0.792383 0.567695 0.167228
C25   C     C_R   0.408911 0.117814 0.340455 0.044148
C26   C     C_R   0.590073 0.882068 0.660503 0.025983
C27   C     C_R   0.437041 0.098946 0.243358 -0.141102
C28   C     C_R   0.562176 0.902962 0.757406 -0.133370
H7    H     H_    0.495129 0.043351 0.227121 0.164438
H8    H     H_    0.504815 0.960202 0.773145 0.167520
C29   C     C_R   0.391355 0.153839 0.166810 -0.203940
C30   C     C_R   0.607036 0.847913 0.834435 -0.200548
H9    H     H_    0.414200 0.140594 0.092222 0.182686
H10   H     H_    0.584078 0.862407 0.908848 0.176422
C31   C     C_R   0.316667 0.226585 0.186352 -0.167071
C32   C     C_R   0.680691 0.772872 0.815666 -0.224730
C33   C     C_R   0.463613 0.932010 0.423282 -0.212719
C34   C     C_R   0.536214 0.067988 0.576946 -0.198656
H11   H     H_    0.433123 0.878915 0.365008 0.158742
H12   H     H_    0.566601 0.121123 0.635257 0.165439
C35   C     C_R   0.504315 0.871673 0.500929 -0.060000
C36   C     C_R   0.495592 0.128312 0.499236 -0.062713
C37   C     C_R   0.541815 0.939930 0.578662 0.032311
C38   C     C_R   0.457900 0.060032 0.421697 0.034044
C39   C     C_R   0.540585 0.405843 0.792126 0.078459
C40   C     C_R   0.459711 0.594266 0.207736 0.071287
N1    N     N_R   0.499960 0.499900 0.743810 -0.198045
N2    N     N_R   0.500040 0.500100 0.256190 -0.194475
C41   C     C_R   0.459431 0.593658 0.794441 0.094656
C42   C     C_R   0.540036 0.405776 0.205658 0.094870
C43   C     C_R   0.459042 0.596047 0.897391 -0.040648
C44   C     C_R   0.540410 0.403047 0.102630 -0.031029
C45   C     C_R   0.499993 0.499202 0.948258 0.011535
C46   C     C_R   0.499847 0.499844 0.051759 0.017234
C47   C     C_R   0.541009 0.401955 0.895451 -0.071902
C48   C     C_R   0.458898 0.597109 0.104546 -0.081724
C49   C     C_R   0.419006 0.693251 0.950149 -0.277893
C50   C     C_R   0.579715 0.305125 0.050115 -0.308212
C51   C     C_R   0.417827 0.693913 0.053111 0.475249
C52   C     C_R   0.581660 0.303858 0.946166 0.489263
H13   H     H_    0.572981 0.333876 0.749780 0.165209
H14   H     H_    0.427725 0.666940 0.249710 0.156105
H15   H     H_    0.427446 0.666957 0.754593 0.131371
H16   H     H_    0.571705 0.332336 0.245643 0.132145
H17   H     H_    0.388913 0.769430 0.911621 0.161456
H18   H     H_    0.607401 0.229205 0.090816 0.147207
N3    N     N_R   0.768129 0.644798 0.355744 0.155903
O9    O     O_R   0.773630 0.603697 0.266351 -0.320480
O10   O     O_R   0.711304 0.731410 0.377543 -0.344753
N4    N     N_R   0.231867 0.358761 0.645867 0.157765
O11   O     O_R   0.286753 0.270415 0.622363 -0.352446
O12   O     O_R   0.227061 0.397079 0.736059 -0.321366
O13   O     O_3   0.382203 0.794092 0.102977 -0.605882
C53   C     C_3   0.289614 0.777105 0.111133 -0.269699
H19   H     H_    0.261357 0.855919 0.153361 0.203908
H20   H     H_    0.272848 0.690772 0.151545 0.176970
H21   H     H_    0.257914 0.776352 0.038118 0.181464
O14   O     O_3   0.615656 0.205167 0.891287 -0.603658
C54   C     C_3   0.689522 0.148994 0.935080 -0.301678
H22   H     H_    0.736002 0.218153 0.967122 0.159687
H23   H     H_    0.726891 0.097114 0.877852 0.208355
H24   H     H_    0.667258 0.080745 0.990658 0.177464
O15   O     O_3   0.897963 0.286453 0.700925 -0.551973
C55   C     C_3   0.880222 0.354631 0.787262 -0.241002
H25   H     H_    0.849615 0.291583 0.841739 0.190489
H26   H     H_    0.832289 0.430456 0.773997 0.165277
H27   H     H_    0.941838 0.393258 0.819910 0.182822
O16   O     O_3   0.103318 0.737829 0.315497 -0.559144
C56   C     C_3   0.124429 0.848103 0.366140 -0.276723
H28   H     H_    0.165274 0.907588 0.317302 0.176475
H29   H     H_    0.164236 0.829522 0.432387 0.149950
H30   H     H_    0.063649 0.900885 0.386500 0.206772
N5    N     N_R   0.077412 0.242523 0.681483 0.192468
O17   O     O_R   0.067225 0.229794 0.775391 -0.294838
O18   O     O_R   0.111128 0.151861 0.630384 -0.337571
N6    N     N_R   0.921177 0.762227 0.317269 0.173357
O19   O     O_R   0.882020 0.855612 0.359793 -0.329358
O20   O     O_R   0.938553 0.767122 0.224030 -0.278857
O21   O     O_3   0.212477 0.317072 0.299377 -0.579566
C57   C     C_3   0.143379 0.246453 0.342028 -0.283522
H31   H     H_    0.158211 0.222865 0.418978 0.180899
H32   H     H_    0.129340 0.160944 0.298909 0.159830
H33   H     H_    0.082022 0.302952 0.343034 0.208911
O22   O     O_3   0.782598 0.678034 0.695859 -0.596201
C58   C     C_3   0.857538 0.708766 0.752018 -0.315477
H34   H     H_    0.852066 0.667971 0.826114 0.162614
H35   H     H_    0.868696 0.810676 0.756584 0.187084
H36   H     H_    0.917049 0.667771 0.716085 0.198418

loop_
_geom_bond_atom_site_label_1
_geom_bond_atom_site_label_2
_geom_bond_distance
_ccdc_geom_bond_type
C42   C44   1.410474 A    
N1    C41   1.365544 A    
C3    C8    1.454914 S    
C41   H15   1.082102 S    
C17   C19   1.399542 A    
C49   C51   1.409365 A    
C54   H22   1.113787 S    
C9    H1    1.084038 S    
N6    O20   1.301206 A    
C54   H24   1.110738 S    
C29   H9    1.082418 S    
O5    C3    1.287457 A    
C56   H29   1.112865 S    
C17   O15   1.384849 S    
C50   C52   1.422940 A    
C1    C36   1.446321 S    
O1    C1    1.287624 A    
C19   N5    1.435453 S    
C9    C11   1.389456 A    
C14   C16   1.425061 A    
C24   C26   1.404799 A    
C45   C46   1.416828 A    
N5    O18   1.301235 A    
C10   H2    1.084505 S    
C47   C52   1.415514 A    
N4    O12   1.301113 A    
C5    C15   1.419422 A    
C44   C50   1.404058 A    
O21   C57   1.411177 S    
C57   H31   1.110780 S    
C39   N1    1.366241 A    
O4    Cu1   1.960573 S    
C45   C47   1.411602 A    
O16   C56   1.411889 S    
C58   H36   1.109663 S    
C40   N2    1.366032 A    
C52   O14   1.395786 S    
N3    O9    1.301075 A    
C39   H13   1.081234 S    
C41   C43   1.409358 A    
C4    C7    1.455987 S    
C13   C14   1.408338 A    
C21   O21   1.383546 S    
C43   C49   1.404566 A    
C22   C32   1.411229 A    
C39   C47   1.415440 A    
C30   H10   1.082504 S    
C11   C17   1.407189 A    
C12   C18   1.405789 A    
Cu1   Cu2   2.667262 S    
C6    N4    1.436006 S    
C25   C27   1.404166 A    
C2    C35   1.446186 S    
O2    C2    1.287914 A    
C26   C28   1.403904 A    
C50   H18   1.081916 S    
C48   C51   1.412824 A    
O2    Cu2   1.957977 S    
C49   H17   1.083760 S    
N6    O19   1.301295 A    
C33   C38   1.386246 A    
C28   H8    1.083119 S    
C34   C37   1.386562 A    
C33   H11   1.085242 S    
C6    C16   1.416840 A    
C56   H30   1.112101 S    
C34   H12   1.085173 S    
O4    C2    1.284916 A    
C33   C35   1.399119 A    
N4    O11   1.301330 A    
C5    N3    1.435185 S    
C55   H27   1.113735 S    
C20   N6    1.434181 S    
C43   C45   1.408425 A    
N2    C42   1.365865 A    
O7    Cu2   1.962937 S    
O7    C3    1.289338 A    
C18   O16   1.386326 S    
C53   H20   1.113894 S    
O15   C55   1.412108 S    
Cu1   N1    2.003995 S    
C30   C32   1.396880 A    
O6    C4    1.288102 A    
Cu2   N2    2.003996 S    
C55   H26   1.111060 S    
C40   C48   1.413345 A    
C27   H7    1.083171 S    
C58   H34   1.110405 S    
O3    Cu2   1.960573 S    
O8    C4    1.289014 A    
C44   C46   1.405460 A    
N3    O10   1.301323 A    
C10   C12   1.390932 A    
C11   C13   1.413017 A    
C21   C31   1.400339 A    
C12   C14   1.412127 A    
O1    Cu1   1.957977 S    
O22   C58   1.410967 S    
C53   H21   1.112900 S    
C34   C36   1.399168 A    
C15   C20   1.422369 A    
C5    C7    1.407875 A    
O6    Cu2   1.968026 S    
C21   C23   1.408349 A    
C40   H14   1.081315 S    
C25   C38   1.484096 S    
O3    C1    1.285291 A    
O8    Cu1   1.962937 S    
C26   C37   1.485157 S    
C29   C31   1.396966 A    
C54   H23   1.109527 S    
H3    C31   1.082592 S    
C42   H16   1.082046 S    
C56   H28   1.109477 S    
H4    C32   1.081408 S    
C57   H33   1.109339 S    
C18   C20   1.401604 A    
C23   H5    1.081490 S    
N5    O17   1.300886 A    
C24   H6    1.082380 S    
C53   H19   1.109481 S    
C27   C29   1.396832 A    
C22   C24   1.400877 A    
C55   H25   1.108247 S    
C7    C9    1.388347 A    
C57   H32   1.114188 S    
C8    C10   1.389375 A    
C13   C15   1.426524 A    
C23   C25   1.404854 A    
O14   C54   1.411046 S    
C22   O22   1.386753 S    
C58   H35   1.114533 S    
C35   C37   1.413218 A    
C51   O13   1.382573 S    
O5    Cu1   1.968025 S    
C16   C19   1.419395 A    
C6    C8    1.407574 A    
C46   C48   1.411170 A    
O13   C53   1.409333 S    
C36   C38   1.412530 A    
C28   C30   1.396364 A    
