data_mof_unit_51439.cif
_audit_creation_date              2012-12-11T14:17:49-0500
_audit_creation_method            fapswitch 2.2
_symmetry_space_group_name_H-M    P1
_symmetry_Int_Tables_number       1
_space_group_crystal_system       triclinic
_cell_length_a                    6.943221
_cell_length_b                    13.64197
_cell_length_c                    20.421385
_cell_angle_alpha                 102.098717
_cell_angle_beta                  89.639496
_cell_angle_gamma                 90.663852
_cell_volume                      1891.19104151

loop_
_atom_site_label
_atom_site_type_symbol
_atom_type_description
_atom_site_fract_x
_atom_site_fract_y
_atom_site_fract_z
_atom_type_partial_charge
O1    O     O_R   0.506860 0.599390 0.449240 -0.536136
O2    O     O_R   0.180220 0.594600 0.586780 -0.545953
O3    O     O_R   0.004500 0.400610 0.550760 -0.540970
C1    C     C_R   0.348750 0.616017 0.613483 0.730105
O4    O     O_R   0.177490 0.611290 0.451970 -0.542315
O5    O     O_R   0.001750 0.417420 0.414990 -0.533599
C2    C     C_R   0.347259 0.637904 0.435204 0.721162
O6    O     O_R   0.509610 0.582580 0.585010 -0.546271
O7    O     O_3   0.337420 0.436370 0.488020 -0.364035
V1    V     V_3+5 0.064680 0.511800 0.502220 1.439300
O8    O     O_R   0.671710 0.405400 0.413220 -0.528102
C3    C     C_R   0.840938 0.385101 0.386060 0.752048
O9    O     O_R   0.674440 0.388710 0.548030 -0.544263
C4    C     C_R   0.842263 0.362129 0.564840 0.687615
V2    V     V_3+5 0.564010 0.488200 0.497780 1.454225
O10   O     O_3   0.841140 0.563630 0.511980 -0.379060
C5    C     C_R   0.835145 0.111151 0.612664 -0.158579
H1    H     H_    0.827037 0.161397 0.519969 0.103657
H2    H     H_    0.834786 0.985826 0.695768 0.121576
H3    H     H_    0.826700 0.032857 0.587688 0.112638
C6    C     C_R   0.847427 0.285201 0.604923 -0.028856
C7    C     C_R   0.874492 0.315298 0.928493 -0.167930
C8    C     C_R   0.875187 0.391409 0.892767 -0.119071
C9    C     C_R   0.868093 0.368713 0.823039 -0.157358
C10   C     C_R   0.859873 0.267991 0.786902 0.077180
C11   C     C_R   0.857567 0.190237 0.823997 0.067347
C12   C     C_R   0.853941 0.241835 0.715360 0.071790
C13   C     C_R   0.843870 0.138933 0.682807 0.141969
C14   C     C_R   0.841938 0.064358 0.720313 -0.202798
C15   C     C_R   0.849086 0.089377 0.789710 -0.194873
C16   C     C_R   0.857068 0.314082 0.674719 -0.214403
C17   C     C_R   0.835756 0.183948 0.574002 -0.174921
C18   C     C_R   0.865212 0.215052 0.894901 -0.073953
H4    H     H_    0.864996 0.393428 0.695444 0.093421
H5    H     H_    0.881501 0.334601 0.982684 0.103508
H6    H     H_    0.869293 0.431946 0.799154 0.106782
H7    H     H_    0.881966 0.468880 0.919340 0.118948
H8    H     H_    0.847538 0.028559 0.816312 0.116993
C19   C     C_2   0.007871 0.299849 0.279069 -0.008999
C20   C     C_2   0.849223 0.315483 0.319408 -0.343048
H9    H     H_    0.717136 0.274378 0.303869 0.141314
C21   C     C_2   0.012926 0.226221 0.213761 -0.174950
C22   C     C_2   0.856914 0.185660 0.179175 -0.321290
H10   H     H_    0.154489 0.207307 0.191961 0.140179
H11   H     H_    0.713099 0.205111 0.198049 0.135694
C23   C     C_2   0.204930 0.790623 0.782711 -0.134938
C24   C     C_2   0.364311 0.815870 0.819858 -0.306620
H12   H     H_    0.067134 0.820510 0.802487 0.131434
H13   H     H_    0.503039 0.786413 0.801417 0.127342
C25   C     C_2   0.202695 0.722260 0.715194 -0.132388
C26   C     C_2   0.360572 0.684162 0.680214 -0.308865
H14   H     H_    0.061331 0.703402 0.693391 0.132908
H15   H     H_    0.503731 0.702546 0.700051 0.125029
C27   C     C_R   0.417036 0.886363 0.386653 -0.154916
H16   H     H_    0.414737 0.836012 0.479381 0.103564
H17   H     H_    0.447954 0.010496 0.303153 0.123099
H18   H     H_    0.446384 0.963438 0.411290 0.112535
C28   C     C_R   0.360056 0.714622 0.395043 -0.039521
C29   C     C_R   0.317317 0.686207 0.071927 -0.169163
C30   C     C_R   0.298143 0.610781 0.107885 -0.117184
C31   C     C_R   0.312706 0.632889 0.177461 -0.155869
C32   C     C_R   0.347524 0.732299 0.213195 0.075866
C33   C     C_R   0.368859 0.809207 0.175840 0.068319
C34   C     C_R   0.361891 0.757960 0.284582 0.067497
C35   C     C_R   0.399393 0.859338 0.316700 0.143402
C36   C     C_R   0.419754 0.933095 0.278940 -0.203703
C37   C     C_R   0.404333 0.908686 0.209710 -0.194902
C38   C     C_R   0.341036 0.686613 0.325473 -0.210634
C39   C     C_R   0.398645 0.814239 0.425532 -0.180625
C40   C     C_R   0.352965 0.785051 0.105113 -0.074620
H19   H     H_    0.311876 0.608523 0.305077 0.120764
H20   H     H_    0.303909 0.667499 0.017882 0.102829
H21   H     H_    0.296007 0.570249 0.201542 0.117558
H22   H     H_    0.270951 0.534365 0.081623 0.120210
H23   H     H_    0.421059 0.968843 0.182897 0.119634
O11   O     O_R   0.203230 0.917310 0.915020 -0.539061
O12   O     O_R   0.535500 0.888690 0.048040 -0.541193
O13   O     O_R   0.711080 0.082610 0.085000 -0.545098
C41   C     C_R   0.365787 0.862263 0.064984 0.687949
O14   O     O_R   0.532630 0.905370 0.913230 -0.548644
O15   O     O_R   0.708190 0.099410 0.949230 -0.538733
C42   C     C_R   0.364690 0.884230 0.886492 0.743554
O16   O     O_R   0.206120 0.900510 0.050790 -0.538437
O17   O     O_3   0.375360 0.063570 0.011990 -0.372284
V3    V     V_3+5 0.648170 0.988200 0.997780 1.415337
O18   O     O_R   0.038240 0.111390 0.951940 -0.541154
C43   C     C_R   0.870438 0.137634 0.934928 0.687170
O19   O     O_R   0.041120 0.094710 0.086750 -0.542188
C44   C     C_R   0.871848 0.116120 0.113276 0.753584
V4    V     V_3+5 0.148810 0.011930 0.002180 1.423216
O20   O     O_3   0.871750 0.936430 0.988010 -0.373071
C45   C     C_1   0.186536 0.354297 0.297305 0.305450
N1    N     N_1   0.329684 0.397623 0.311522 -0.380156

loop_
_geom_bond_atom_site_label_1
_geom_bond_atom_site_label_2
_ccdc_geom_bond_type
C1    O6    A    
V3    O20   S    
C24   H13   S    
C27   C35   A    
C7    H5    S    
C6    C16   A    
C32   C33   A    
C21   H10   S    
C34   C38   A    
C4    C6    S    
C13   C14   A    
O5    C3    A    
V2    O10   S    
C5    H3    S    
C15   H8    S    
C24   C42   S    
O16   V4    S    
C32   C34   A    
O8    V2    S    
C25   H14   S    
C8    C9    A    
O1    V2    S    
C14   C15   A    
O7    V1    S    
C2    C28   S    
C29   H20   S    
C36   C37   A    
O12   V3    S    
C29   C30   A    
O9    C4    A    
O17   V4    S    
C19   C21   S    
C33   C37   A    
O12   C41   A    
O13   C44   A    
C6    C17   A    
C23   H12   S    
C1    C26   S    
C12   C16   A    
C9    C10   A    
O14   C42   A    
O18   V4    S    
O11   C42   A    
C19   C20   D    
O4    C2    A    
O18   C43   A    
C31   H21   S    
C10   C11   A    
C8    H7    S    
C30   C31   A    
C26   H15   S    
C3    C20   S    
O2    C1    A    
O14   V3    S    
C11   C18   A    
C33   C40   A    
C25   C26   D    
C16   H4    S    
C22   C44   S    
O17   V3    S    
C22   H11   S    
H16   C39   S    
O3    C4    A    
O13   V3    S    
C28   C38   A    
C20   H9    S    
O19   V4    S    
C11   C15   A    
O6    V2    S    
O9    V2    S    
C37   H23   S    
C21   C22   D    
O2    V1    S    
C19   C45   S    
C7    C18   A    
C23   C24   D    
C40   C41   S    
O1    C2    A    
C5    C13   A    
O5    V1    S    
O8    C3    A    
C28   C39   A    
C10   C12   A    
C23   C25   S    
C9    H6    S    
C34   C35   A    
O7    V2    S    
O4    V1    S    
O3    V1    S    
V1    O10   S    
C41   O16   A    
O15   C43   A    
V4    O20   S    
C27   C39   A    
C38   H19   S    
H17   C36   S    
C30   H22   S    
C45   N1    T    
C18   C43   S    
C31   C32   A    
C29   C40   A    
H1    C17   S    
O19   C44   A    
C35   C36   A    
C12   C13   A    
C5    C17   A    
C7    C8    A    
O15   V3    S    
O11   V4    S    
C27   H18   S    
H2    C14   S    
