data_mof_unit_43664.cif
_audit_creation_date              2013-03-05T16:17:53-0500
_audit_creation_method            fapswitch 2.2
_symmetry_space_group_name_H-M    P1
_symmetry_Int_Tables_number       1
_space_group_crystal_system       triclinic
_cell_length_a                    14.924397
_cell_length_b                    15.913922
_cell_length_c                    9.972544
_cell_angle_alpha                 90.468796
_cell_angle_beta                  90.336516
_cell_angle_gamma                 89.856344
_cell_volume                      2368.40864687

loop_
_atom_site_label
_atom_site_type_symbol
_atom_site_description
_atom_site_fract_x
_atom_site_fract_y
_atom_site_fract_z
_atom_type_partial_charge
O1    O     O_R   0.092530 0.407440 0.616040 -0.524971
O2    O     O_R   0.092530 0.407440 0.383960 -0.485434
O3    O     O_R   0.092530 0.592560 0.383960 -0.647315
O4    O     O_R   0.092530 0.592560 0.616040 -0.689289
O5    O     O_R   0.592530 0.907440 0.616040 -0.525124
O6    O     O_R   0.592530 0.907440 0.383960 -0.485461
O7    O     O_R   0.592530 0.092560 0.383960 -0.647325
O8    O     O_R   0.592530 0.092560 0.616040 -0.689235
C1    C     C_R   0.124962 0.383686 0.500047 1.143088
C2    C     C_R   0.124679 0.617371 0.500863 1.130135
C3    C     C_R   0.624960 0.883682 0.500041 1.143032
C4    C     C_R   0.624679 0.117369 0.500864 1.130215
O9    O     O_R   0.907330 0.407420 0.616040 -0.522170
O10   O     O_R   0.907330 0.407420 0.383960 -0.546580
O11   O     O_R   0.907330 0.592580 0.383960 -0.581999
O12   O     O_R   0.907330 0.592580 0.616040 -0.606570
O13   O     O_R   0.407330 0.907420 0.616040 -0.522134
O14   O     O_R   0.407330 0.907420 0.383960 -0.546640
O15   O     O_R   0.407330 0.092580 0.383960 -0.581844
O16   O     O_R   0.407330 0.092580 0.616040 -0.606546
C5    C     C_R   0.879419 0.378687 0.499396 0.990613
C6    C     C_R   0.879009 0.621600 0.500586 0.966280
C7    C     C_R   0.379428 0.878682 0.499402 0.990626
C8    C     C_R   0.378993 0.121587 0.500580 0.966348
Zn1   Zn    Zn3+2 0.999890 0.500000 0.654960 1.107186
Zn2   Zn    Zn3+2 0.999890 0.500000 0.345040 1.138852
Zn3   Zn    Zn3+2 0.499890 0.000000 0.654960 1.107174
Zn4   Zn    Zn3+2 0.499890 0.000000 0.345040 1.138896
C9    C     C_3   0.814786 0.262861 0.636401 1.107116
C10   C     C_3   0.833724 0.242671 0.388933 1.070906
C11   C     C_3   0.814631 0.741709 0.367973 0.988421
C12   C     C_3   0.832659 0.757310 0.616316 1.003280
C13   C     C_3   0.314690 0.762942 0.636511 1.107205
C14   C     C_3   0.333846 0.742593 0.389124 1.070802
C15   C     C_3   0.314478 0.241627 0.367858 0.987798
C16   C     C_3   0.332740 0.257351 0.616169 1.004018
C17   C     C_3   0.250409 0.687495 0.634280 0.888197
C18   C     C_3   0.259037 0.676246 0.382635 0.906138
C19   C     C_3   0.242652 0.310557 0.364093 1.012665
C20   C     C_3   0.263733 0.329913 0.614598 0.967716
C21   C     C_3   0.750524 0.187398 0.634164 0.888494
C22   C     C_3   0.758920 0.176326 0.382485 0.905829
C23   C     C_3   0.742990 0.810819 0.364322 1.012241
C24   C     C_3   0.763449 0.829692 0.615022 0.967790
C25   C     C_3   0.711689 0.345221 0.473097 -0.604320
C26   C     C_3   0.710661 0.655987 0.524803 -0.601383
C27   C     C_3   0.211726 0.845200 0.472910 -0.604382
C28   C     C_3   0.210663 0.156003 0.525056 -0.601629
C29   C     C_3   0.810686 0.309943 0.498955 -0.853168
C30   C     C_3   0.809986 0.691321 0.502755 -0.792382
C31   C     C_3   0.310703 0.809936 0.498980 -0.853100
C32   C     C_3   0.309967 0.191309 0.502744 -0.792422
C33   C     C_3   0.193091 0.686261 0.502320 -0.778324
C34   C     C_3   0.193060 0.315694 0.500719 -0.897740
C35   C     C_3   0.693083 0.186260 0.502319 -0.778434
C36   C     C_3   0.693053 0.815683 0.500697 -0.897635
C37   C     C_3   0.142579 0.771090 0.491683 1.153017
C38   C     C_3   0.142963 0.232329 0.524241 1.162379
C39   C     C_3   0.642562 0.271099 0.491937 1.153102
C40   C     C_3   0.642894 0.732263 0.523495 1.162426
C41   C     C_3   0.089914 0.481163 0.079909 0.165021
C42   C     C_3   0.087433 0.471468 0.920328 0.119468
C43   C     C_3   0.970971 0.583800 0.920008 0.139956
C44   C     C_3   0.961670 0.580926 0.080181 0.123582
C45   C     C_3   0.589896 0.981126 0.079886 0.165045
C46   C     C_3   0.587398 0.971398 0.920320 0.119542
C47   C     C_3   0.471043 0.083824 0.920005 0.139865
C48   C     C_3   0.461715 0.080945 0.080172 0.123593
C49   C     C_3   0.938984 0.432160 0.078797 1.123738
C50   C     C_3   0.932228 0.437811 0.918170 1.133818
C51   C     C_3   0.438939 0.932192 0.078797 1.123776
C52   C     C_3   0.432166 0.937867 0.918173 1.133824
N1    N     N_3   0.998760 0.500000 0.138610 -0.391764
N2    N     N_3   0.998760 0.500000 0.861390 -0.392908
N3    N     N_3   0.498760 0.000000 0.138610 -0.391642
N4    N     N_3   0.498760 0.000000 0.861390 -0.392869
F1    F     F_    0.791147 0.316709 0.740572 -0.499620
F2    F     F_    0.843492 0.278226 0.263478 -0.476239
F3    F     F_    0.801736 0.690413 0.257428 -0.506166
F4    F     F_    0.831977 0.721267 0.741504 -0.525675
F5    F     F_    0.290995 0.816854 0.740568 -0.499708
F6    F     F_    0.343717 0.778074 0.263632 -0.476005
F7    F     F_    0.301723 0.190278 0.257354 -0.506139
F8    F     F_    0.331863 0.221397 0.741430 -0.525482
F9    F     F_    0.901225 0.235152 0.663845 -0.426126
F10   F     F_    0.914106 0.203518 0.418401 -0.444212
F11   F     F_    0.898411 0.777907 0.354981 -0.474034
F12   F     F_    0.917935 0.789517 0.599821 -0.476726
F13   F     F_    0.401097 0.735224 0.664145 -0.425868
F14   F     F_    0.414222 0.703475 0.418823 -0.444447
F15   F     F_    0.398163 0.278018 0.354844 -0.473851
F16   F     F_    0.418118 0.289328 0.599724 -0.476928
F17   F     F_    0.297598 0.612710 0.647143 -0.490866
F18   F     F_    0.297048 0.596687 0.384387 -0.453753
F19   F     F_    0.281756 0.387238 0.335525 -0.450932
F20   F     F_    0.306612 0.406325 0.597133 -0.466971
F21   F     F_    0.797740 0.112612 0.646787 -0.490589
F22   F     F_    0.796946 0.096773 0.384066 -0.453830
F23   F     F_    0.782333 0.887516 0.336522 -0.451178
F24   F     F_    0.806158 0.906271 0.598417 -0.467156
F25   F     F_    0.196905 0.696725 0.744484 -0.558863
F26   F     F_    0.213342 0.686775 0.263441 -0.600897
F27   F     F_    0.182941 0.291424 0.261463 -0.418291
F28   F     F_    0.222228 0.332455 0.738035 -0.446074
F29   F     F_    0.697128 0.196528 0.744504 -0.558879
F30   F     F_    0.713131 0.186908 0.263383 -0.601156
F31   F     F_    0.683531 0.792059 0.261221 -0.417832
F32   F     F_    0.721655 0.831709 0.738271 -0.445984
C53   C     C_2   0.688443 0.415036 0.571007 0.580458
H1    H     H_    0.739911 0.445515 0.630271 0.075016
O17   O     O_2   0.611051 0.439197 0.582283 -0.302760
C54   C     C_2   0.707256 0.385427 0.334499 0.779434
H2    H     H_    0.749269 0.438656 0.315410 0.059941
O18   O     O_2   0.660443 0.359317 0.242514 -0.297779
C55   C     C_2   0.686188 0.593661 0.414032 0.555685
H3    H     H_    0.736112 0.571647 0.344566 0.128687
O19   O     O_2   0.610108 0.566240 0.402251 -0.315693
C56   C     C_2   0.702753 0.608570 0.656872 0.675685
H4    H     H_    0.761035 0.585560 0.709148 0.177525
O20   O     O_2   0.629733 0.590783 0.703512 -0.284143
C57   C     C_2   0.188404 0.915039 0.570727 0.580034
H5    H     H_    0.239833 0.945527 0.630050 0.074854
O21   O     O_2   0.111005 0.939206 0.581858 -0.302802
C58   C     C_2   0.207399 0.885372 0.334283 0.780146
H6    H     H_    0.249216 0.938765 0.315372 0.059568
O22   O     O_2   0.160904 0.859051 0.242087 -0.297914
C59   C     C_2   0.186024 0.093799 0.414177 0.555960
H7    H     H_    0.235899 0.071720 0.344686 0.128319
O23   O     O_2   0.109902 0.066481 0.402410 -0.315020
C60   C     C_2   0.202857 0.108458 0.657013 0.676027
H8    H     H_    0.261168 0.085469 0.709232 0.177680
O24   O     O_2   0.129861 0.090608 0.703675 -0.284504
F33   F     F_    0.093152 0.781600 0.608188 -0.508350
F34   F     F_    0.079495 0.767553 0.389565 -0.525603
F35   F     F_    0.079045 0.223235 0.423865 -0.463411
F36   F     F_    0.095641 0.239042 0.643602 -0.444119
F37   F     F_    0.593285 0.281554 0.608594 -0.508541
F38   F     F_    0.579352 0.267603 0.389982 -0.525342
F39   F     F_    0.579429 0.723224 0.422421 -0.463146
F40   F     F_    0.595008 0.738825 0.642364 -0.444287
F41   F     F_    0.119145 0.404956 0.128945 -0.370756
F42   F     F_    0.099230 0.386593 0.891263 -0.368254
F43   F     F_    0.886056 0.602144 0.873045 -0.464921
F44   F     F_    0.870643 0.583937 0.107956 -0.428609
F45   F     F_    0.619058 0.904914 0.128905 -0.370720
F46   F     F_    0.599083 0.886503 0.891313 -0.368313
F47   F     F_    0.386157 0.102254 0.873009 -0.465012
F48   F     F_    0.370684 0.083980 0.107890 -0.428515
C61   C     C_2   0.160855 0.542269 0.124393 0.541507
H9    H     H_    0.162051 0.604752 0.084416 0.067772
O25   O     O_2   0.224479 0.518633 0.191286 -0.243829
C62   C     C_2   0.167930 0.510429 0.855387 0.629003
H10   H     H_    0.164523 0.571131 0.816061 0.101491
O26   O     O_2   0.241426 0.476774 0.861877 -0.272151
C63   C     C_2   0.024708 0.656350 0.864038 0.576080
H11   H     H_    0.007139 0.680831 0.766603 0.250894
O27   O     O_2   0.084166 0.691672 0.926771 -0.513160
C64   C     C_2   0.994657 0.660826 0.146205 0.762975
H12   H     H_    0.055650 0.664578 0.200954 0.096354
O28   O     O_2   0.955839 0.726959 0.123936 -0.270414
C65   C     C_2   0.660895 0.042176 0.124363 0.541061
H13   H     H_    0.662144 0.104663 0.084411 0.068092
O29   O     O_2   0.724499 0.018481 0.191248 -0.244015
C66   C     C_2   0.667930 0.010249 0.855321 0.628981
H14   H     H_    0.664618 0.070980 0.816072 0.101476
O30   O     O_2   0.741349 0.976432 0.861599 -0.272154
C67   C     C_2   0.524850 0.156334 0.864068 0.575887
H15   H     H_    0.507271 0.180858 0.766662 0.250997
O31   O     O_2   0.584348 0.191594 0.926805 -0.513206
C68   C     C_2   0.494720 0.160832 0.146213 0.762984
H16   H     H_    0.555729 0.164573 0.200919 0.096368
O32   O     O_2   0.455904 0.226972 0.123988 -0.270325
F49   F     F_    0.969671 0.352979 0.114143 -0.417427
F50   F     F_    0.945627 0.358422 0.863634 -0.428365
F51   F     F_    0.845226 0.458642 0.881358 -0.510534
F52   F     F_    0.853674 0.437050 0.131525 -0.538171
F53   F     F_    0.469587 0.852991 0.114104 -0.417351
F54   F     F_    0.445471 0.858470 0.863620 -0.428388
F55   F     F_    0.345181 0.958784 0.881392 -0.510598
F56   F     F_    0.353641 0.937112 0.131554 -0.538333

loop_
_geom_bond_atom_site_label_1
_geom_bond_atom_site_label_2
_geom_bond_distance
_ccdc_geom_bond_type
C8    C32   1.512263 S    
C64   O28   1.221402 D    
C20   F28   1.381543 S    
C35   C39   1.548640 S    
C63   O27   1.218609 D    
C60   O24   1.222188 D    
C52   F54   1.385868 S    
C52   N4    1.518831 S    
O9    Zn1   2.055265 S    
C5    C29   1.501531 S    
C65   H13   1.074518 S    
C25   C54   1.528838 S    
C67   O31   1.218611 D    
C9    C29   1.568283 S    
C48   N3    1.519716 S    
C14   C31   1.565695 S    
O13   C7    1.312289 A    
C26   C40   1.578109 S    
C11   C23   1.532442 S    
C26   C55   1.522043 S    
O10   C5    1.312645 A    
C66   H14   1.046631 S    
C23   F23   1.386508 S    
O5    C3    1.309164 A    
C61   O25   1.217787 D    
C25   C53   1.514073 S    
C27   C57   1.514029 S    
C19   C34   1.555836 S    
C12   F4    1.378267 S    
C68   H16   1.060253 S    
C39   F37   1.388608 S    
C55   H3    1.076368 S    
C12   F12   1.384420 S    
Zn2   N1    2.058603 S    
C26   C56   1.528571 S    
Zn1   N2    2.058801 S    
C2    C33   1.499910 S    
C56   H4    1.076419 S    
C21   C35   1.565394 S    
O5    Zn3   2.053940 S    
C48   C68   1.509397 S    
O11   C6    1.319330 A    
O6    Zn4   2.055425 S    
O16   C8    1.311391 A    
C55   O19   1.222111 D    
C15   F7    1.379121 S    
C50   N2    1.518793 S    
C44   N1    1.519680 S    
C49   N1    1.518305 S    
C49   F52   1.382128 S    
C10   F10   1.381610 S    
C50   F51   1.387399 S    
C9    F9    1.388726 S    
C48   F48   1.388654 S    
C6    C30   1.512235 S    
C17   C33   1.565380 S    
C16   F16   1.384393 S    
O1    Zn1   2.053940 S    
C28   C60   1.528497 S    
C41   C42   1.597858 S    
C49   F49   1.387187 S    
C42   F42   1.390099 S    
C20   F20   1.388236 S    
C54   O18   1.220633 D    
C54   H2    1.074081 S    
C65   O29   1.217816 D    
O4    Zn1   2.063444 S    
C63   H11   1.080453 S    
C24   F32   1.381684 S    
O7    C4    1.316088 A    
C51   N3    1.518337 S    
C11   F11   1.385205 S    
C17   F17   1.387820 S    
C47   C48   1.605174 S    
O13   Zn3   2.055265 S    
O1    C1    1.309102 A    
C16   C20   1.545475 S    
O14   Zn4   2.062868 S    
C67   H15   1.080467 S    
C33   C37   1.548632 S    
O11   Zn2   2.053361 S    
C27   C31   1.599464 S    
C44   F44   1.388698 S    
C39   F38   1.383795 S    
C41   N1    1.512530 S    
C13   C17   1.538672 S    
O7    Zn4   2.055841 S    
O14   C7    1.312683 A    
C51   F56   1.382110 S    
O2    C1    1.310373 A    
C15   C19   1.532362 S    
C59   O23   1.222101 D    
C13   F13   1.388696 S    
C22   C35   1.558362 S    
C27   C37   1.582065 S    
C50   F50   1.385884 S    
C24   C36   1.560867 S    
C7    C31   1.501468 S    
C14   F14   1.381779 S    
C25   C29   1.599485 S    
O8    C4    1.311567 A    
C46   N4    1.514854 S    
C18   F18   1.386276 S    
C12   C24   1.545327 S    
C46   C66   1.505457 S    
O2    Zn2   2.055425 S    
C23   F31   1.385396 S    
O10   Zn2   2.062868 S    
C28   C38   1.578038 S    
O15   Zn4   2.053361 S    
C22   F30   1.378140 S    
C12   C30   1.574058 S    
C57   H5    1.079980 S    
C42   C62   1.505511 S    
C40   F40   1.390849 S    
C41   F41   1.380132 S    
O16   Zn3   2.054851 S    
C10   C29   1.565739 S    
C62   O26   1.221052 D    
C20   C34   1.560877 S    
C47   F47   1.379888 S    
C64   H12   1.060284 S    
C21   F21   1.387818 S    
C37   F34   1.383739 S    
C11   C30   1.572726 S    
C45   F45   1.379811 S    
C59   H7    1.076346 S    
O6    C3    1.310329 A    
C57   O21   1.221951 D    
C62   H10   1.046560 S    
C58   O22   1.220648 D    
C34   C38   1.544741 S    
C47   C67   1.519222 S    
O12   Zn1   2.054851 S    
O8    Zn3   2.063444 S    
C25   C39   1.582105 S    
O12   C6    1.311328 A    
C9    C21   1.538696 S    
C14   C18   1.539305 S    
C37   F33   1.388629 S    
O3    Zn2   2.055841 S    
C10   C22   1.539215 S    
O4    C2    1.311582 A    
C22   F22   1.386249 S    
C16   C32   1.573980 S    
C11   F3    1.379237 S    
C47   N4    1.509824 S    
C43   N2    1.509804 S    
C38   F35   1.385667 S    
C13   C31   1.568302 S    
C14   F6    1.385939 S    
C26   C30   1.603738 S    
C45   N3    1.512483 S    
C38   F36   1.390861 S    
C51   F53   1.387185 S    
C53   O17   1.221952 D    
O15   C8    1.319289 A    
C19   F19   1.386398 S    
C43   C63   1.519273 S    
C51   C52   1.607679 S    
C18   F26   1.378130 S    
O3    C2    1.316094 A    
C61   H9    1.074547 S    
O9    C5    1.312359 A    
C28   C59   1.522151 S    
C17   F25   1.368977 S    
C24   F24   1.388281 S    
C27   C58   1.528812 S    
C18   C33   1.558381 S    
C41   C61   1.501986 S    
C16   F8    1.378371 S    
C66   O30   1.221055 D    
C60   H8    1.076368 S    
C49   C50   1.607675 S    
C44   C64   1.509396 S    
C56   O20   1.222173 D    
C46   F46   1.390077 S    
C4    C35   1.499858 S    
C40   F39   1.385975 S    
C43   C44   1.605200 S    
C10   F2    1.385938 S    
C36   C40   1.544771 S    
C23   C36   1.555945 S    
C28   C32   1.603668 S    
C9    F1    1.387879 S    
C21   F29   1.368970 S    
C45   C46   1.597758 S    
C45   C65   1.502007 S    
C15   C32   1.572948 S    
C19   F27   1.385612 S    
C43   F43   1.379854 S    
C42   N2    1.515005 S    
C1    C34   1.482642 S    
C68   O32   1.221396 D    
C52   F55   1.387402 S    
C53   H1    1.080003 S    
Zn4   N3    2.058603 S    
C13   F5    1.387878 S    
C3    C36   1.482669 S    
Zn3   N4    2.058801 S    
C58   H6    1.074110 S    
C15   F15   1.385226 S    
