data_mof_unit_19480.cif
_audit_creation_date              2012-12-11T16:22:46-0500
_audit_creation_method            fapswitch 2.2
_symmetry_space_group_name_H-M    P1
_symmetry_Int_Tables_number       1
_space_group_crystal_system       triclinic
_cell_length_a                    16.88152
_cell_length_b                    16.896836
_cell_length_c                    19.463218
_cell_angle_alpha                 117.911486
_cell_angle_beta                  62.315939
_cell_angle_gamma                 100.668867
_cell_volume                      4340.61221662

loop_
_atom_site_label
_atom_site_type_symbol
_atom_type_description
_atom_site_fract_x
_atom_site_fract_y
_atom_site_fract_z
_atom_type_partial_charge
C1    C     C_R   0.034524 0.758663 0.015162 -0.150051
C2    C     C_R   0.250619 0.538581 0.825831 0.563548
C3    C     C_R   0.183006 0.489690 0.087861 -0.133546
C4    C     C_R   0.763555 0.422190 0.164292 -0.146590
C5    C     C_R   0.996151 0.338360 0.756777 -0.126713
C6    C     C_R   0.256543 0.540026 0.066406 0.041988
C7    C     C_R   0.953320 0.259917 0.753363 0.079887
C8    C     C_R   0.259172 0.480946 0.743024 -0.101214
C9    C     C_R   0.029093 0.224634 0.003850 0.091820
C10   C     C_R   0.852407 0.923876 0.492779 -0.260518
C11   C     C_R   0.875016 0.841487 0.420215 0.537614
C12   C     C_R   0.766139 0.440856 0.240161 0.048922
C13   C     C_R   0.919580 0.839395 0.336953 -0.018270
C14   C     C_R   0.922008 0.919187 0.330068 -0.233471
C15   C     C_R   0.894080 0.000709 0.403574 -0.204786
C16   C     C_R   0.803496 0.558851 0.961307 -0.126698
C17   C     C_R   0.865501 0.003862 0.484851 0.098382
C18   C     C_R   0.951809 0.132335 0.537217 -0.226647
C19   C     C_R   0.976685 0.190022 0.602190 -0.165987
C20   C     C_R   0.922764 0.202423 0.687167 0.074304
C21   C     C_R   0.839653 0.162555 0.707977 -0.297035
C22   C     C_R   0.812445 0.106706 0.643304 0.530864
C23   C     C_R   0.722409 0.547068 0.022095 0.059386
C24   C     C_R   0.872133 0.086443 0.556167 -0.036905
C25   C     C_R   0.564048 0.345033 0.364794 -0.134204
C26   C     C_R   0.626081 0.367415 0.299424 -0.151028
C27   C     C_R   0.708125 0.402301 0.300144 0.140370
C28   C     C_R   0.957353 0.670578 0.248791 -0.106029
C29   C     C_R   0.731152 0.404321 0.361607 -0.172667
C30   C     C_R   0.668532 0.382702 0.427583 -0.181090
C31   C     C_R   0.582563 0.359180 0.432588 0.123284
C32   C     C_R   0.497712 0.467031 0.581863 -0.194329
C33   C     C_R   0.416984 0.498656 0.654130 -0.132834
C34   C     C_R   0.966510 0.757375 0.257732 0.088994
C35   C     C_R   0.343596 0.443538 0.664667 0.102341
C36   C     C_R   0.353807 0.353322 0.601513 0.062576
C37   C     C_R   0.435121 0.322530 0.527345 -0.245399
C38   C     C_R   0.506692 0.379799 0.516949 0.100178
C39   C     C_R   0.635545 0.590952 0.058499 0.131665
C40   C     C_R   0.738320 0.482697 0.039709 -0.130278
C41   C     C_R   0.322484 0.567987 0.101789 0.129047
C42   C     C_R   0.402023 0.536359 0.162952 -0.222977
C43   C     C_R   0.326357 0.528388 0.149618 -0.165006
C44   C     C_R   0.389133 0.626138 0.078590 -0.271662
C45   C     C_R   0.249468 0.568750 0.013553 -0.076498
C46   C     C_R   0.467443 0.629279 0.086259 0.187444
C47   C     C_R   0.475336 0.580467 0.125140 0.185642
C48   C     C_R   0.559110 0.565767 0.114805 -0.276261
C49   C     C_R   0.626307 0.649565 0.029785 -0.171038
C50   C     C_R   0.541891 0.670087 0.045130 -0.217649
C51   C     C_R   0.831289 0.185121 0.168715 0.009245
C52   C     C_R   0.025842 0.751386 0.175667 -0.139928
C53   C     C_R   0.941328 0.859861 0.011212 0.114568
C54   C     C_R   0.812857 0.940944 0.045669 -0.133601
C55   C     C_R   0.859736 0.860720 0.008570 -0.170037
C56   C     C_R   0.927758 0.259967 0.832253 -0.136989
C57   C     C_R   0.976634 0.941840 0.049842 -0.191456
C58   C     C_R   0.929631 0.023692 0.088024 -0.034054
C59   C     C_R   0.846701 0.023162 0.085664 -0.071380
C60   C     C_R   0.798455 0.104864 0.124995 0.472114
C61   C     C_R   0.912431 0.185948 0.171516 -0.434584
C62   C     C_R   0.961959 0.105856 0.131763 0.527677
C63   C     C_R   0.842592 0.488557 0.239585 -0.166834
C64   C     C_R   0.958105 0.689054 0.937556 -0.128600
C65   C     C_R   0.981463 0.773149 0.984427 0.056059
C66   C     C_3   0.291824 0.681319 0.894262 0.130246
C67   C     C_R   0.172387 0.462418 0.750084 -0.223405
C68   C     C_3   0.300083 0.722851 0.835952 -0.324198
C69   C     C_3   0.273610 0.822665 0.887741 -0.975376
C70   C     C_3   0.775350 0.735443 0.446424 0.147054
C71   C     C_3   0.713705 0.767689 0.543060 -0.277409
C72   C     C_3   0.624066 0.722360 0.558074 -1.019168
C73   C     C_3   0.670588 0.099897 0.656437 0.165519
C74   C     C_3   0.582496 0.052576 0.680556 -0.248289
C75   C     C_3   0.512296 0.088745 0.672608 -1.006556
C76   C     C_1   0.283235 0.290706 0.611219 0.034281
C77   C     C_3   0.722504 0.095776 0.049610 0.180770
C78   C     C_R   0.052422 0.309126 0.051675 -0.112698
C79   C     C_3   0.716390 0.186947 0.053555 -0.296989
C80   C     C_3   0.708450 0.177029 0.974970 -1.040428
C81   C     C_3   0.030137 0.109102 0.209764 0.163903
C82   C     C_3   0.121101 0.104693 0.207210 -0.232390
C83   C     C_3   0.110967 0.102884 0.288530 -1.068033
C84   C     C_R   0.973486 0.240566 0.976123 -0.151500
H1    H     H_    0.071796 0.808513 0.046498 0.079918
H2    H     H_    0.721241 0.375341 0.137419 0.090340
H3    H     H_    0.902805 0.061965 0.396323 0.131319
H4    H     H_    0.999129 0.117583 0.471203 0.156655
H5    H     H_    0.040740 0.221057 0.585122 0.129896
H6    H     H_    0.795900 0.174316 0.774101 0.149520
H7    H     H_    0.497708 0.327730 0.368017 0.114333
H8    H     H_    0.606080 0.364388 0.252968 0.097420
H9    H     H_    0.794975 0.427694 0.362316 0.110173
H10   H     H_    0.683728 0.393522 0.479577 0.120493
H11   H     H_    0.551256 0.513316 0.573762 0.127408
H12   H     H_    0.882302 0.215146 0.856192 0.104705
H13   H     H_    0.813718 0.599414 0.929145 0.084739
H14   H     H_    0.411784 0.567806 0.699780 0.155788
H15   H     H_    0.442034 0.255114 0.476547 0.133425
H16   H     H_    0.564396 0.525237 0.142137 0.117787
H17   H     H_    0.683883 0.674546 0.990444 0.111305
H18   H     H_    0.406790 0.499976 0.194391 0.127828
H19   H     H_    0.536268 0.709699 0.016907 0.127547
H20   H     H_    0.274608 0.485724 0.171165 0.116632
H21   H     H_    0.385877 0.660855 0.045329 0.115152
H22   H     H_    0.918168 0.646534 0.296355 0.145244
H23   H     H_    0.153380 0.423180 0.697994 0.138982
H24   H     H_    0.937030 0.249257 0.204646 0.174264
H25   H     H_    0.748854 0.937788 0.044494 0.138080
H26   H     H_    0.829285 0.798958 0.981357 0.105896
H27   H     H_    0.039228 0.941622 0.052496 0.142364
H28   H     H_    0.691129 0.454764 0.082301 0.096264
H29   H     H_    0.052747 0.807007 0.160608 0.093904
H30   H     H_    0.872643 0.502597 0.282279 0.090299
H31   H     H_    0.927820 0.674183 0.895019 0.085021
H32   H     H_    0.286905 0.620577 0.996635 0.111267
H33   H     H_    0.338053 0.716050 0.924528 0.128656
H34   H     H_    0.092897 0.322744 0.085383 0.105054
H35   H     H_    0.223431 0.694685 0.948480 0.098626
H36   H     H_    0.370505 0.715103 0.786594 0.199432
H37   H     H_    0.256427 0.688396 0.802620 0.195813
H38   H     H_    0.202450 0.833323 0.935775 0.261128
H39   H     H_    0.282474 0.850910 0.843432 0.272068
H40   H     H_    0.316404 0.858898 0.921674 0.260660
H41   H     H_    0.779316 0.660988 0.415519 0.132582
H42   H     H_    0.745337 0.754728 0.415590 0.086160
H43   H     H_    0.746518 0.752247 0.573667 0.214998
H44   H     H_    0.700868 0.841269 0.574440 0.197574
H45   H     H_    0.940521 0.190383 0.939381 0.106218
H46   H     H_    0.589582 0.737692 0.528768 0.270981
H47   H     H_    0.580704 0.747479 0.628509 0.269880
H48   H     H_    0.634314 0.648560 0.529356 0.266623
H49   H     H_    0.695347 0.089214 0.588624 0.102683
H50   H     H_    0.657927 0.173058 0.700419 0.103924
H51   H     H_    0.594444 0.979495 0.637184 0.200638
H52   H     H_    0.556682 0.062474 0.748124 0.206084
H53   H     H_    0.498155 0.161495 0.716542 0.270613
H54   H     H_    0.449256 0.053032 0.690572 0.273640
H55   H     H_    0.536054 0.078001 0.605101 0.268684
H56   H     H_    0.159314 0.467847 0.137964 0.088919
H57   H     H_    0.665550 0.055891 0.039066 0.133803
H58   H     H_    0.784917 0.058127 0.992534 0.071500
H59   H     H_    0.656799 0.226072 0.112810 0.210493
H60   H     H_    0.777369 0.223774 0.056221 0.189571
H61   H     H_    0.763839 0.132688 0.914484 0.264635
H62   H     H_    0.711544 0.243905 0.976217 0.267880
H63   H     H_    0.643604 0.147808 0.975766 0.276690
H64   H     H_    0.992113 0.049946 0.217312 0.088011
H65   H     H_    0.992761 0.171769 0.266352 0.103480
H66   H     H_    0.159733 0.043307 0.149924 0.197892
H67   H     H_    0.010808 0.367228 0.713098 0.089662
H68   H     H_    0.159174 0.164094 0.201158 0.202283
H69   H     H_    0.071411 0.163029 0.346831 0.266365
H70   H     H_    0.178119 0.102587 0.285736 0.279224
H71   H     H_    0.077232 0.041493 0.293369 0.275188
H72   H     H_    0.832449 0.924792 0.554646 0.172490
H73   H     H_    0.949569 0.919799 0.267848 0.136018
N1    N     N_R   0.034930 0.670790 0.995440 -0.042895
N2    N     N_R   0.867000 0.509260 0.948460 -0.038644
N3    N     N_R   0.003780 0.616410 0.165900 -0.049963
N4    N     N_R   0.825670 0.461520 0.995440 -0.040313
N5    N     N_R   0.045120 0.664150 0.118920 -0.045218
N6    N     N_R   0.884940 0.497570 0.165910 -0.037247
N7    N     N_R   0.985840 0.628110 0.948460 -0.035795
N8    N     N_R   0.174330 0.538480 0.004560 -0.051040
N9    N     N_1   0.226789 0.240389 0.618893 -0.083776
N10   N     N_R   0.954880 0.335850 0.881080 -0.036935
N11   N     N_R   0.115060 0.502430 0.834090 -0.063904
N12   N     N_R   0.014160 0.371890 0.051540 -0.042873
N13   N     N_R   0.965070 0.329210 0.004560 -0.037924
N14   N     N_R   0.164150 0.545120 0.881070 -0.106240
N15   N     N_R   0.133000 0.490740 0.051540 -0.041772
N16   N     N_R   0.996220 0.383590 0.834100 -0.034478
N17   N     N_R   0.835850 0.454880 0.118930 -0.033427
Ni1   Ni    Ni4+2 0.103690 0.603690 0.000000 0.204336
Ni2   Ni    Ni4+2 0.896310 0.396310 0.000000 0.212189
Ni3   Ni    Ni4+2 0.991110 0.505800 0.892250 0.209835
Ni4   Ni    Ni4+2 0.008890 0.494200 0.107750 0.208276
O1    O     O_3   0.317857 0.588693 0.846555 -0.685536
O2    O     O_3   0.863456 0.765256 0.432563 -0.683066
O3    O     O_3   0.732590 0.064081 0.665313 -0.679379
O4    O     O_3   0.714617 0.106800 0.129329 -0.654611
O5    O     O_3   0.044050 0.108759 0.132271 -0.658801

loop_
_geom_bond_atom_site_label_1
_geom_bond_atom_site_label_2
_ccdc_geom_bond_type
C67   N11   A    
C25   C31   A    
C66   C68   S    
C58   C62   A    
C6    C45   A    
C27   C29   A    
N12   N13   A    
C54   C55   A    
C35   C36   A    
C51   C61   A    
C64   N7    A    
C3    C6    A    
C70   O2    S    
C81   C82   S    
C40   H28   S    
C83   H70   S    
N13   Ni2   S    
C52   H29   S    
C63   N6    A    
C26   C27   A    
C29   C30   A    
C18   C24   A    
C21   C22   A    
C36   C37   A    
C78   H34   S    
C33   H14   S    
C22   O3    S    
C84   N13   A    
C49   H17   S    
C30   C31   A    
C81   H65   S    
C3    N15   A    
C83   H71   S    
C69   H39   S    
C10   C17   A    
C26   H8    S    
C23   C40   A    
C84   H45   S    
C28   N3    A    
C56   H12   S    
C18   C19   A    
C73   C74   S    
C61   H24   S    
C43   H20   S    
C36   C76   S    
C62   O5    S    
C77   H58   S    
C63   H30   S    
N11   N14   A    
C79   H59   S    
C79   H60   S    
C28   H22   S    
C68   C69   S    
C66   H33   S    
C74   H52   S    
C1    C65   A    
N2    N4    A    
C76   N9    T    
C70   C71   S    
C32   C38   A    
C4    C12   A    
C53   C65   S    
C54   C59   A    
N1    N7    A    
C2    N14   A    
N10   N16   A    
C70   H42   S    
N8    N15   A    
C53   C55   A    
C28   C34   A    
C59   C60   A    
C64   H31   S    
C4    N17   A    
C13   C14   A    
C16   N2    A    
C60   O4    S    
C41   C43   A    
C71   H43   S    
C61   C62   A    
C7    C56   A    
N2    Ni3   S    
C42   H18   S    
C42   C47   A    
C44   C46   A    
C72   H48   S    
N17   Ni2   S    
C21   H6    S    
C77   C79   S    
C1    H1    S    
C48   H16   S    
C25   H7    S    
C17   C24   S    
C74   C75   S    
C12   C27   S    
C75   H53   S    
C10   H72   S    
C5    C7    A    
N4    Ni2   S    
C53   C57   A    
C40   N4    A    
N5    Ni1   S    
C14   H73   S    
C69   H40   S    
C25   C26   A    
C44   H21   S    
N14   Ni1   S    
C6    C41   S    
C78   N12   A    
C18   H4    S    
C54   H25   S    
C8    C35   S    
N3    N5    A    
C37   C38   A    
C19   H5    S    
C73   O3    S    
C47   C48   A    
N16   Ni3   S    
C81   H64   S    
C74   H51   S    
N6    Ni4   S    
C77   O4    S    
C73   H50   S    
C3    H56   S    
N3    Ni4   S    
C82   H66   S    
C70   H41   S    
C80   H61   S    
C39   C49   A    
C73   H49   S    
C49   C50   A    
C16   C23   A    
C66   H35   S    
C55   H26   S    
C41   C44   A    
C22   C24   A    
C71   H44   S    
C51   C60   A    
N8    Ni1   S    
C42   C43   A    
C81   O5    S    
N12   Ni4   S    
C37   H15   S    
C4    H2    S    
C72   H47   S    
C15   H3    S    
N15   Ni4   S    
C15   C17   A    
C46   C47   A    
C1    N1    A    
C5    N16   A    
C2    C8    A    
C75   H54   S    
C68   H37   S    
C72   H46   S    
C83   H69   S    
C80   H63   S    
C66   O1    S    
C46   C50   A    
C34   C52   A    
C5    H67   S    
C31   C38   S    
C64   C65   A    
C19   C20   A    
C58   C59   A    
C13   C34   S    
C30   H10   S    
C75   H55   S    
C68   H36   S    
C29   H9    S    
C11   C13   A    
C45   H32   S    
C67   H23   S    
C57   C58   A    
C57   H27   S    
C69   H38   S    
C23   C39   S    
C56   N10   A    
C80   H62   S    
C33   C35   A    
C9    C78   A    
C32   C33   A    
C16   H13   S    
C77   H57   S    
C10   C11   A    
C9    C84   A    
C79   C80   S    
N1    Ni1   S    
C50   H19   S    
C32   H11   S    
C71   C72   S    
C20   C21   A    
C8    C67   A    
C7    C20   S    
C2    O1    S    
C14   C15   A    
C39   C48   A    
C11   O2    S    
C82   C83   S    
C12   C63   A    
N6    N17   A    
C45   N8    A    
C82   H68   S    
N7    Ni3   S    
N11   Ni3   S    
C52   N5    A    
N10   Ni2   S    
