data_mof_unit_5931.cif
_audit_creation_date              2012-10-26T19:18:48-0400
_audit_creation_method            fapswitch 2.2
_symmetry_space_group_name_H-M    P1
_symmetry_Int_Tables_number       1
_space_group_crystal_system       triclinic
_cell_length_a                    9.678446
_cell_length_b                    10.937476
_cell_length_c                    15.656761
_cell_angle_alpha                 89.908974
_cell_angle_beta                  73.37542
_cell_angle_gamma                 90.008908
_cell_volume                      1588.10847408

loop_
_atom_site_label
_atom_site_type_symbol
_atom_type_description
_atom_site_fract_x
_atom_site_fract_y
_atom_site_fract_z
_atom_type_partial_charge
C1    C     C_R   0.999495 0.265314 0.501198 0.552035
C2    C     C_R   0.239769 0.602156 0.054850 0.048398
C3    C     C_R   0.335964 0.552652 0.099332 0.033106
C4    C     C_R   0.915232 0.500660 0.672354 0.549134
C5    C     C_R   0.092227 0.612562 0.099103 -0.143378
C6    C     C_R   0.038521 0.574253 0.187252 -0.139601
C7    C     C_R   0.278529 0.511092 0.187103 -0.130621
C8    C     C_2   0.885391 0.933009 0.502729 -0.156223
C9    C     C_2   0.004863 0.866671 0.494537 -0.113698
C10   C     C_2   0.887093 0.066950 0.498831 -0.160077
C11   C     C_2   0.999662 0.133366 0.505857 -0.116835
C12   C     C_R   0.676080 0.538583 0.911936 0.008222
C13   C     C_2   0.399158 0.426840 0.549455 -0.001091
C14   C     C_2   0.556788 0.421786 0.545147 0.030815
C15   C     C_R   0.000588 0.734699 0.498937 0.559389
C16   C     C_R   0.083781 0.503246 0.328254 0.547347
C17   C     C_R   0.865649 0.508254 0.771008 -0.013053
C18   C     C_R   0.131981 0.524916 0.231924 0.000738
C19   C     C_R   0.925941 0.508449 0.911294 -0.144746
C20   C     C_R   0.968609 0.507308 0.818559 -0.155228
C21   C     C_R   0.716616 0.516999 0.818785 0.003674
C22   C     C_2   0.603512 0.473916 0.778447 0.214747
C23   C     C_R   0.780274 0.521371 0.958361 0.036447
C24   C     C_R   0.532427 0.568512 0.961357 0.017996
C25   C     C_R   0.485802 0.545201 0.054125 0.030718
C26   C     C_R   0.591251 0.519945 0.098326 -0.135891
C27   C     C_R   0.736829 0.513768 0.051278 -0.133168
C28   C     C_R   0.437086 0.628142 0.921673 -0.127856
C29   C     C_R   0.292616 0.643627 0.967429 -0.142075
Cu1   Cu    Cu3+1 0.138640 0.500020 0.499980 0.941989
Cu2   Cu    Cu3+1 0.861360 0.499980 0.500020 0.974047
H1    H     H_    0.815068 0.498032 0.087626 0.109673
H2    H     H_    0.620302 0.570106 0.468769 0.199788
H3    H     H_    0.346073 0.467165 0.222103 0.120736
H4    H     H_    0.925187 0.587235 0.221281 0.125967
H5    H     H_    0.221892 0.687341 0.934003 0.116134
H6    H     H_    0.007145 0.498735 0.946208 0.117527
H7    H     H_    0.082543 0.499701 0.784165 0.146466
H8    H     H_    0.565255 0.511253 0.169802 0.103962
H9    H     H_    0.474714 0.667688 0.855929 0.175155
H10   H     H_    0.552235 0.386103 0.798456 0.091216
H11   H     H_    0.018930 0.652751 0.066036 0.107838
H12   H     H_    0.782092 0.888264 0.511226 0.154040
H13   H     H_    0.110398 0.907708 0.482549 0.102586
H14   H     H_    0.791028 0.111619 0.491242 0.146042
H15   H     H_    0.094681 0.092406 0.517099 0.101195
H16   H     H_    0.326633 0.364751 0.595140 0.133796
H17   H     H_    0.415343 0.552803 0.454118 0.201964
H18   H     H_    0.590442 0.350581 0.583165 0.138883
N1    N     N_2   0.346430 0.498660 0.500980 -0.347747
N2    N     N_2   0.652550 0.498630 0.501000 -0.333654
O1    O     O_R   0.117050 0.321960 0.499980 -0.499906
O2    O     O_R   0.882890 0.321920 0.500020 -0.504229
O3    O     O_R   0.052910 0.500040 0.629810 -0.503126
O4    O     O_R   0.818750 0.499990 0.629840 -0.438826
O5    O     O_R   0.117110 0.678080 0.499980 -0.493885
O6    O     O_R   0.882950 0.678040 0.500020 -0.492211
O7    O     O_R   0.181250 0.500010 0.370160 -0.505316
O8    O     O_R   0.947090 0.499960 0.370190 -0.502864
O9    O     O_2   0.561901 0.538250 0.726940 -0.506462

loop_
_geom_bond_atom_site_label_1
_geom_bond_atom_site_label_2
_ccdc_geom_bond_type
C19   C20   A    
C19   C23   A    
C5    H11   S    
C23   C27   A    
H2    N2    S    
Cu1   O3    S    
C6    H4    S    
C12   C24   A    
C14   N2    D    
C12   C23   A    
C8    H12   S    
C7    C18   A    
C4    O3    A    
C15   O5    A    
Cu2   O6    S    
C10   H14   S    
H17   N1    S    
C2    C3    A    
Cu1   N1    S    
C25   C26   A    
C16   O7    A    
C21   C22   S    
Cu2   O2    S    
C15   O6    A    
C29   H5    S    
C26   C27   A    
Cu1   Cu2   S    
C2    C29   A    
C4    C17   S    
Cu1   O7    S    
C8    C10   S    
C28   C29   A    
C7    H3    S    
C3    C7    A    
C4    O4    A    
C22   O9    D    
C5    C6    A    
C6    C18   A    
C1    O1    A    
C17   C21   A    
C26   H8    S    
C22   H10   S    
C10   C11   D    
C28   H9    S    
C13   N1    D    
C14   H18   S    
C3    C25   A    
C17   C20   A    
C20   H7    S    
C24   C25   A    
C16   C18   S    
Cu2   O8    S    
C13   H16   S    
Cu1   O1    S    
C11   H15   S    
C1    O2    A    
C19   H6    S    
C13   C14   S    
Cu2   O4    S    
C27   H1    S    
C9    C15   S    
Cu1   O5    S    
C12   C21   A    
C2    C5    A    
C24   C28   A    
Cu2   N2    S    
C8    C9    D    
C9    H13   S    
C16   O8    A    
C1    C11   S    
