data_mof_unit_65473.cif
_audit_creation_date              2012-12-10T18:18:03-0500
_audit_creation_method            fapswitch 2.2
_symmetry_space_group_name_H-M    P1
_symmetry_Int_Tables_number       1
_space_group_crystal_system       triclinic
_cell_length_a                    19.340856
_cell_length_b                    14.679601
_cell_length_c                    15.921175
_cell_angle_alpha                 90.096508
_cell_angle_beta                  90.018923
_cell_angle_gamma                 90.027744
_cell_volume                      4520.26991266

loop_
_atom_site_label
_atom_site_type_symbol
_atom_type_description
_atom_site_fract_x
_atom_site_fract_y
_atom_site_fract_z
_atom_type_partial_charge
C1    C     C_R   0.500050 0.499935 0.339880 0.836787
C2    C     C_3   0.461865 0.411530 0.048935 -0.061100
C3    C     C_3   0.466457 0.408721 0.950416 -0.054353
C4    C     C_3   0.454010 0.579897 0.950221 -0.029596
C5    C     C_1   0.499891 0.500124 0.749320 -0.091246
C6    C     C_3   0.500187 0.499256 0.083116 0.049901
C7    C     C_3   0.499367 0.499461 0.916711 0.055560
C8    C     C_R   0.632880 0.500015 0.499812 0.887755
C9    C     C_3   0.574513 0.509764 0.950548 -0.432825
C10   C     C_3   0.576571 0.501581 0.047920 0.680063
C11   C     C_1   0.499672 0.499912 0.824612 0.018847
C12   C     C_R   0.930323 0.499308 0.498459 0.538524
C13   C     C_1   0.499969 0.499546 0.175305 0.026462
C14   C     C_1   0.499967 0.499764 0.250593 -0.092160
C15   C     C_3   0.466110 0.054666 0.587347 0.482756
C16   C     C_3   0.472881 0.945550 0.590430 0.468266
C17   C     C_3   0.576855 0.054364 0.493279 0.354663
C18   C     C_3   0.573964 0.945574 0.477401 0.385618
C19   C     C_3   0.498410 0.092316 0.500839 -0.222275
C20   C     C_3   0.497272 0.907689 0.500088 -0.217395
C21   C     C_3   0.443353 0.945322 0.430021 0.221130
C22   C     C_3   0.454801 0.054606 0.420444 0.193138
C23   C     C_R   0.181830 0.557497 0.445889 0.099465
C24   C     C_1   0.497983 0.804599 0.501095 0.428090
C25   C     C_1   0.498402 0.195399 0.501364 0.445236
C26   C     C_R   0.500078 0.500057 0.660002 0.829886
C27   C     C_R   0.367280 0.499969 0.499930 0.910680
C28   C     C_R   0.745248 0.563366 0.449873 0.032613
C29   C     C_R   0.745378 0.436473 0.548907 0.042060
C30   C     C_R   0.817909 0.563018 0.449381 0.325808
C31   C     C_R   0.818024 0.436449 0.548679 0.325383
C32   C     C_R   0.854385 0.499611 0.498819 -0.162011
C33   C     C_R   0.708972 0.500005 0.499572 -0.116584
C34   C     C_R   0.182638 0.439442 0.553873 0.062853
C35   C     C_R   0.070088 0.498238 0.499319 0.452372
C36   C     C_R   0.254497 0.558130 0.445678 0.292335
C37   C     C_R   0.255004 0.440839 0.554364 0.364626
C38   C     C_R   0.291287 0.499758 0.500032 -0.274257
C39   C     C_R   0.145944 0.497935 0.499532 -0.098352
C40   C     C_3   0.456236 0.582287 0.048875 -0.144279
Cl1   Cl    Cl    0.527252 0.906960 0.674835 -0.507780
Cl2   Cl    Cl    0.299126 0.370648 0.627088 -0.476793
Cl3   Cl    Cl    0.627724 0.592132 0.091644 -0.542251
Cl4   Cl    Cl    0.624749 0.401684 0.076772 -0.476304
Cl5   Cl    Cl    0.502921 0.110706 0.678396 -0.430408
Cl6   Cl    Cl    0.624492 0.113767 0.411015 -0.475606
Cl7   Cl    Cl    0.595630 0.918369 0.369246 -0.430687
Cl8   Cl    Cl    0.379164 0.093497 0.605155 -0.454927
Cl9   Cl    Cl    0.395151 0.889650 0.627254 -0.413625
Cl10  Cl    Cl    0.862507 0.639900 0.383139 -0.503497
Cl11  Cl    Cl    0.862776 0.359369 0.614573 -0.533947
Cl12  Cl    Cl    0.298467 0.629626 0.373809 -0.610787
Cu1   Cu    Cu3+1 0.500090 0.589920 0.499910 1.087869
Cu2   Cu    Cu3+1 0.500090 0.410080 0.499910 1.085065
H1    H     H_    0.596424 0.576035 0.930312 0.205817
H2    H     H_    0.722444 0.384725 0.663625 0.263643
H3    H     H_    0.608848 0.035073 0.618629 0.262670
H4    H     H_    0.670514 0.071826 0.556391 0.265476
H5    H     H_    0.630228 0.899992 0.586110 0.247664
H6    H     H_    0.677572 0.919388 0.501425 0.272952
H7    H     H_    0.353259 0.101988 0.455370 0.279042
H8    H     H_    0.364116 0.080124 0.354134 0.218246
H9    H     H_    0.350005 0.966661 0.496113 0.283786
H10   H     H_    0.338696 0.925419 0.401002 0.230069
H11   H     H_    0.467743 0.055191 0.289656 0.237910
H12   H     H_    0.609033 0.458609 0.920744 0.200738
H13   H     H_    0.501137 0.143869 0.337575 0.256587
H14   H     H_    0.420220 0.921253 0.303791 0.214968
H15   H     H_    0.446201 0.829034 0.354747 0.253659
H16   H     H_    0.157736 0.600092 0.328415 0.269838
H17   H     H_    0.157458 0.683220 0.402717 0.280258
H18   H     H_    0.113139 0.419064 0.647532 0.246589
H19   H     H_    0.118941 0.332442 0.576770 0.266395
H20   H     H_    0.475313 0.327844 0.151756 0.229260
H21   H     H_    0.456538 0.272673 0.063842 0.262071
H22   H     H_    0.475014 0.670788 0.148618 0.266595
H23   H     H_    0.399554 0.564830 0.931724 0.157576
H24   H     H_    0.523852 0.693262 0.062950 0.291784
H25   H     H_    0.498642 0.323241 0.854129 0.259386
H26   H     H_    0.553921 0.326620 0.936384 0.291631
H27   H     H_    0.436687 0.717011 0.930534 0.280317
H28   H     H_    0.521256 0.688301 0.924990 0.258103
H29   H     H_    0.412392 0.404855 0.926343 0.163026
H30   H     H_    0.401974 0.571446 0.070276 0.172395
H31   H     H_    0.405994 0.417623 0.065628 0.114643
H32   H     H_    0.721658 0.615067 0.335325 0.291736
H33   H     H_    0.721803 0.692431 0.414823 0.287435
H34   H     H_    0.721729 0.307478 0.584033 0.290882
N1    N     N_R   0.965560 0.421575 0.481422 -0.147635
N2    N     N_3   0.629383 0.895346 0.521477 -0.555998
N3    N     N_3   0.389214 0.105021 0.407671 -0.600244
N4    N     N_3   0.371394 0.921865 0.453223 -0.532116
N5    N     N_3   0.495185 0.073302 0.343670 -0.412103
N6    N     N_3   0.455701 0.898859 0.348832 -0.464231
N7    N     N_3   0.143731 0.615650 0.390209 -0.507035
N8    N     N_3   0.147239 0.380246 0.611226 -0.466664
N9    N     N_3   0.486302 0.326434 0.087499 -0.453967
N10   N     N_3   0.475346 0.672075 0.083017 -0.539361
N11   N     N_3   0.501820 0.326395 0.919605 -0.497774
N12   N     N_R   0.966154 0.576618 0.515545 -0.155028
N13   N     N_3   0.471324 0.667093 0.909863 -0.507418
N14   N     N_R   0.034318 0.421047 0.481872 -0.215332
N15   N     N_R   0.034925 0.576153 0.515745 -0.164286
N16   N     N_1   0.498600 0.724970 0.501390 -0.135697
N17   N     N_1   0.498600 0.275030 0.501390 -0.132272
N18   N     N_3   0.707712 0.626102 0.397958 -0.509541
N19   N     N_3   0.708000 0.373850 0.601123 -0.528659
N20   N     N_3   0.617588 0.078360 0.568581 -0.532526
O1    O     O_R   0.500080 0.575970 0.379360 -0.557910
O2    O     O_R   0.500080 0.424030 0.379360 -0.584957
O3    O     O_R   0.599930 0.575960 0.499920 -0.562658
O4    O     O_R   0.599930 0.424040 0.499920 -0.551635
O5    O     O_R   0.500070 0.575900 0.620490 -0.561405
O6    O     O_R   0.500070 0.424100 0.620490 -0.548107
O7    O     O_R   0.400220 0.575910 0.499940 -0.531297
O8    O     O_R   0.400220 0.424090 0.499940 -0.548054

loop_
_geom_bond_atom_site_label_1
_geom_bond_atom_site_label_2
_ccdc_geom_bond_type
N1    N14   A    
C34   C37   A    
C40   H30   S    
C35   C39   S    
C35   N14   A    
C18   Cl7   S    
C25   N17   T    
H27   N13   S    
Cu1   Cu2   S    
C7    C11   S    
H25   N11   S    
C34   N8    S    
C5    C11   T    
C35   N15   A    
C8    O4    A    
C40   N10   S    
H17   N7    S    
C21   N6    S    
Cu1   N16   S    
H22   N10   S    
C15   C16   S    
C29   C33   A    
H21   N9    S    
Cu2   O2    S    
C2    H31   S    
C37   Cl2   S    
C9    H12   S    
C1    O1    A    
C4    C40   S    
C2    N9    S    
C28   N18   S    
Cu2   O8    S    
H9    N4    S    
H24   N10   S    
C22   N3    S    
C9    H1    S    
C9    C10   S    
H4    N20   S    
C36   Cl12  S    
C27   O8    A    
Cu1   O3    S    
H11   N5    S    
C30   Cl10  S    
C21   C22   S    
C4    N13   S    
C2    C6    S    
C15   Cl8   S    
C4    C7    S    
Cu1   O5    S    
H20   N9    S    
C10   Cl4   S    
C34   C39   A    
C18   N2    S    
C20   C24   S    
C12   N1    A    
C19   C22   S    
C17   Cl6   S    
H15   N6    S    
C17   N20   S    
H34   N19   S    
N12   N15   A    
H14   N6    S    
C24   N16   T    
H5    N2    S    
C15   C19   S    
C26   O6    A    
H2    N19   S    
C37   C38   A    
C1    O2    A    
C31   C32   A    
C16   C20   S    
H8    N3    S    
C17   C18   S    
Cu2   O4    S    
C16   Cl9   S    
C28   C33   A    
H26   N11   S    
C3    H29   S    
C22   N5    S    
C6    C40   S    
C8    O3    A    
C15   Cl5   S    
Cu1   O1    S    
C7    C9    S    
Cu2   N17   S    
C10   Cl3   S    
C31   Cl11  S    
C6    C10   S    
Cu1   O7    S    
H6    N2    S    
C3    C7    S    
C36   C38   A    
H16   N7    S    
C26   O5    A    
C4    H23   S    
C29   C31   A    
C6    C13   S    
C30   C32   A    
H33   N18   S    
C23   C39   A    
Cu2   O6    S    
C28   C30   A    
C17   C19   S    
H28   N13   S    
C23   N7    S    
C2    C3    S    
C18   C20   S    
C8    C33   S    
C19   C25   S    
C12   N12   A    
C5    C26   S    
H18   N8    S    
C3    N11   S    
H3    N20   S    
C20   C21   S    
C23   C36   A    
H13   N5    S    
H10   N4    S    
C29   N19   S    
C1    C14   S    
C27   C38   S    
H19   N8    S    
C13   C14   T    
H32   N18   S    
C16   Cl1   S    
C12   C32   S    
H7    N3    S    
C21   N4    S    
C27   O7    A    
