data_mof_unit_9563.cif
_audit_creation_date              2012-12-10T19:48:03-0500
_audit_creation_method            fapswitch 2.2
_symmetry_space_group_name_H-M    P1
_symmetry_Int_Tables_number       1
_space_group_crystal_system       triclinic
_cell_length_a                    14.630994
_cell_length_b                    14.36885
_cell_length_c                    10.570472
_cell_angle_alpha                 89.41356
_cell_angle_beta                  93.080044
_cell_angle_gamma                 89.217133
_cell_volume                      2218.68504513

loop_
_atom_site_label
_atom_site_type_symbol
_atom_type_description
_atom_site_fract_x
_atom_site_fract_y
_atom_site_fract_z
_atom_type_partial_charge
C1    C     C_R   0.328369 0.500534 0.514366 0.876664
C2    C     C_R   0.571123 0.795297 0.559191 0.109367
C3    C     C_R   0.575907 0.201241 0.543702 0.102023
C4    C     C_R   0.428623 0.799077 0.441514 0.108245
C5    C     C_R   0.498614 0.052871 0.505436 0.122932
C6    C     C_R   0.499117 0.946867 0.504451 0.122502
C7    C     C_R   0.516472 0.500272 0.263039 0.893841
C8    C     C_R   0.489600 0.499478 0.740109 0.866719
C9    C     C_R   0.558844 0.671275 0.110717 -0.173809
C10   C     C_R   0.469914 0.324902 0.895995 -0.149350
C11   C     C_R   0.445808 0.667772 0.890574 -0.161776
C12   C     C_R   0.672602 0.499548 0.501670 0.829936
C13   C     C_R   0.576398 0.333141 0.121414 -0.161057
C14   C     C_R   0.529166 0.754693 0.052158 -0.184137
C15   C     C_R   0.500920 0.242877 0.957028 -0.187730
C16   C     C_R   0.468338 0.752799 0.946184 -0.180515
C17   C     C_R   0.558088 0.247172 0.066299 -0.181898
C18   C     C_R   0.483691 0.583483 0.941839 0.084269
C19   C     C_R   0.538583 0.415883 0.065785 0.087940
C20   C     C_R   0.528802 0.585211 0.061568 0.088399
C21   C     C_R   0.495558 0.412885 0.944506 0.088887
C22   C     C_R   0.478960 0.497885 0.877083 -0.261941
C23   C     C_R   0.052468 0.506871 0.608891 0.111909
C24   C     C_R   0.539815 0.501056 0.130072 -0.276720
C25   C     C_R   0.099430 0.590267 0.600897 -0.195922
C26   C     C_R   0.920099 0.529261 0.461246 -0.166594
C27   C     C_R   0.897027 0.483096 0.679371 -0.213565
C28   C     C_R   0.099520 0.421644 0.612504 -0.184312
C29   C     C_R   0.191899 0.587628 0.579703 -0.186449
C30   C     C_R   0.826838 0.524993 0.432431 -0.238095
C31   C     C_R   0.803551 0.480023 0.650740 -0.114325
C32   C     C_R   0.192078 0.419863 0.590222 -0.190400
C33   C     C_R   0.235770 0.502408 0.559066 -0.040503
C34   C     C_R   0.954833 0.507839 0.584438 0.100965
C35   C     C_R   0.769341 0.499114 0.527047 0.033469
C36   C     C_R   0.344908 0.248942 0.384368 0.161646
C37   C     C_R   0.255813 0.235800 0.424172 -0.216553
C38   C     C_R   0.180011 0.271711 0.352316 -0.126054
C39   C     C_R   0.192337 0.318651 0.238271 -0.114694
C40   C     C_R   0.280107 0.326731 0.193939 -0.160211
C41   C     C_R   0.355514 0.289865 0.265303 -0.072743
C42   C     C_R   0.655481 0.749217 0.611905 0.170058
C43   C     C_R   0.736120 0.756649 0.546115 -0.159593
C44   C     C_R   0.820535 0.729919 0.604565 -0.120192
C45   C     C_R   0.421635 0.106025 0.463122 -0.308287
C46   C     C_R   0.825138 0.696165 0.729190 -0.103861
C47   C     C_R   0.745172 0.687419 0.794599 -0.178004
C48   C     C_R   0.660876 0.714778 0.736530 -0.119705
C49   C     C_R   0.663109 0.242915 0.586641 0.185127
C50   C     C_R   0.735379 0.243542 0.504153 -0.152146
C51   C     C_R   0.825394 0.256003 0.551546 -0.131418
C52   C     C_R   0.844066 0.265960 0.681699 -0.106987
C53   C     C_R   0.772395 0.267379 0.763967 -0.180704
C54   C     C_R   0.682244 0.255946 0.716604 -0.151676
C55   C     C_R   0.345055 0.757681 0.381189 0.153280
C56   C     C_R   0.569270 0.893250 0.566212 -0.311659
C57   C     C_R   0.347638 0.710377 0.266367 -0.077040
C58   C     C_R   0.267324 0.679497 0.203664 -0.157881
C59   C     C_R   0.182554 0.700222 0.251899 -0.108521
C60   C     C_R   0.178292 0.753383 0.361272 -0.139460
C61   C     C_R   0.259015 0.782591 0.425069 -0.223645
C62   C     C_R   0.576252 0.103153 0.544131 -0.308487
C63   C     C_R   0.430046 0.897084 0.439394 -0.308195
C64   C     C_R   0.424101 0.203995 0.454677 0.108355
H1    H     H_    0.584936 0.183811 0.111384 0.139264
H2    H     H_    0.965454 0.548103 0.387658 0.134657
H3    H     H_    0.924097 0.466798 0.774533 0.124632
H4    H     H_    0.063572 0.356809 0.622973 0.121113
H5    H     H_    0.228351 0.651848 0.576493 0.166768
H6    H     H_    0.799574 0.541819 0.337486 0.117167
H7    H     H_    0.757771 0.463415 0.724731 0.134522
H8    H     H_    0.228650 0.354398 0.594609 0.156575
H9    H     H_    0.358899 0.072751 0.431952 0.138075
H10   H     H_    0.624609 0.925922 0.619941 0.140003
H11   H     H_    0.639486 0.067585 0.573264 0.141767
H12   H     H_    0.441358 0.817200 0.904247 0.142920
H13   H     H_    0.375557 0.932912 0.385136 0.141818
H14   H     H_    0.245146 0.198537 0.511649 0.116113
H15   H     H_    0.111801 0.263205 0.385227 0.125157
H16   H     H_    0.133768 0.346681 0.182868 0.119968
H17   H     H_    0.289589 0.359606 0.103055 0.133450
H18   H     H_    0.421491 0.289699 0.225560 0.160678
H19   H     H_    0.733778 0.785624 0.450964 0.114893
H20   H     H_    0.882483 0.736377 0.553806 0.122324
H21   H     H_    0.890607 0.676309 0.774788 0.123981
H22   H     H_    0.748696 0.661363 0.891208 0.134722
H23   H     H_    0.482419 0.176054 0.917639 0.141222
H24   H     H_    0.600720 0.712566 0.790142 0.164623
H25   H     H_    0.722319 0.230253 0.404153 0.109533
H26   H     H_    0.880891 0.255644 0.487843 0.123243
H27   H     H_    0.913927 0.273921 0.718602 0.117693
H28   H     H_    0.786853 0.275641 0.864687 0.134711
H29   H     H_    0.628226 0.251694 0.781820 0.151862
H30   H     H_    0.410926 0.701417 0.222235 0.167149
H31   H     H_    0.270789 0.641757 0.115890 0.133133
H32   H     H_    0.120207 0.677052 0.202991 0.117733
H33   H     H_    0.112558 0.771473 0.397237 0.123308
H34   H     H_    0.549883 0.820561 0.092468 0.142671
H35   H     H_    0.254475 0.824191 0.509470 0.124594
H36   H     H_    0.602900 0.674241 0.196231 0.150299
H37   H     H_    0.424461 0.318606 0.812483 0.155436
H38   H     H_    0.399745 0.668448 0.806901 0.151871
H39   H     H_    0.618311 0.334696 0.209013 0.144767
H40   H     H_    0.063506 0.656653 0.602956 0.121847
N1    N     N_R   0.500000 0.252470 0.500000 -0.132586
N2    N     N_R   0.500000 0.747530 0.500000 -0.130506
O1    O     O_R   0.369060 0.579480 0.500010 -0.615330
O2    O     O_R   0.630940 0.420520 0.499990 -0.617628
O3    O     O_R   0.630940 0.579480 0.499990 -0.609734
O4    O     O_R   0.369060 0.420520 0.500010 -0.611780
O5    O     O_R   0.499990 0.579480 0.316780 -0.626328
O6    O     O_R   0.500010 0.420520 0.683220 -0.621296
O7    O     O_R   0.500010 0.579480 0.683220 -0.623106
O8    O     O_R   0.499990 0.420520 0.316780 -0.621625
Zn1   Zn    Zn3+2 0.500000 0.606140 0.500000 0.931771
Zn2   Zn    Zn3+2 0.500000 0.393860 0.500000 0.932160

loop_
_geom_bond_atom_site_label_1
_geom_bond_atom_site_label_2
_ccdc_geom_bond_type
C11   C18   A    
C43   H19   S    
N1    Zn2   S    
C9    C14   A    
C3    C49   S    
C1    C33   S    
C64   N1    A    
C32   H8    S    
C53   C54   A    
C3    N1    A    
C4    C63   A    
C30   C35   A    
C7    O8    A    
C36   C37   A    
C19   C21   A    
C10   C15   A    
C8    O6    A    
C51   H26   S    
C38   C39   A    
C38   H15   S    
C7    C24   S    
C29   C33   A    
C45   H9    S    
C54   H29   S    
C9    C20   A    
C26   C34   A    
C20   C24   A    
C8    C22   S    
C48   H24   S    
C13   H39   S    
C18   C20   A    
C46   H21   S    
C31   H7    S    
C59   C60   A    
C27   C34   A    
C16   H12   S    
C21   C22   A    
C36   C41   A    
C61   H35   S    
C12   O3    A    
C30   H6    S    
C44   C46   A    
C14   H34   S    
C29   H5    S    
C10   C21   A    
C25   C29   A    
C56   H10   S    
C13   C19   A    
C27   C31   A    
C51   C52   A    
C26   H2    S    
C47   H22   S    
C28   C32   A    
C60   H33   S    
C39   C40   A    
C12   O2    A    
C58   C59   A    
C4    N2    A    
C2    N2    A    
C60   C61   A    
C6    C63   A    
C43   C44   A    
C37   C38   A    
C1    O4    A    
C11   C16   A    
C50   H25   S    
C47   C48   A    
C23   C34   S    
C53   H28   S    
C50   C51   A    
C42   C48   A    
C23   C28   A    
C12   C35   S    
O1    Zn1   S    
C8    O7    A    
C1    O1    A    
C40   C41   A    
C26   C30   A    
C9    H36   S    
C57   H30   S    
C55   C57   A    
C4    C55   S    
C14   C16   A    
C62   H11   S    
C42   C43   A    
O4    Zn2   S    
O6    Zn2   S    
C52   C53   A    
C15   H23   S    
C63   H13   S    
C3    C62   A    
C15   C17   A    
C46   C47   A    
C28   H4    S    
C18   C22   A    
C40   H17   S    
C10   H37   S    
C6    C56   A    
C44   H20   S    
O8    Zn2   S    
C25   H40   S    
C37   H14   S    
C45   C64   A    
C17   H1    S    
C13   C17   A    
N2    Zn1   S    
C32   C33   A    
O2    Zn2   S    
C19   C24   A    
C2    C56   A    
C39   H16   S    
C57   C58   A    
C5    C6    S    
C5    C45   A    
C2    C42   S    
C41   H18   S    
C55   C61   A    
C7    O5    A    
C5    C62   A    
C11   H38   S    
C31   C35   A    
C58   H31   S    
C27   H3    S    
O3    Zn1   S    
C23   C25   A    
C49   C50   A    
C59   H32   S    
C52   H27   S    
O5    Zn1   S    
C36   C64   S    
C49   C54   A    
O7    Zn1   S    
