data_mof_unit_68145.cif
_audit_creation_date              2013-03-05T15:59:43-0500
_audit_creation_method            fapswitch 2.2
_symmetry_space_group_name_H-M    P1
_symmetry_Int_Tables_number       1
_space_group_crystal_system       triclinic
_cell_length_a                    6.937572
_cell_length_b                    14.418018
_cell_length_c                    15.704675
_cell_angle_alpha                 90.069066
_cell_angle_beta                  89.628288
_cell_angle_gamma                 90.08786
_cell_volume                      1570.84039032

loop_
_atom_site_label
_atom_site_type_symbol
_atom_site_description
_atom_site_fract_x
_atom_site_fract_y
_atom_site_fract_z
_atom_type_partial_charge
O1    O     O_R   0.638960 0.835150 0.161940 -0.584140
O2    O     O_R   0.361040 0.164850 0.838060 -0.578198
O3    O     O_R   0.309170 0.846340 0.337470 -0.590882
O4    O     O_R   0.690830 0.153660 0.662530 -0.589856
O5    O     O_R   0.138810 0.664830 0.338070 -0.598845
O6    O     O_R   0.861190 0.335170 0.661930 -0.599873
C1    C     C_R   0.478086 0.868441 0.366387 1.028897
C2    C     C_R   0.521915 0.131574 0.633602 1.028815
O7    O     O_R   0.309250 0.846350 0.162570 -0.598443
O8    O     O_R   0.690750 0.153650 0.837430 -0.579502
O9    O     O_R   0.138880 0.664840 0.161920 -0.592573
O10   O     O_R   0.861120 0.335160 0.838080 -0.598589
C3    C     C_R   0.478755 0.866759 0.132481 1.096580
C4    C     C_R   0.521050 0.133320 0.867554 1.084781
O11   O     O_R   0.638880 0.835150 0.338090 -0.599078
O12   O     O_R   0.361120 0.164850 0.661910 -0.599771
O13   O     O_3   0.472380 0.690440 0.250000 -0.298028
O14   O     O_3   0.527620 0.309560 0.750000 -0.301602
V1    V     V_3+5 0.197550 0.761040 0.250010 1.169255
V2    V     V_3+5 0.802450 0.238960 0.749990 1.179128
O15   O     O_R   0.809160 0.653640 0.162540 -0.611995
O16   O     O_R   0.190840 0.346360 0.837460 -0.611640
C5    C     C_R   0.978623 0.631954 0.133132 0.931191
C6    C     C_R   0.021446 0.368258 0.866731 0.920548
O17   O     O_R   0.809090 0.653640 0.337440 -0.606659
O18   O     O_R   0.190910 0.346360 0.662560 -0.607454
C7    C     C_R   0.977739 0.631574 0.366648 0.919639
C8    C     C_R   0.022262 0.368410 0.633338 0.918047
V3    V     V_3+5 0.697540 0.738950 0.250000 1.147263
V4    V     V_3+5 0.302460 0.261050 0.750000 1.151603
O19   O     O_3   0.972580 0.809550 0.250010 -0.258418
O20   O     O_3   0.027420 0.190450 0.749990 -0.245920
C9    C     C_3   0.178332 0.530735 0.480249 -0.154873
C10   C     C_3   0.821664 0.469230 0.519720 -0.154768
C11   C     C_3   0.079994 0.540076 0.569049 -0.208841
C12   C     C_3   0.919999 0.459892 0.430920 -0.209154
H1    H     H_    0.145162 0.573021 0.625982 0.124800
H2    H     H_    0.854820 0.426947 0.373989 0.125121
H3    H     H_    0.325477 0.555609 0.463785 0.129098
H4    H     H_    0.674521 0.444353 0.536182 0.128940
C13   C     C_3   0.011333 0.438381 0.562602 -0.200310
C14   C     C_3   0.988664 0.561587 0.437368 -0.201184
C15   C     C_3   0.108329 0.429115 0.474763 0.317247
C16   C     C_3   0.891663 0.570851 0.525205 0.317485
C17   C     C_3   0.820234 0.478627 0.974586 -0.147345
C18   C     C_3   0.180366 0.521870 0.025182 -0.140220
C19   C     C_3   0.902312 0.464757 0.064966 0.305283
C20   C     C_3   0.098443 0.535744 0.934786 0.308404
H5    H     H_    0.671956 0.460754 0.953916 0.128727
H6    H     H_    0.328582 0.539733 0.045941 0.128823
C21   C     C_3   0.991086 0.562152 0.062365 -0.201489
C22   C     C_3   0.009456 0.438318 0.937355 -0.197860
C23   C     C_3   0.910492 0.577241 0.971994 -0.219337
C24   C     C_3   0.090184 0.423267 0.027732 -0.226362
H7    H     H_    0.837962 0.640755 0.948815 0.124904
H8    H     H_    0.163173 0.359853 0.050806 0.126522
C25   C     C_3   0.681114 0.972444 0.477994 -0.351263
C26   C     C_3   0.318890 0.027596 0.521977 -0.350764
C27   C     C_3   0.603394 0.073372 0.473676 0.135180
C28   C     C_3   0.396609 0.926668 0.526298 0.134839
H9    H     H_    0.829215 0.949321 0.461232 0.169647
H10   H     H_    0.170790 0.050721 0.538739 0.169709
C29   C     C_3   0.510165 0.062264 0.562746 -0.311584
C30   C     C_3   0.489838 0.937771 0.437227 -0.311546
C31   C     C_3   0.584545 0.962209 0.566416 0.574183
C32   C     C_3   0.415459 0.037829 0.433553 0.573081
C33   C     C_3   0.606088 0.926033 0.976193 -0.000753
C34   C     C_3   0.392617 0.074890 0.024103 -0.021739
C35   C     C_3   0.429947 0.965216 0.928618 0.485566
C36   C     C_3   0.568713 0.035380 0.071820 0.387675
C37   C     C_3   0.506912 0.064933 0.938794 -0.527275
C38   C     C_3   0.491769 0.935470 0.061468 -0.522186
C39   C     C_3   0.680727 0.026227 0.987645 0.466902
C40   C     C_3   0.317332 0.974588 0.012762 0.464319
O21   O     O_3   0.353398 0.931149 0.852657 -0.737070
H11   H     H_    0.301950 0.868974 0.866714 0.319414
O22   O     O_3   0.646040 0.069052 0.147768 -0.742549
H12   H     H_    0.686422 0.133439 0.135286 0.308809
C41   C     C_3   0.724330 0.841581 0.949206 -0.321039
C42   C     C_3   0.815852 0.854503 0.861361 -0.722009
H13   H     H_    0.703212 0.865809 0.812629 0.280819
H14   H     H_    0.916235 0.914532 0.861504 0.312854
H15   H     H_    0.897918 0.791272 0.843668 0.209171
H16   H     H_    0.838547 0.828687 0.996863 0.231330
H17   H     H_    0.628210 0.780269 0.947985 0.152532
C43   C     C_3   0.282965 0.162431 0.050035 -0.314779
C44   C     C_3   0.189232 0.154298 0.137946 -0.835549
H18   H     H_    0.296184 0.132472 0.186148 0.305807
H19   H     H_    0.130702 0.222765 0.157450 0.230136
H20   H     H_    0.068552 0.103905 0.136798 0.276105
H21   H     H_    0.386237 0.220888 0.050666 0.161606
H22   H     H_    0.172441 0.178372 0.001666 0.206272
O23   O     O_3   0.868201 0.058109 0.974406 -0.680271
H23   H     H_    0.864090 0.124865 0.989289 0.291256
O24   O     O_3   0.129496 0.941666 0.022966 -0.705014
H24   H     H_    0.091864 0.956675 0.082270 0.350910
C45   C     C_3   0.233273 0.347083 0.447060 -0.418171
C46   C     C_3   0.307982 0.359036 0.356094 -0.909277
H25   H     H_    0.185794 0.363122 0.310897 0.255636
H26   H     H_    0.396644 0.423017 0.350819 0.261929
H27   H     H_    0.399221 0.298784 0.338272 0.259077
H28   H     H_    0.357501 0.340983 0.490949 0.186653
H29   H     H_    0.146513 0.282448 0.451354 0.177866
C47   C     C_3   0.766701 0.652882 0.552891 -0.417979
C48   C     C_3   0.691729 0.640867 0.643806 -0.910476
H30   H     H_    0.602930 0.576921 0.648980 0.262209
H31   H     H_    0.813790 0.636678 0.689061 0.255634
H32   H     H_    0.600556 0.701142 0.661631 0.258354
H33   H     H_    0.853516 0.717506 0.548685 0.177880
H34   H     H_    0.642595 0.659035 0.508940 0.186900
C49   C     C_3   0.791524 0.425878 0.141338 -0.371628
C50   C     C_3   0.705233 0.331584 0.120720 -0.967272
H35   H     H_    0.600876 0.338793 0.067958 0.252569
H36   H     H_    0.820348 0.282400 0.101297 0.255052
H37   H     H_    0.628823 0.303802 0.177607 0.269962
H38   H     H_    0.890782 0.419430 0.196247 0.173039
H39   H     H_    0.673450 0.474320 0.158973 0.202397
C51   C     C_3   0.209834 0.575020 0.858712 -0.387755
C52   C     C_3   0.300086 0.668288 0.880372 -0.940572
H40   H     H_    0.187726 0.717450 0.902809 0.263470
H41   H     H_    0.408704 0.659211 0.931236 0.251618
H42   H     H_    0.372544 0.697413 0.823052 0.263902
H43   H     H_    0.325830 0.525883 0.840022 0.203727
H44   H     H_    0.110062 0.583231 0.804187 0.174548
C53   C     C_3   0.720092 0.158438 0.446035 -0.416054
C54   C     C_3   0.792555 0.149725 0.354484 -0.773682
H45   H     H_    0.883381 0.086828 0.347009 0.279964
H46   H     H_    0.669243 0.145795 0.309978 0.291893
H47   H     H_    0.880679 0.211550 0.337811 0.231113
H48   H     H_    0.628622 0.221263 0.452044 0.179904
H49   H     H_    0.845544 0.166455 0.489045 0.193120
C55   C     C_3   0.279919 0.841617 0.553981 -0.415395
C56   C     C_3   0.207269 0.850433 0.645498 -0.774762
H50   H     H_    0.330469 0.854508 0.690058 0.291432
H51   H     H_    0.116272 0.913289 0.652855 0.281179
H52   H     H_    0.119254 0.788587 0.662216 0.229708
H53   H     H_    0.154554 0.833527 0.510933 0.193359
H54   H     H_    0.371444 0.778801 0.548068 0.179982
O25   O     O_3   0.673635 0.924126 0.637855 -0.762451
H55   H     H_    0.719935 0.862274 0.619471 0.306653
O26   O     O_3   0.326382 0.075908 0.362108 -0.763460
H56   H     H_    0.279996 0.137743 0.380497 0.307579

loop_
_geom_bond_atom_site_label_1
_geom_bond_atom_site_label_2
_geom_bond_distance
_ccdc_geom_bond_type
C26   H10   1.110606 S    
V4    O20   2.161267 S    
C44   H18   1.109589 S    
C29   C31   1.534118 S    
C6    C22   1.501263 S    
C54   H45   1.110741 S    
C34   C43   1.528158 S    
C4    C37   1.494820 S    
C12   C14   1.544398 S    
O24   H24   0.989412 S    
C39   O23   1.393204 S    
O4    C2    1.298637 A    
V1    O19   1.711275 S    
C28   C55   1.530294 S    
C50   H36   1.109844 S    
C45   C46   1.526408 S    
C16   C47   1.528552 S    
C32   O26   1.397787 S    
O22   H12   0.988763 S    
C48   H31   1.110821 S    
O9    V1    2.001073 S    
O23   H23   0.990592 S    
C10   H4    1.110515 S    
C9    C14   1.548160 S    
C11   H1    1.110423 S    
O7    V1    1.996618 S    
O3    C1    1.298637 A    
C43   H21   1.105441 S    
C27   C32   1.538639 S    
C47   H33   1.110489 S    
C25   C27   1.554352 S    
C49   H39   1.110796 S    
C34   C40   1.547304 S    
C8    C13   1.503853 S    
O13   V3    1.710519 S    
C33   C38   1.557915 S    
C17   C19   1.546103 S    
C35   C37   1.541401 S    
O7    C3    1.298000 A    
C51   C52   1.521556 S    
C47   C48   1.526376 S    
C9    C11   1.554316 S    
O5    C7    1.293203 A    
C53   H48   1.110347 S    
C26   C32   1.545037 S    
O6    C8    1.293204 A    
C49   C50   1.520036 S    
O8    V2    1.996617 S    
C55   C56   1.525195 S    
C56   H52   1.110726 S    
O3    V1    2.001397 S    
C49   H38   1.111088 S    
C33   C39   1.544545 S    
O18   C8    1.299640 A    
C10   C12   1.554304 S    
C45   H28   1.110715 S    
C52   H41   1.109677 S    
C53   C54   1.525146 S    
C51   H44   1.111102 S    
C17   C23   1.553182 S    
C2    O12   1.291095 A    
C36   O22   1.397215 S    
C13   C15   1.536698 S    
C18   C24   1.552821 S    
C10   C13   1.548172 S    
C14   C16   1.536671 S    
C42   H15   1.109693 S    
C11   C13   1.544395 S    
C50   H35   1.108953 S    
C22   C24   1.544907 S    
O11   V3    1.998270 S    
C18   C20   1.545936 S    
C23   H7    1.108556 S    
O17   V3    2.004571 S    
C20   C23   1.546379 S    
C48   H32   1.110165 S    
C24   H8    1.108276 S    
C9    C15   1.545330 S    
C10   C16   1.545320 S    
C42   H14   1.110065 S    
O8    C4    1.299161 A    
C37   C39   1.539212 S    
C43   C44   1.526838 S    
C20   C51   1.527593 S    
C1    O11   1.291102 A    
C54   H47   1.110732 S    
C55   H53   1.110952 S    
O15   V3    1.996043 S    
C18   C21   1.547324 S    
C33   C35   1.544549 S    
O4    V2    2.001399 S    
O21   H11   0.989039 S    
C53   H49   1.110951 S    
C5    C21   1.500599 S    
C17   H5    1.110543 S    
C52   H40   1.109849 S    
O10   V2    2.001072 S    
C36   C39   1.534738 S    
O1    V3    2.003791 S    
C33   C41   1.527251 S    
C35   C40   1.536674 S    
C9    H3    1.110517 S    
C11   C16   1.546697 S    
C45   H29   1.110485 S    
C19   C24   1.546035 S    
O14   V4    1.710520 S    
C38   C40   1.543653 S    
C28   C31   1.538606 S    
O18   V4    2.004572 S    
C46   H26   1.110830 S    
O15   C5    1.298837 A    
C56   H50   1.109597 S    
O16   C6    1.298400 A    
O1    C3    1.290646 A    
O12   V4    1.998270 S    
C41   H17   1.106715 S    
C25   C30   1.558503 S    
V2    O20   1.711274 S    
C55   H54   1.110343 S    
C26   C29   1.558490 S    
O10   C6    1.292937 A    
C54   H46   1.109552 S    
O16   V4    1.996044 S    
C52   H42   1.110757 S    
C40   O24   1.394523 S    
C15   C45   1.528564 S    
C25   C31   1.545016 S    
C42   H13   1.109686 S    
C19   C21   1.532980 S    
O25   H55   0.990384 S    
C25   H9    1.110607 S    
O5    V1    1.999604 S    
C3    C38   1.494794 S    
C27   C53   1.530307 S    
C46   H27   1.110167 S    
O6    V2    1.999602 S    
C48   H30   1.110831 S    
C18   H6    1.110532 S    
C27   C29   1.545689 S    
C17   C22   1.547413 S    
C28   C30   1.545689 S    
O2    V4    2.003789 S    
C12   H2    1.110420 S    
V3    O19   2.161268 S    
C43   H22   1.107390 S    
O26   H56   0.990380 S    
C47   H34   1.110717 S    
C7    C14   1.503834 S    
C41   H16   1.109544 S    
C34   C37   1.558967 S    
C19   C49   1.527045 S    
O9    C5    1.292164 A    
O13   V1    2.162734 S    
C35   O21   1.397283 S    
O14   V2    2.162734 S    
C51   H43   1.110784 S    
O2    C4    1.289271 A    
C1    C30   1.497270 S    
C2    C29   1.497256 S    
C41   C42   1.526419 S    
C31   O25   1.397760 S    
C20   C22   1.533966 S    
C34   C36   1.547134 S    
C46   H25   1.110827 S    
C44   H20   1.107923 S    
C56   H51   1.110741 S    
C44   H19   1.109985 S    
C12   C15   1.546700 S    
C36   C38   1.544233 S    
C21   C23   1.544545 S    
C26   C28   1.554340 S    
C50   H37   1.110700 S    
C30   C32   1.534170 S    
O17   C7    1.299625 A    
