data_mof_unit_33107.cif
_audit_creation_date              2012-12-10T17:48:55-0500
_audit_creation_method            fapswitch 2.2
_symmetry_space_group_name_H-M    P1
_symmetry_Int_Tables_number       1
_space_group_crystal_system       triclinic
_cell_length_a                    10.759633
_cell_length_b                    14.698084
_cell_length_c                    14.763792
_cell_angle_alpha                 64.606282
_cell_angle_beta                  103.693872
_cell_angle_gamma                 103.514331
_cell_volume                      2025.92390189

loop_
_atom_site_label
_atom_site_type_symbol
_atom_type_description
_atom_site_fract_x
_atom_site_fract_y
_atom_site_fract_z
_atom_type_partial_charge
C1    C     C_R   0.475730 0.120470 0.312042 0.855136
C2    C     C_R   0.420148 0.359212 0.073381 -0.091676
C3    C     C_R   0.395733 0.318336 0.998367 -0.009033
C4    C     C_R   0.259067 0.004192 0.492181 0.794343
C5    C     C_R   0.416685 0.464721 0.042593 0.097367
C6    C     C_R   0.424503 0.531208 0.940169 0.061942
C7    C     C_R   0.402263 0.488712 0.867135 -0.244257
C8    C     C_R   0.383094 0.383929 0.895728 -0.164309
C9    C     C_R   0.402550 0.505677 0.109887 -0.163875
C10   C     C_R   0.418586 0.610272 0.082125 -0.268296
C11   C     C_R   0.448399 0.676960 0.986344 0.159092
C12   C     C_3   0.877374 0.007609 0.489945 -0.046496
C13   C     C_R   0.451541 0.637929 0.914319 0.081947
C14   C     C_R   0.473465 0.782386 0.961118 -0.191806
C15   C     C_R   0.501479 0.849608 0.864912 -0.198526
C16   C     C_R   0.517654 0.879978 0.687627 0.784294
C17   C     C_R   0.485464 0.706775 0.819742 -0.254329
C18   C     C_R   0.761266 0.313701 0.614717 -0.344394
C19   C     C_R   0.711109 0.222696 0.602114 -0.002009
C20   C     C_R   0.504289 0.274253 0.535990 0.651650
C21   C     C_R   0.555473 0.374628 0.531951 -0.107455
C22   C     C_R   0.684496 0.390688 0.578409 0.102276
C23   C     C_3   0.946956 0.953238 0.598767 -0.492399
C24   C     C_R   0.482091 0.457610 0.486908 0.092630
C25   C     C_R   0.532158 0.549740 0.503015 0.066459
C26   C     C_R   0.659296 0.559561 0.555404 -0.229077
C27   C     C_R   0.734867 0.482517 0.589818 -0.169084
C28   C     C_R   0.739512 0.002877 0.495809 0.849836
C29   C     C_R   0.364922 0.454082 0.420096 -0.183629
C30   C     C_R   0.294109 0.534544 0.376251 -0.256302
C31   C     C_R   0.336821 0.621613 0.397417 0.169043
C32   C     C_R   0.455338 0.630467 0.461990 -0.024317
C33   C     C_R   0.262378 0.700840 0.353182 -0.317487
C34   C     C_3   0.946844 0.121799 0.441224 0.952310
C35   C     C_R   0.303678 0.787479 0.374606 0.093691
C36   C     C_R   0.490418 0.720053 0.482591 0.000968
C37   C     C_3   0.024652 0.955235 0.412683 0.935980
C38   C     C_3   0.883415 0.947908 0.426150 -0.447822
C39   C     C_3   0.089540 0.955462 0.597039 -0.475322
C40   C     C_3   0.093094 0.117334 0.443117 -0.507522
C41   C     C_3   0.119249 0.005431 0.486264 -0.063456
C42   C     C_3   0.046137 0.778020 0.521064 -0.370007
C43   C     C_3   0.974756 0.276748 0.464033 -0.324776
C44   C     C_3   0.230410 0.128508 0.946067 -0.370749
C45   C     C_R   0.449657 0.189298 0.204162 -0.215874
C46   C     C_3   0.642945 0.367780 0.246825 -0.286547
C47   C     C_3   0.109830 0.010046 0.257555 -0.308446
C48   C     C_3   0.344917 0.209963 0.631749 -0.350167
C49   C     C_3   0.937616 0.239918 0.264064 -0.388894
C50   C     C_R   0.506530 0.811893 0.793533 -0.055566
C51   C     C_R   0.386771 0.212714 0.027058 0.505249
C52   C     C_R   0.412775 0.149162 0.129549 -0.370518
C53   C     C_R   0.458216 0.295207 0.175764 0.415315
Cu1   Cu    Cu3+1 0.465900 0.918260 0.475680 0.926531
Cu2   Cu    Cu3+1 0.534100 0.081740 0.524320 0.991253
H1    H     H_    0.150218 0.000318 0.640722 0.200252
H2    H     H_    0.329189 0.391646 0.396111 0.190160
H3    H     H_    0.836116 0.867861 0.459863 0.162604
H4    H     H_    0.154470 0.154390 0.492555 0.229700
H5    H     H_    0.129384 0.160697 0.369761 0.173567
H6    H     H_    0.976825 0.779169 0.564867 0.141117
H7    H     H_    0.144252 0.774802 0.566473 0.199867
H8    H     H_    0.016419 0.705287 0.510427 0.189551
H9    H     H_    0.899081 0.312225 0.400529 0.193244
H10   H     H_    0.072113 0.301630 0.440869 0.154288
H11   H     H_    0.978726 0.305267 0.523188 0.176507
H12   H     H_    0.940217 0.990467 0.648734 0.212980
H13   H     H_    0.363660 0.354788 0.836851 0.180356
H14   H     H_    0.516101 0.930823 0.845688 0.158225
H15   H     H_    0.165727 0.186028 0.924668 0.160435
H16   H     H_    0.208818 0.062678 0.017529 0.160890
H17   H     H_    0.208996 0.099686 0.884935 0.190865
H18   H     H_    0.407068 0.068287 0.150205 0.193931
H19   H     H_    0.664021 0.426411 0.171433 0.151152
H20   H     H_    0.693277 0.301663 0.269269 0.198213
H21   H     H_    0.682396 0.402336 0.303393 0.180416
H22   H     H_    0.071786 0.938828 0.244645 0.196582
H23   H     H_    0.497383 0.679994 0.765258 0.150749
H24   H     H_    0.210692 0.011714 0.296401 0.178865
H25   H     H_    0.110114 0.073591 0.181669 0.161703
H26   H     H_    0.374702 0.457758 0.183513 0.195888
H27   H     H_    0.575682 0.730209 0.534914 0.122706
H28   H     H_    0.860828 0.324834 0.650179 0.149205
H29   H     H_    0.773548 0.165975 0.626709 0.185213
H30   H     H_    0.376992 0.271822 0.660510 0.163707
H31   H     H_    0.388970 0.140949 0.685459 0.183309
H32   H     H_    0.238799 0.190123 0.630283 0.184733
H33   H     H_    0.822023 0.979254 0.350687 0.209371
H34   H     H_    0.409728 0.638948 0.136475 0.155979
H35   H     H_    0.705274 0.628233 0.566673 0.125139
H36   H     H_    0.172311 0.695668 0.302566 0.139703
H37   H     H_    0.116827 0.878239 0.639216 0.174329
H38   H     H_    0.899420 0.872886 0.632610 0.171030
H39   H     H_    0.975016 0.201822 0.227837 0.230192
H40   H     H_    0.016239 0.292751 0.287663 0.143394
H41   H     H_    0.868014 0.287330 0.204344 0.178225
H42   H     H_    0.393414 0.534643 0.786693 0.142607
H43   H     H_    0.469746 0.812823 0.015387 0.141434
H44   H     H_    0.833505 0.494629 0.626657 0.132313
H45   H     H_    0.246033 0.847849 0.340786 0.143956
H46   H     H_    0.204982 0.528594 0.324891 0.136088
N1    N     N_R   0.585360 0.204570 0.560800 -0.216310
N2    N     N_R   0.414550 0.795430 0.439160 -0.181757
O1    O     O_R   0.455060 0.022100 0.338110 -0.613084
O2    O     O_3   0.942257 0.169680 0.506480 -0.607000
O3    O     O_3   0.361829 0.172133 0.954483 -0.579512
O4    O     O_3   0.508827 0.336366 0.247828 -0.580145
O5    O     O_3   0.029046 0.026554 0.309682 -0.630959
O6    O     O_3   0.373257 0.241391 0.532890 -0.605976
O7    O     O_3   0.870471 0.167182 0.343432 -0.608779
O8    O     O_R   0.512640 0.160150 0.379180 -0.515139
O9    O     O_R   0.288900 0.930980 0.479450 -0.579008
O10   O     O_R   0.346480 0.069030 0.520520 -0.535506
O11   O     O_R   0.487360 0.839850 0.620820 -0.591055
O12   O     O_R   0.544940 0.977900 0.661890 -0.593332
O13   O     O_R   0.653520 0.930970 0.479480 -0.607587
O14   O     O_R   0.711100 0.069020 0.520550 -0.551035
O15   O     O_3   0.049303 0.858478 0.423985 -0.591444

loop_
_geom_bond_atom_site_label_1
_geom_bond_atom_site_label_2
_ccdc_geom_bond_type
C40   H5    S    
C47   H24   S    
C46   H21   S    
C7    C8    A    
C39   C41   S    
C12   C23   S    
C27   H44   S    
C26   C27   A    
C29   C30   A    
C12   C28   S    
C36   N2    A    
C34   C40   S    
C32   C36   A    
Cu1   O1    S    
C16   C50   S    
C35   N2    A    
C28   O14   A    
C33   H36   S    
C30   C31   A    
C11   C14   A    
C20   N1    A    
C4    C41   S    
C4    O10   A    
C44   H16   S    
C18   C19   A    
C43   O2    S    
C15   C50   A    
C23   H12   S    
C24   C29   A    
C28   O13   A    
C33   C35   A    
C38   H3    S    
C37   O15   S    
C39   H1    S    
C10   H34   S    
C36   H27   S    
Cu1   O13   S    
C31   C33   A    
C44   H15   S    
C49   H39   S    
C9    C10   A    
C42   H7    S    
C25   C32   A    
C48   O6    S    
C4    O9    A    
C45   C53   A    
C40   H4    S    
C43   H11   S    
C21   C22   A    
C12   C38   S    
C47   H25   S    
C46   H20   S    
C43   H9    S    
C14   H43   S    
C15   H14   S    
Cu2   N1    S    
C3    C8    A    
C51   C52   A    
Cu1   N2    S    
C24   C25   A    
C37   O5    S    
C52   H18   S    
C3    C51   A    
C42   O15   S    
Cu2   O10   S    
C45   C52   A    
C25   C26   A    
C23   H38   S    
C38   H33   S    
C5    C9    A    
C37   C38   S    
C53   O4    S    
C31   C32   A    
C1    O1    A    
C43   H10   S    
C46   O4    S    
C14   C15   A    
C18   H28   S    
C48   H32   S    
Cu1   O9    S    
C49   H40   S    
C42   H6    S    
C40   C41   S    
C29   H2    S    
C8    H13   S    
C22   C27   A    
C34   O7    S    
C48   H31   S    
C2    C5    A    
C47   H22   S    
C12   C34   S    
C19   H29   S    
C16   O12   A    
C39   H37   S    
C46   H19   S    
Cu2   O14   S    
Cu1   Cu2   S    
C7    H42   S    
Cu2   O8    S    
C18   C22   A    
C34   O2    S    
C2    C53   A    
C16   O11   A    
C17   C50   A    
C6    C7    A    
C44   O3    S    
C26   H35   S    
C13   C17   A    
C2    C3    A    
C1    O8    A    
C6    C13   A    
C11   C13   A    
C1    C45   S    
C5    C6    A    
Cu2   O12   S    
C51   O3    S    
C23   C39   S    
Cu1   O11   S    
C30   H46   S    
C17   H23   S    
C19   N1    A    
C44   H17   S    
C49   H41   S    
C37   C41   S    
C10   C11   A    
C20   O6    S    
C20   C21   A    
C47   O5    S    
C21   C24   A    
C48   H30   S    
C42   H8    S    
C35   H45   S    
C9    H26   S    
C49   O7    S    
