data_mof_unit_34126.cif
_audit_creation_date              2012-12-10T16:51:32-0500
_audit_creation_method            fapswitch 2.2
_symmetry_space_group_name_H-M    P1
_symmetry_Int_Tables_number       1
_space_group_crystal_system       triclinic
_cell_length_a                    7.813941
_cell_length_b                    8.588114
_cell_length_c                    12.251011
_cell_angle_alpha                 93.139563
_cell_angle_beta                  101.712063
_cell_angle_gamma                 94.00521
_cell_volume                      801.043075772

loop_
_atom_site_label
_atom_site_type_symbol
_atom_type_description
_atom_site_fract_x
_atom_site_fract_y
_atom_site_fract_z
_atom_type_partial_charge
C1    C     C_R   0.046977 0.795008 0.504985 1.005051
C2    C     C_R   0.168137 0.537208 0.829365 -0.081225
C3    C     C_2   0.068784 0.959381 0.509059 -0.515187
C4    C     C_R   0.108110 0.510852 0.709707 0.868226
C5    C     C_2   0.946638 0.049054 0.537302 0.271441
C6    C     C_R   0.958906 0.206622 0.510123 0.833739
C7    C     C_R   0.891740 0.488533 0.290011 0.911027
C8    C     C_R   0.759959 0.244399 0.024350 -0.148556
C9    C     C_R   0.828001 0.450145 0.171749 -0.052464
C10   C     C_R   0.109239 0.663925 0.882875 -0.256889
C11   C     C_R   0.186360 0.712536 0.991868 -0.186185
C12   C     C_R   0.400614 0.517282 0.991506 -0.070762
C13   C     C_R   0.327794 0.638858 0.049207 0.359164
C14   C     C_R   0.304762 0.455872 0.885462 0.050817
C15   C     C_R   0.562781 0.453356 0.032002 0.080361
C16   C     C_R   0.604928 0.312520 0.980233 0.164605
C17   C     C_R   0.492493 0.241721 0.885255 -0.204620
C18   C     C_R   0.346400 0.314329 0.836738 -0.167590
C19   C     C_R   0.689006 0.528555 0.118986 -0.146986
C20   C     C_R   0.868767 0.310663 0.122463 -0.212749
H1    H     H_    0.977409 0.248641 0.163220 0.155325
H2    H     H_    0.176845 0.006224 0.473646 0.194606
H3    H     H_    0.615719 0.175088 0.649948 0.364972
H4    H     H_    0.326004 0.424579 0.217122 0.341001
H5    H     H_    0.471015 0.364871 0.425389 0.213673
H6    H     H_    0.529691 0.629656 0.579713 0.235371
H7    H     H_    0.520616 0.132774 0.846223 0.184165
H8    H     H_    0.791831 0.136132 0.986371 0.166569
H9    H     H_    0.677886 0.645064 0.150997 0.201135
H10   H     H_    0.003057 0.726069 0.840261 0.225538
H11   H     H_    0.131183 0.805967 0.032815 0.192195
H12   H     H_    0.264645 0.257637 0.760973 0.158822
N1    N     N_2   0.434800 0.456690 0.470850 -0.120826
N2    N     N_2   0.565200 0.543310 0.529150 -0.114686
O1    O     O_R   0.893060 0.738880 0.507150 -0.528594
O2    O     O_2   0.841251 0.873993 0.694118 -0.324371
O3    O     O_3   0.734913 0.151436 0.687295 -0.565101
O4    O     O_2   0.505631 0.801168 0.238178 -0.278320
O5    O     O_2   0.200006 0.716778 0.230743 -0.307627
O6    O     O_3   0.421798 0.504322 0.252543 -0.547937
O7    O     O_R   0.172250 0.711130 0.488470 -0.572631
O8    O     O_R   0.944700 0.520730 0.667600 -0.589379
O9    O     O_R   0.223890 0.492980 0.648920 -0.643694
O10   O     O_R   0.827750 0.288870 0.511530 -0.594929
O11   O     O_R   0.106940 0.261120 0.492850 -0.663564
O12   O     O_R   0.776110 0.507020 0.351080 -0.558988
O13   O     O_R   0.055300 0.479270 0.332400 -0.579663
O14   O     O_2   0.618013 0.928023 0.532359 -0.288477
S1    S     S_3+6 0.781332 0.994163 0.613574 0.025626
S2    S     S_3+6 0.364604 0.671176 0.196322 0.014903
Zn1   Zn    Zn3+2 0.813580 0.518530 0.512470 1.085036
Zn2   Zn    Zn3+2 0.186420 0.481470 0.487530 1.018631

loop_
_geom_bond_atom_site_label_1
_geom_bond_atom_site_label_2
_ccdc_geom_bond_type
C2    C4    S    
O13   Zn2   S    
O4    S2    D    
C6    O11   A    
O3    S1    S    
C10   H10   S    
O7    Zn2   S    
C12   C15   A    
O8    Zn1   S    
N1    N2    D    
C11   H11   S    
C8    C16   A    
C6    O10   A    
C12   C13   A    
N1    Zn2   S    
C15   C19   A    
C11   C13   A    
C5    S1    S    
N2    Zn1   S    
C8    C20   A    
C4    O8    A    
O6    S2    S    
O10   Zn1   S    
C1    O7    A    
O14   S1    D    
H4    O6    S    
C4    O9    A    
C12   C14   A    
C17   C18   A    
O1    Zn1   S    
C5    C6    S    
C2    C14   A    
C7    O13   A    
O9    Zn2   S    
C18   H12   S    
C10   C11   A    
C15   C16   A    
C17   H7    S    
C7    O12   A    
C3    C5    D    
O5    S2    D    
C20   H1    S    
C1    O1    A    
C8    H8    S    
C7    C9    S    
C14   C18   A    
C3    H2    S    
C9    C20   A    
O11   Zn2   S    
H6    N2    S    
H3    O3    S    
O12   Zn1   S    
C9    C19   A    
C2    C10   A    
O2    S1    D    
C13   S2    S    
H5    N1    S    
C16   C17   A    
C1    C3    S    
C19   H9    S    
