data_mof_unit_16189.cif
_audit_creation_date              2012-10-26T21:19:38-0400
_audit_creation_method            fapswitch 2.2
_symmetry_space_group_name_H-M    P1
_symmetry_Int_Tables_number       1
_space_group_crystal_system       triclinic
_cell_length_a                    10.98984
_cell_length_b                    15.160455
_cell_length_c                    14.053359
_cell_angle_alpha                 92.190012
_cell_angle_beta                  91.621049
_cell_angle_gamma                 92.862661
_cell_volume                      2335.74400203

loop_
_atom_site_label
_atom_site_type_symbol
_atom_type_description
_atom_site_fract_x
_atom_site_fract_y
_atom_site_fract_z
_atom_type_partial_charge
C1    C     C_R   0.504029 0.330544 0.498365 0.643213
C2    C     C_R   0.538882 0.815277 0.430106 0.262438
C3    C     C_R   0.498868 0.233894 0.494301 -0.004452
C4    C     C_R   0.479473 0.766814 0.501095 -0.045661
C5    C     C_R   0.605595 0.185621 0.496389 0.237702
C6    C     C_R   0.405371 0.811868 0.566383 0.248124
C7    C     C_R   0.596129 0.095297 0.512730 0.247337
C8    C     C_R   0.414960 0.904345 0.574846 0.233144
C9    C     C_R   0.480404 0.049823 0.507289 -0.104706
C10   C     C_R   0.474795 0.952317 0.503986 -0.102476
C11   C     C_R   0.484885 0.580782 0.111720 0.151012
C12   C     C_R   0.491913 0.669746 0.500963 0.611833
C13   C     C_R   0.432302 0.431735 0.885787 0.234054
C14   C     C_R   0.491066 0.577613 0.212707 0.056043
C15   C     C_R   0.439175 0.433486 0.785361 0.086625
C16   C     C_R   0.261868 0.492277 0.498124 0.607692
C17   C     C_R   0.738005 0.506702 0.501751 0.615092
C18   C     C_R   0.507079 0.423112 0.201715 0.360881
C19   C     C_R   0.569542 0.562845 0.798012 0.382719
C20   C     C_R   0.531974 0.427866 0.103867 0.231966
C21   C     C_R   0.580193 0.554394 0.898069 0.212761
C22   C     C_R   0.500034 0.501839 0.054398 -0.013880
C23   C     C_R   0.873350 0.511970 0.504490 -0.037984
C24   C     C_R   0.500459 0.496631 0.945137 0.004356
C25   C     C_R   0.168155 0.574497 0.172696 0.245127
C26   C     C_R   0.832925 0.450777 0.835893 0.227695
C27   C     C_R   0.165774 0.575599 0.271995 0.316362
C28   C     C_R   0.835829 0.439707 0.736729 0.288389
C29   C     C_R   0.105844 0.504578 0.317116 -0.035594
C30   C     C_R   0.900132 0.503230 0.683143 -0.029484
C31   C     C_R   0.066018 0.427148 0.262494 0.218196
C32   C     C_R   0.949532 0.582320 0.729747 0.247041
C33   C     C_R   0.077194 0.424216 0.163064 0.324499
C34   C     C_R   0.126066 0.486337 0.494774 -0.040929
C35   C     C_R   0.945502 0.593250 0.829064 0.376136
C36   C     C_R   0.129652 0.497405 0.117711 0.182817
C37   C     C_R   0.894332 0.525529 0.883156 0.226227
C38   C     C_R   0.937669 0.537613 0.423344 0.232476
C39   C     C_R   0.060845 0.460382 0.575311 0.228371
C40   C     C_R   0.939029 0.482568 0.584275 -0.075290
C41   C     C_R   0.060391 0.516488 0.415143 -0.081500
C42   C     C_R   0.373417 0.096792 0.492679 0.216286
C43   C     C_R   0.529350 0.907133 0.427829 0.232095
C44   C     C_R   0.383227 0.189651 0.490798 0.273137
Cu1   Cu    Cu3+1 0.500000 0.499990 0.596430 1.180259
Cu2   Cu    Cu3+1 0.500000 0.500010 0.403570 1.184374
H1    H     H_    0.483508 0.638367 0.253611 0.244535
H2    H     H_    0.739863 0.713578 0.638110 0.370909
H3    H     H_    0.623976 0.321880 0.100437 0.393805
H4    H     H_    0.690947 0.574894 0.009303 0.355721
H5    H     H_    0.158576 0.653431 0.067931 0.391148
H6    H     H_    0.738035 0.413459 0.942417 0.347133
H7    H     H_    0.204509 0.645093 0.390378 0.349840
H8    H     H_    0.784315 0.364476 0.626112 0.368274
H9    H     H_    0.028537 0.356546 0.372839 0.340549
H10   H     H_    0.983050 0.643954 0.612827 0.345509
H11   H     H_    0.987933 0.283217 0.950259 0.388266
H12   H     H_    0.393985 0.381005 0.742116 0.224033
H13   H     H_    0.029111 0.829237 0.848211 0.383307
H14   H     H_    0.928914 0.703641 0.238332 0.402668
H15   H     H_    0.030444 0.320860 0.771421 0.405624
H16   H     H_    0.265964 0.991562 0.462336 0.372099
H17   H     H_    0.535142 0.006750 0.343323 0.363531
H18   H     H_    0.206245 0.201093 0.481509 0.399448
H19   H     H_    0.645738 0.812254 0.320142 0.409846
H20   H     H_    0.931504 0.238350 0.531634 0.387116
H21   H     H_    0.109123 0.817713 0.658738 0.408386
H22   H     H_    0.212120 0.531843 0.003357 0.359062
H23   H     H_    0.891626 0.476959 0.009837 0.367553
H24   H     H_    0.684648 0.997166 0.561602 0.344163
H25   H     H_    0.389700 0.007552 0.658770 0.353238
H26   H     H_    0.388586 0.808777 0.109440 0.401115
H27   H     H_    0.374522 0.204186 0.950651 0.397432
H28   H     H_    0.274126 0.272498 0.289918 0.399089
N1    N     N_R   0.500000 0.500020 0.258690 -0.300307
N2    N     N_R   0.500000 0.499980 0.741310 -0.305617
O1    O     O_R   0.500010 0.371450 0.581430 -0.512745
O2    O     O_3   0.905274 0.534912 0.981182 -0.616365
O3    O     O_3   0.702727 0.052226 0.527894 -0.550712
O4    O     O_3   0.358783 0.945298 0.650354 -0.577216
O5    O     O_2   0.590197 0.730373 0.047238 -0.155143
O6    O     O_2   0.393851 0.678595 0.972197 -0.211603
O7    O     O_3   0.398720 0.752993 0.142583 -0.437997
O8    O     O_2   0.297876 0.364404 0.026241 -0.203161
O9    O     O_2   0.238092 0.317777 0.862811 -0.221368
O10   O     O_3   0.431312 0.254063 0.935239 -0.412533
O11   O     O_2   0.405609 0.261875 0.145804 -0.199495
O12   O     O_R   0.499990 0.628550 0.418570 -0.471703
O13   O     O_2   0.544613 0.267490 0.282017 -0.232220
O14   O     O_3   0.325177 0.327752 0.301624 -0.499406
O15   O     O_2   0.536249 0.725219 0.736861 -0.206826
O16   O     O_2   0.721678 0.711705 0.828235 -0.141655
O17   O     O_3   0.716930 0.652626 0.656338 -0.549956
O18   O     O_3   0.581691 0.358704 0.054397 -0.609299
O19   O     O_3   0.673269 0.601894 0.947814 -0.582406
O20   O     O_3   0.198498 0.653157 0.131671 -0.558032
O21   O     O_3   0.769838 0.386242 0.883904 -0.593167
O22   O     O_3   0.211463 0.651643 0.321021 -0.564145
O23   O     O_R   0.500010 0.371460 0.418560 -0.398845
O24   O     O_3   0.778033 0.363940 0.695903 -0.558817
O25   O     O_3   0.011220 0.354185 0.303359 -0.572328
O26   O     O_3   0.008673 0.648458 0.680880 -0.581689
O27   O     O_2   0.095309 0.251747 0.124206 -0.172459
O28   O     O_2   0.890506 0.307891 0.122822 -0.209402
O29   O     O_3   0.025882 0.339098 0.978706 -0.427060
O30   O     O_2   0.963545 0.706925 0.983239 -0.182833
O31   O     O_2   0.146767 0.685364 0.890578 -0.211830
O32   O     O_3   0.978094 0.778902 0.819430 -0.434706
O33   O     O_2   0.817146 0.547621 0.254883 -0.275997
O34   O     O_R   0.499990 0.628540 0.581440 -0.422991
O35   O     O_2   0.770688 0.655776 0.381398 -0.229098
O36   O     O_3   0.969828 0.680854 0.295412 -0.451081
O37   O     O_2   0.229237 0.344858 0.626770 -0.242609
O38   O     O_2   0.169415 0.455139 0.746918 -0.263035
O39   O     O_3   0.021200 0.319611 0.701145 -0.459545
O40   O     O_3   0.258978 0.054942 0.479116 -0.627651
O41   O     O_3   0.576359 0.950809 0.351159 -0.617637
O42   O     O_3   0.281822 0.239198 0.479530 -0.630333
O43   O     O_3   0.601162 0.770520 0.360779 -0.601513
O44   O     O_2   0.792767 0.176930 0.381156 -0.136308
O45   O     O_R   0.319640 0.500000 0.581430 -0.412289
O46   O     O_2   0.749309 0.324875 0.439810 -0.317389
O47   O     O_3   0.851311 0.219626 0.556712 -0.425013
O48   O     O_2   0.252663 0.667227 0.585727 -0.292912
O49   O     O_2   0.302552 0.760877 0.728804 -0.125827
O50   O     O_3   0.156505 0.818499 0.599889 -0.444656
O51   O     O_R   0.680360 0.500000 0.418570 -0.411405
O52   O     O_R   0.319640 0.500010 0.418560 -0.523842
O53   O     O_R   0.680360 0.499990 0.581440 -0.501851
O54   O     O_3   0.141804 0.492670 0.020233 -0.570556
S1    S     S_3+6 0.467395 0.686795 0.064155 0.087651
S2    S     S_3+6 0.279568 0.760057 0.622857 0.139392
S3    S     S_3+6 0.344362 0.341986 0.929678 0.122104
S4    S     S_3+6 0.447093 0.316760 0.233048 0.095234
S5    S     S_3+6 0.636895 0.664503 0.755309 0.119503
S6    S     S_3+6 0.020589 0.327770 0.097054 0.166855
S7    S     S_3+6 0.010912 0.692111 0.884907 0.177671
S8    S     S_3+6 0.869752 0.605434 0.336771 0.057540
S9    S     S_3+6 0.125389 0.394785 0.664363 0.048939
S10   S     S_3+6 0.751320 0.230076 0.465631 0.103776

loop_
_geom_bond_atom_site_label_1
_geom_bond_atom_site_label_2
_ccdc_geom_bond_type
H11   O29   S    
Cu2   O23   S    
C27   O22   S    
Cu1   O53   S    
C18   N1    A    
C27   C29   A    
C1    O1    A    
O49   S2    D    
C16   O45   A    
C1    O23   A    
C12   O34   A    
Cu1   Cu2   S    
H16   O40   S    
C9    C42   A    
C17   C23   S    
Cu1   N2    S    
C31   O25   S    
C22   C24   S    
Cu2   O52   S    
C19   N2    A    
C35   C37   A    
O32   S7    S    
H17   O41   S    
C11   C14   A    
H4    O19   S    
O5    S1    D    
C19   S5    S    
C23   C40   A    
H6    O21   S    
C33   C36   A    
H18   O42   S    
O48   S2    D    
H25   O4    S    
C16   C34   S    
H15   O39   S    
O37   S9    D    
O44   S10   D    
C44   O42   S    
H3    O18   S    
C4    C12   S    
C9    C10   S    
H5    O20   S    
C28   O24   S    
C15   N2    A    
C10   C43   A    
O11   S4    D    
H8    O24   S    
H23   O2    S    
C34   C41   A    
C42   C44   A    
Cu2   N1    S    
Cu2   O12   S    
C38   S8    S    
O8    S3    D    
C39   S9    S    
C3    C44   A    
H2    O17   S    
C12   O12   A    
C17   O53   A    
C34   C39   A    
C32   C35   A    
O36   S8    S    
Cu2   O51   S    
C38   C41   A    
C4    C6    A    
H21   O50   S    
C39   C40   A    
C5    C7    A    
Cu1   O34   S    
C17   O51   A    
O30   S7    D    
C6    C8    A    
C21   O19   S    
C3    C5    A    
O47   S10   S    
C13   C24   A    
O33   S8    D    
C1    C3    S    
O31   S7    D    
C2    C4    A    
O27   S6    D    
O7    S1    S    
H14   O36   S    
C36   O54   S    
O10   S3    S    
O50   S2    S    
C2    C43   A    
C31   C33   A    
H19   O43   S    
C30   C40   S    
O38   S9    D    
H22   O54   S    
C16   O52   A    
C43   O41   S    
O29   S6    S    
C6    S2    S    
C20   C22   A    
C26   O21   S    
C13   C15   A    
C15   H12   S    
C32   O26   S    
O16   S5    D    
C5    S10   S    
C7    O3    S    
C42   O40   S    
C7    C9    A    
C20   O18   S    
O13   S4    D    
O28   S6    D    
C29   C41   S    
H24   O3    S    
C13   S3    S    
O39   S9    S    
O17   S5    S    
C11   S1    S    
C2    O43   S    
C26   C37   A    
C14   H1    S    
H7    O22   S    
C25   C27   A    
C23   C38   A    
C37   O2    S    
H9    O25   S    
C11   C22   A    
C26   C28   A    
H13   O32   S    
Cu1   O45   S    
C14   N1    A    
H28   O14   S    
C28   C30   A    
O46   S10   D    
C29   C31   A    
C35   S7    S    
C30   C32   A    
C33   S6    S    
O14   S4    S    
C18   S4    S    
C18   C20   A    
H27   O10   S    
H26   O7    S    
C25   C36   A    
H10   O26   S    
O15   S5    D    
C25   O20   S    
C8    C10   A    
C21   C24   A    
C8    O4    S    
H20   O47   S    
Cu1   O1    S    
O6    S1    D    
O35   S8    D    
O9    S3    D    
C19   C21   A    
