data_mof_unit_35331.cif
_audit_creation_date              2012-12-10T17:19:21-0500
_audit_creation_method            fapswitch 2.2
_symmetry_space_group_name_H-M    P1
_symmetry_Int_Tables_number       1
_space_group_crystal_system       triclinic
_cell_length_a                    14.95511
_cell_length_b                    10.803987
_cell_length_c                    9.72514
_cell_angle_alpha                 89.779265
_cell_angle_beta                  92.590977
_cell_angle_gamma                 96.656734
_cell_volume                      1559.14739218

loop_
_atom_site_label
_atom_site_type_symbol
_atom_type_description
_atom_site_fract_x
_atom_site_fract_y
_atom_site_fract_z
_atom_type_partial_charge
C1    C     C_R   0.507297 0.263949 0.501203 0.872950
C2    C     C_R   0.917012 0.621948 0.508558 0.066490
C3    C     C_R   0.933461 0.280378 0.479331 -0.134446
C4    C     C_R   0.026349 0.279548 0.474659 -0.178111
C5    C     C_R   0.083619 0.391629 0.482756 0.089038
C6    C     C_R   0.047383 0.506061 0.495047 0.082056
C7    C     C_R   0.104952 0.619160 0.504085 0.130445
C8    C     C_R   0.068637 0.732149 0.514729 -0.194521
C9    C     C_R   0.975632 0.733754 0.516298 -0.109315
C10   C     C_R   0.176692 0.391377 0.479941 -0.120413
C11   C     C_R   0.233158 0.503479 0.491640 -0.007632
C12   C     C_R   0.329480 0.501711 0.497356 0.857798
C13   C     C_R   0.198013 0.616984 0.503280 -0.242037
C14   C     C_R   0.565231 0.118391 0.753812 0.279486
C15   C     C_R   0.549117 0.058871 0.879599 -0.071089
C16   C     C_R   0.496677 0.944255 0.883288 -0.130811
C17   C     C_R   0.469284 0.882074 0.760793 -0.157515
C18   C     C_R   0.491393 0.936617 0.632218 0.064408
C19   C     C_R   0.524444 0.064086 0.629614 0.061185
C20   C     C_R   0.512914 0.129630 0.503969 -0.123247
C21   C     C_R   0.488455 0.063128 0.381730 -0.144221
C22   C     C_R   0.475731 0.934535 0.382270 -0.137534
C23   C     C_R   0.492123 0.735955 0.500621 0.810695
C24   C     C_R   0.482023 0.869531 0.505843 -0.094363
C25   C     C_R   0.641880 0.640561 0.148011 0.323688
C26   C     C_R   0.724476 0.654979 0.086355 -0.224542
C27   C     C_R   0.724005 0.663458 0.943949 0.275826
C28   C     C_R   0.643029 0.633707 0.867351 -0.097625
C29   C     C_R   0.568312 0.568810 0.930024 0.029142
C30   C     C_R   0.568274 0.569657 0.077821 0.044266
C31   C     C_R   0.432644 0.427782 0.069311 0.361141
C32   C     C_R   0.435786 0.424011 0.919643 0.380378
C33   C     C_R   0.670810 0.502719 0.502324 0.857355
C34   C     C_R   0.822836 0.621241 0.509946 0.208363
C35   C     C_R   0.767731 0.506582 0.506366 -0.089955
C36   C     C_R   0.804173 0.394144 0.495547 -0.224938
C37   C     C_R   0.896849 0.393348 0.491362 0.107538
C38   C     C_R   0.953685 0.507218 0.498637 0.019151
Cu1   Cu    Cu3+1 0.499990 0.499990 0.640660 1.040435
Cu2   Cu    Cu3+1 0.500010 0.500010 0.359340 1.060893
H1    H     H_    0.578413 0.100717 0.974712 0.170711
H2    H     H_    0.481147 0.900546 0.981057 0.171692
H3    H     H_    0.428404 0.793272 0.768454 0.172477
H4    H     H_    0.460447 0.885916 0.285438 0.186634
H5    H     H_    0.784368 0.693866 0.145240 0.209661
H6    H     H_    0.640487 0.661358 0.761612 0.222581
H7    H     H_    0.759846 0.307257 0.488384 0.169679
H8    H     H_    0.890192 0.192672 0.473438 0.175215
H9    H     H_    0.053434 0.191304 0.465392 0.152429
H10   H     H_    0.205368 0.304282 0.470593 0.153137
H11   H     H_    0.243242 0.702966 0.512311 0.119935
H12   H     H_    0.112242 0.819525 0.521718 0.154529
H13   H     H_    0.950646 0.823249 0.524679 0.201917
H14   H     H_    0.478595 0.110280 0.284655 0.193778
N1    N     N_R   0.500860 0.501210 0.147910 -0.262583
N2    N     N_R   0.500890 0.501290 0.852040 -0.260817
O1    O     O_R   0.499990 0.319640 0.618810 -0.497862
O2    O     O_R   0.500000 0.319660 0.381240 -0.552242
O3    O     O_R   0.370250 0.499960 0.618800 -0.528739
O4    O     O_R   0.370260 0.499980 0.381230 -0.499059
O5    O     O_R   0.500000 0.680340 0.618760 -0.623262
O6    O     O_R   0.500010 0.680360 0.381190 -0.542888
O7    O     O_R   0.629740 0.500020 0.618770 -0.563766
O8    O     O_R   0.629750 0.500040 0.381200 -0.586550
Br1   Br    Br    0.767701 0.774563 0.511235 -0.471705
Br2   Br    Br    0.662864 0.250381 0.757870 -0.503483
S1    S     S_3+6 0.329985 0.352506 0.149466 0.076336
O9    O     O_2   0.349273 0.293150 0.284730 -0.308116
O10   O     O_2   0.271013 0.454388 0.168070 -0.293288
O11   O     O_3   0.262194 0.236060 0.071752 -0.416323
H15   H     H_    0.206150 0.227364 0.123344 0.368343
Br3   Br    Br    0.626194 0.803603 0.209986 -0.500454
Br4   Br    Br    0.831689 0.730034 0.859139 -0.429138
S2    S     S_3+6 0.353305 0.311156 0.829326 0.082569
O12   O     O_2   0.363966 0.187695 0.896321 -0.279000
O13   O     O_2   0.262377 0.351519 0.853524 -0.231766
O14   O     O_3   0.346382 0.276868 0.661092 -0.521968
H16   H     H_    0.301378 0.202217 0.650906 0.350971

loop_
_geom_bond_atom_site_label_1
_geom_bond_atom_site_label_2
_ccdc_geom_bond_type
Cu2   O4    S    
C35   C36   A    
C7    C8    A    
O14   H16   S    
C31   S1    S    
C28   H6    S    
C26   C27   A    
C29   C30   A    
S2    O13   D    
C18   C24   A    
C28   C29   A    
C34   C35   A    
C32   S2    S    
C21   H14   S    
C15   C16   A    
Cu1   O1    S    
C3    H8    S    
Cu2   O6    S    
C36   H7    S    
C18   C19   A    
C26   H5    S    
C13   H11   S    
C12   O3    A    
C23   O6    A    
C22   H4    S    
C31   C32   A    
C8    C9    A    
S2    O14   S    
C23   C24   S    
C6    C38   A    
O11   H15   S    
C8    H12   S    
C2    C34   A    
C21   C22   A    
C34   Br1   S    
Cu1   O5    S    
Cu2   O2    S    
S2    O12   D    
S1    O9    D    
C15   H1    S    
Cu1   Cu2   S    
C16   C17   A    
C25   C26   A    
S1    O10   D    
C17   H3    S    
C37   C38   A    
C1    O1    A    
C2    C38   A    
Cu1   N2    S    
C7    C13   A    
C33   O7    A    
Cu2   N1    S    
Cu1   O3    S    
C17   C18   A    
C14   Br2   S    
C25   Br3   S    
C22   C24   A    
C9    H13   S    
C3    C4    A    
C10   H10   S    
C16   H2    S    
C25   C30   A    
C36   C37   A    
C1    C20   S    
C14   C19   A    
C4    C5    A    
C11   C12   S    
C6    C7    A    
C29   N2    A    
Cu1   O7    S    
C30   N1    A    
Cu2   O8    S    
C4    H9    S    
S1    O11   S    
C19   C20   A    
C5    C10   A    
C1    O2    A    
C11   C13   A    
C5    C6    A    
C33   O8    A    
C33   C35   S    
C10   C11   A    
C12   O4    A    
C23   O5    A    
C20   C21   A    
C3    C37   A    
C27   C28   A    
C14   C15   A    
C31   N1    A    
C27   Br4   S    
C2    C9    A    
C32   N2    A    
