data_mof_unit_30303.cif
_audit_creation_date              2012-10-26T19:45:14-0400
_audit_creation_method            fapswitch 2.2
_symmetry_space_group_name_H-M    P1
_symmetry_Int_Tables_number       1
_space_group_crystal_system       triclinic
_cell_length_a                    9.682227
_cell_length_b                    10.953195
_cell_length_c                    13.89805
_cell_angle_alpha                 100.68898
_cell_angle_beta                  84.079158
_cell_angle_gamma                 89.162798
_cell_volume                      1439.74691278

loop_
_atom_site_label
_atom_site_type_symbol
_atom_type_description
_atom_site_fract_x
_atom_site_fract_y
_atom_site_fract_z
_atom_type_partial_charge
C1    C     C_R   0.499648 0.736148 0.494501 0.560792
C2    C     C_R   0.936300 0.417006 0.428430 0.302201
C3    C     C_1   0.538323 0.501264 0.214328 0.044891
C4    C     C_1   0.461634 0.498804 0.785673 0.044290
C5    C     C_2   0.557858 0.501140 0.023452 -0.031900
C6    C     C_2   0.442031 0.499217 0.976585 -0.032833
C7    C     C_1   0.451118 0.498961 0.872546 -0.011249
C8    C     C_1   0.548798 0.501248 0.127475 -0.011613
C9    C     C_R   0.624743 0.928256 0.471663 -0.045800
C10   C     C_R   0.375043 0.070896 0.525924 -0.036986
C11   C     C_R   0.627917 0.057784 0.488827 -0.046688
C12   C     C_R   0.500388 0.263647 0.505025 0.562082
C13   C     C_R   0.372029 0.941385 0.508621 -0.041953
C14   C     C_1   0.304552 0.497455 0.028221 0.253937
C15   C     C_1   0.695300 0.503196 0.971815 0.260464
C16   C     C_1   0.751405 0.857012 0.428492 0.296810
C17   C     C_1   0.247719 0.141689 0.568159 0.290485
C18   C     C_1   0.762849 0.113426 0.493143 0.301755
C19   C     C_1   0.237433 0.885376 0.502688 0.312086
C20   C     C_R   0.501912 0.129953 0.509367 -0.035285
C21   C     C_R   0.498063 0.869425 0.488938 -0.038597
C22   C     C_R   0.476643 0.498849 0.682550 0.569165
C23   C     C_R   0.523353 0.501085 0.317438 0.568383
C24   C     C_R   0.913125 0.584432 0.570198 0.300008
C25   C     C_R   0.086900 0.415695 0.429765 0.301858
C26   C     C_R   0.063827 0.583407 0.571221 0.299565
Cu1   Cu    Cu3+1 0.359340 0.499980 0.500000 1.173651
Cu2   Cu    Cu3+1 0.640660 0.500020 0.500000 1.172310
H1    H     H_    0.809754 0.907110 0.684135 0.372773
H2    H     H_    0.191124 0.227934 0.183352 0.378283
H3    H     H_    0.319167 0.755663 0.739903 0.357997
H4    H     H_    0.680319 0.246056 0.260316 0.357101
N1    N     N_R   0.147930 0.499970 0.499980 -0.323248
N2    N     N_R   0.852070 0.500030 0.500020 -0.322870
N3    N     N_1   0.194630 0.496101 0.069482 -0.167150
N4    N     N_1   0.805157 0.504848 0.930517 -0.168525
N5    N     N_1   0.851991 0.800482 0.393678 -0.198797
N6    N     N_1   0.146576 0.197817 0.602236 -0.216541
N7    N     N_1   0.870949 0.156343 0.497910 -0.185069
N8    N     N_1   0.129739 0.842013 0.496527 -0.172548
O1    O     O_R   0.381260 0.680340 0.500000 -0.463574
O2    O     O_2   0.846089 0.699295 0.761271 -0.199649
O3    O     O_3   0.855956 0.843179 0.630043 -0.489511
O4    O     O_2   0.344053 0.287948 0.331032 -0.268928
O5    O     O_2   0.146073 0.171439 0.364008 -0.246824
O6    O     O_3   0.153257 0.306214 0.226317 -0.444116
O7    O     O_2   0.066228 0.804824 0.709126 -0.201351
O8    O     O_2   0.111953 0.609418 0.760868 -0.247748
O9    O     O_3   0.303339 0.717813 0.671600 -0.493751
O10   O     O_2   0.883454 0.397650 0.240125 -0.242527
O11   O     O_2   0.935733 0.199280 0.284704 -0.201677
O12   O     O_R   0.618740 0.319660 0.500000 -0.464617
O13   O     O_3   0.697876 0.281998 0.328653 -0.492572
O14   O     O_R   0.618830 0.680370 0.500010 -0.453686
O15   O     O_R   0.381170 0.319630 0.499990 -0.455319
O16   O     O_R   0.364420 0.499960 0.637840 -0.442439
O17   O     O_R   0.635580 0.500040 0.362160 -0.440956
O18   O     O_R   0.601990 0.499990 0.637850 -0.460061
O19   O     O_R   0.398010 0.500010 0.362150 -0.457047
O20   O     O_2   0.655881 0.711813 0.669262 -0.271180
S1    S     S_3+6 0.810765 0.705756 0.659501 0.107131
S2    S     S_3+6 0.189208 0.294771 0.340354 0.105909
S3    S     S_3+6 0.136569 0.679062 0.677374 0.115968
S4    S     S_3+6 0.863659 0.323584 0.321144 0.115293

loop_
_geom_bond_atom_site_label_1
_geom_bond_atom_site_label_2
_ccdc_geom_bond_type
C22   O18   A    
C5    C8    S    
C1    O14   A    
C11   C18   S    
C1    C21   S    
C6    C7    S    
O9    S3    S    
Cu2   O18   S    
C6    C14   S    
O10   S4    D    
Cu1   O1    S    
C26   N1    A    
C3    C23   S    
C16   N5    T    
C26   S3    S    
C12   C20   S    
C25   N1    A    
Cu2   N2    S    
C15   N4    T    
Cu1   O19   S    
Cu2   O17   S    
Cu1   N1    S    
C23   O19   A    
Cu2   O12   S    
O2    S1    D    
C9    C21   A    
C24   S1    S    
O6    S2    S    
C4    C7    T    
C1    O1    A    
C12   O12   A    
C9    C16   S    
H3    O9    S    
C2    C25   A    
C25   S2    S    
C9    C11   A    
O7    S3    D    
C5    C6    D    
O13   S4    S    
Cu1   O15   S    
C11   C20   A    
C5    C15   S    
C12   O15   A    
O5    S2    D    
C19   N8    T    
C13   C19   S    
C10   C17   S    
C13   C21   A    
H4    O13   S    
C14   N3    T    
C4    C22   S    
C17   N6    T    
O3    S1    S    
C3    C8    T    
C10   C20   A    
Cu1   Cu2   S    
C23   O17   A    
C18   N7    T    
Cu2   O14   S    
Cu1   O16   S    
O8    S3    D    
C22   O16   A    
O4    S2    D    
C2    N2    A    
H2    O6    S    
H1    O3    S    
O11   S4    D    
C24   C26   A    
C2    S4    S    
O20   S1    D    
C10   C13   A    
C24   N2    A    
