data_mof_unit_57767.cif
_audit_creation_date              2012-12-10T20:48:46-0500
_audit_creation_method            fapswitch 2.2
_symmetry_space_group_name_H-M    P1
_symmetry_Int_Tables_number       1
_space_group_crystal_system       triclinic
_cell_length_a                    15.681426
_cell_length_b                    9.001165
_cell_length_c                    8.186724
_cell_angle_alpha                 90.116191
_cell_angle_beta                  86.881783
_cell_angle_gamma                 91.834688
_cell_volume                      1153.26266264

loop_
_atom_site_label
_atom_site_type_symbol
_atom_type_description
_atom_site_fract_x
_atom_site_fract_y
_atom_site_fract_z
_atom_type_partial_charge
C1    C     C_R   0.499931 0.218166 0.499899 0.908323
C2    C     C_1   0.825366 0.470601 0.490038 -0.017659
C3    C     C_1   0.174299 0.442217 0.527910 0.132177
C4    C     C_R   0.337815 0.494171 0.504644 0.880378
C5    C     C_R   0.662299 0.503973 0.495667 0.885737
C6    C     C_1   0.500133 0.934899 0.500104 -0.192742
C7    C     C_1   0.500055 0.065117 0.499823 -0.199336
C8    C     C_R   0.500161 0.781825 0.500079 0.929880
C9    C     C_3   0.036523 0.397868 0.707344 0.324671
C10   C     C_3   0.053833 0.320723 0.382281 0.343771
C11   C     C_3   0.932470 0.405938 0.695858 0.385017
C12   C     C_3   0.949966 0.320184 0.379482 0.416427
C13   C     C_1   0.751092 0.491732 0.486620 -0.179142
C14   C     C_1   0.249372 0.465727 0.517521 -0.121342
C15   C     C_3   0.081871 0.430470 0.527537 0.032252
C16   C     C_3   0.915201 0.442339 0.507355 0.004147
C17   C     C_3   0.961258 0.593124 0.457567 -0.598575
C18   C     C_3   0.055756 0.590599 0.482988 -0.567567
H1    H     H_    0.071105 0.672654 0.578687 0.220384
H2    H     H_    0.091039 0.639623 0.374474 0.266634
H3    H     H_    0.935009 0.689386 0.524919 0.271585
H4    H     H_    0.953417 0.619194 0.327052 0.200285
N1    N     N_1   0.500000 0.500030 0.073640 -0.029169
N2    N     N_1   0.500000 0.500030 0.926360 -0.023775
O1    O     O_R   0.500000 0.285340 0.636850 -0.625571
O2    O     O_R   0.500000 0.285340 0.363150 -0.620236
O3    O     O_R   0.377140 0.500000 0.636930 -0.590091
O4    O     O_R   0.377140 0.500000 0.363070 -0.599521
O5    O     O_R   0.622860 0.500000 0.636930 -0.606212
O6    O     O_R   0.622860 0.500000 0.363070 -0.629177
O7    O     O_R   0.500000 0.714650 0.636900 -0.608119
O8    O     O_R   0.500000 0.714650 0.363100 -0.610882
Zn1   Zn    Zn3+2 0.500000 0.499990 0.682780 1.003445
Zn2   Zn    Zn3+2 0.500000 0.499990 0.317220 0.988679
O9    O     O_3   0.896179 0.266158 0.754583 -0.637957
C19   C     C_3   0.805796 0.237823 0.767117 0.148954
H5    H     H_    0.797790 0.114969 0.775715 0.161419
H6    H     H_    0.772686 0.265690 0.658473 0.113939
C20   C     C_3   0.757497 0.301201 0.918980 -0.406771
H7    H     H_    0.792815 0.283500 0.029123 0.248565
H8    H     H_    0.747402 0.421532 0.903834 0.253758
C21   C     C_3   0.669444 0.225250 0.947180 -0.925880
H9    H     H_    0.630977 0.239789 0.838821 0.289083
H10   H     H_    0.635475 0.275243 0.055376 0.277427
H11   H     H_    0.675681 0.104691 0.970695 0.255260
O10   O     O_3   0.917263 0.172874 0.422544 -0.578370
C22   C     C_3   0.831531 0.133887 0.382948 0.171677
H12   H     H_    0.792735 0.228694 0.350741 0.058435
H13   H     H_    0.798641 0.079378 0.490806 0.122939
C23   C     C_3   0.827042 0.019679 0.244613 -0.334560
H14   H     H_    0.758718 0.992008 0.225186 0.170056
H15   H     H_    0.854702 0.065597 0.128793 0.253609
C24   C     C_3   0.870918 0.877252 0.283382 -0.826307
H16   H     H_    0.838315 0.824992 0.393483 0.256251
H17   H     H_    0.939475 0.900578 0.304317 0.297861
H18   H     H_    0.866256 0.798832 0.179103 0.237259
O11   O     O_3   0.066984 0.269451 0.787361 -0.636762
C25   C     C_3   0.046271 0.122959 0.738871 0.228335
H19   H     H_    0.106064 0.073462 0.691035 0.153271
H20   H     H_    0.998050 0.112316 0.647400 0.250466
C26   C     C_3   0.015269 0.031433 0.888835 -0.307246
H21   H     H_    0.053932 0.060298 0.994783 0.249432
H22   H     H_    0.947656 0.054421 0.919568 0.280565
C27   C     C_3   0.021237 0.866098 0.856489 -1.002307
H23   H     H_    0.088991 0.838655 0.829815 0.297784
H24   H     H_    0.983102 0.834539 0.751070 0.288561
H25   H     H_    0.996133 0.803067 0.966159 0.275406
O12   O     O_3   0.076242 0.169752 0.409239 -0.653297
C28   C     C_3   0.163871 0.132519 0.386341 0.026415
H26   H     H_    0.198688 0.162089 0.496634 0.152505
H27   H     H_    0.198457 0.185814 0.279109 0.158018
C29   C     C_3   0.167808 0.964359 0.361520 -0.347264
H28   H     H_    0.132604 0.906634 0.465520 0.219949
H29   H     H_    0.136308 0.932897 0.247455 0.238835
C30   C     C_3   0.259709 0.912626 0.350155 -0.886991
H30   H     H_    0.296155 0.967018 0.245288 0.270554
H31   H     H_    0.259757 0.790342 0.331740 0.281336
H32   H     H_    0.291649 0.939634 0.464854 0.253315
C31   C     C_2   0.097164 0.367183 0.213582 0.319288
H33   H     H_    0.090741 0.293087 0.110677 0.178711
O13   O     O_2   0.146576 0.473726 0.193055 -0.590725
C32   C     C_2   0.068930 0.514716 0.830232 0.430642
H34   H     H_    0.034380 0.532376 0.945879 0.079082
O14   O     O_2   0.140094 0.573926 0.815864 -0.564304
C33   C     C_2   0.922028 0.359036 0.208684 0.187437
H35   H     H_    0.878888 0.448448 0.192025 0.057599
O15   O     O_2   0.943031 0.284462 0.090096 -0.617096
C34   C     C_2   0.894649 0.527111 0.810478 0.265533
H36   H     H_    0.898849 0.516443 0.939859 0.095940
O16   O     O_2   0.854905 0.632027 0.764126 -0.614307

loop_
_geom_bond_atom_site_label_1
_geom_bond_atom_site_label_2
_ccdc_geom_bond_type
C15   C18   S    
C28   C29   S    
O9    C19   S    
C22   H13   S    
C24   H16   S    
O3    Zn1   S    
C12   C33   S    
C19   H5    S    
C10   C15   S    
C25   H20   S    
O5    Zn1   S    
C28   H27   S    
C18   H1    S    
C26   H22   S    
C2    C13   T    
O2    Zn2   S    
C12   C16   S    
C16   C17   S    
C23   H15   S    
N1    N2    T    
O7    Zn1   S    
C20   C21   S    
C2    C16   S    
C5    C13   S    
C9    C32   S    
C25   C26   S    
C33   O15   D    
O4    Zn2   S    
C1    O1    A    
C28   H26   S    
C21   H10   S    
C29   C30   S    
C4    O4    A    
C17   C18   S    
C22   C23   S    
C5    O5    A    
C24   H17   S    
C23   C24   S    
O6    Zn2   S    
C8    O8    A    
C27   H25   S    
C9    O11   S    
C29   H29   S    
C20   H7    S    
C31   O13   D    
O12   C28   S    
C6    C8    S    
C25   H19   S    
C33   H35   S    
C17   H3    S    
C21   H11   S    
C27   H24   S    
C26   C27   S    
C30   H30   S    
C30   H31   S    
C11   C16   S    
C22   H12   S    
C11   C34   S    
N1    Zn2   S    
C23   H14   S    
C9    C11   S    
C3    C14   T    
C10   C12   S    
C12   O10   S    
C34   O16   D    
C32   O14   D    
C1    O2    A    
C21   H9    S    
C4    O3    A    
C3    C15   S    
C5    O6    A    
C24   H18   S    
O10   C22   S    
C1    C7    S    
C8    O7    A    
C19   C20   S    
C17   H4    S    
C29   H28   S    
C10   C31   S    
C6    C7    T    
C10   O12   S    
N2    Zn1   S    
C27   H23   S    
C11   O9    S    
C9    C15   S    
O11   C25   S    
C19   H6    S    
C18   H2    S    
C4    C14   S    
C26   H21   S    
C30   H32   S    
C31   H33   S    
C34   H36   S    
C20   H8    S    
C32   H34   S    
O1    Zn1   S    
O8    Zn2   S    
