data_mof_unit_43431.cif
_audit_creation_date              2013-03-05T16:06:29-0500
_audit_creation_method            fapswitch 2.2
_symmetry_space_group_name_H-M    P1
_symmetry_Int_Tables_number       1
_space_group_crystal_system       triclinic
_cell_length_a                    26.160447
_cell_length_b                    26.002558
_cell_length_c                    18.507879
_cell_angle_alpha                 89.923507
_cell_angle_beta                  135.10509
_cell_angle_gamma                 89.937738
_cell_volume                      8885.92552613

loop_
_atom_site_label
_atom_site_type_symbol
_atom_site_description
_atom_site_fract_x
_atom_site_fract_y
_atom_site_fract_z
_atom_type_partial_charge
Zn1   Zn    Zn3+2 0.337540 0.293760 0.587540 1.075090
Zn2   Zn    Zn3+2 0.337540 0.706240 0.587540 1.044575
Zn3   Zn    Zn3+2 0.837540 0.793760 0.587540 1.092190
Zn4   Zn    Zn3+2 0.837540 0.206240 0.587540 1.059089
Zn5   Zn    Zn3+2 0.162450 0.293770 0.412470 1.067622
Zn6   Zn    Zn3+2 0.162450 0.706230 0.412470 1.045166
Zn7   Zn    Zn3+2 0.662450 0.793770 0.412470 1.043066
Zn8   Zn    Zn3+2 0.662450 0.206230 0.412470 1.051630
Zn9   Zn    Zn3+2 0.249980 0.206220 0.412450 1.148669
Zn10  Zn    Zn3+2 0.249980 0.793780 0.412450 1.167997
Zn11  Zn    Zn3+2 0.749980 0.706220 0.412450 1.122524
Zn12  Zn    Zn3+2 0.749980 0.293780 0.412450 1.144854
Zn13  Zn    Zn3+2 0.250000 0.206220 0.587540 1.099044
Zn14  Zn    Zn3+2 0.250000 0.793780 0.587540 1.096349
Zn15  Zn    Zn3+2 0.750000 0.706220 0.587540 1.118958
Zn16  Zn    Zn3+2 0.750000 0.293780 0.587540 1.099142
O1    O     O_3   0.249990 0.249990 0.500000 -0.561618
O2    O     O_3   0.249990 0.750010 0.500000 -0.559479
O3    O     O_3   0.749990 0.749990 0.500000 -0.562577
O4    O     O_3   0.749990 0.250010 0.500000 -0.560106
O5    O     O_R   0.163790 0.219360 0.561280 -0.611144
O6    O     O_R   0.163790 0.780640 0.561280 -0.608709
O7    O     O_R   0.663790 0.719360 0.561280 -0.580408
O8    O     O_R   0.663790 0.280640 0.561280 -0.608082
O9    O     O_R   0.397470 0.280620 0.561260 -0.615202
O10   O     O_R   0.397470 0.719380 0.561260 -0.640553
O11   O     O_R   0.897470 0.780620 0.561260 -0.606923
O12   O     O_R   0.897470 0.219380 0.561260 -0.638085
O13   O     O_R   0.188730 0.366850 0.438750 -0.581801
O14   O     O_R   0.188730 0.633150 0.438750 -0.576190
O15   O     O_R   0.688730 0.866850 0.438750 -0.587720
O16   O     O_R   0.688730 0.133150 0.438750 -0.590902
O17   O     O_R   0.249980 0.133140 0.438710 -0.542149
O18   O     O_R   0.249980 0.866860 0.438710 -0.550927
O19   O     O_R   0.749980 0.633140 0.438710 -0.581549
O20   O     O_R   0.749980 0.366860 0.438710 -0.564053
O21   O     O_R   0.102500 0.280640 0.266310 -0.606153
O22   O     O_R   0.102500 0.719360 0.266310 -0.635916
O23   O     O_R   0.602500 0.780640 0.266310 -0.614211
O24   O     O_R   0.602500 0.219360 0.266310 -0.606922
O25   O     O_R   0.336220 0.219350 0.733700 -0.608859
O26   O     O_R   0.336220 0.780650 0.733700 -0.603035
O27   O     O_R   0.836220 0.719350 0.733700 -0.605151
O28   O     O_R   0.836220 0.280650 0.733700 -0.600674
O29   O     O_R   0.163750 0.219360 0.266290 -0.589634
O30   O     O_R   0.163750 0.780640 0.266290 -0.561725
O31   O     O_R   0.663750 0.719360 0.266290 -0.589241
O32   O     O_R   0.663750 0.280640 0.266290 -0.574194
O33   O     O_R   0.397490 0.280620 0.733700 -0.611731
O34   O     O_R   0.397490 0.719380 0.733700 -0.640802
O35   O     O_R   0.897490 0.780620 0.733700 -0.617446
O36   O     O_R   0.897490 0.219380 0.733700 -0.645307
O37   O     O_R   0.311270 0.366840 0.561280 -0.632557
O38   O     O_R   0.311270 0.633160 0.561280 -0.641666
O39   O     O_R   0.811270 0.866840 0.561280 -0.625844
O40   O     O_R   0.811270 0.133160 0.561280 -0.619461
O41   O     O_R   0.249990 0.133140 0.561260 -0.623700
O42   O     O_R   0.249990 0.866860 0.561260 -0.621491
O43   O     O_R   0.749990 0.633140 0.561260 -0.601711
O44   O     O_R   0.749990 0.366860 0.561260 -0.610710
O45   O     O_R   0.102520 0.280640 0.438750 -0.657717
O46   O     O_R   0.102520 0.719360 0.438750 -0.667260
O47   O     O_R   0.602520 0.780640 0.438750 -0.666094
O48   O     O_R   0.602520 0.219360 0.438750 -0.661766
O49   O     O_R   0.336190 0.219350 0.438710 -0.575302
O50   O     O_R   0.336190 0.780650 0.438710 -0.568999
O51   O     O_R   0.836190 0.719350 0.438710 -0.569509
O52   O     O_R   0.836190 0.280650 0.438710 -0.573863
C1    C     C_R   0.110801 0.251187 0.503631 0.902748
C2    C     C_R   0.108994 0.750025 0.500099 0.923983
C3    C     C_R   0.609155 0.750682 0.500611 0.893764
C4    C     C_R   0.608867 0.250110 0.499937 0.916514
C5    C     C_R   0.392074 0.249760 0.502328 0.857898
C6    C     C_R   0.392512 0.750752 0.503103 0.891355
C7    C     C_R   0.892094 0.749548 0.502269 0.856813
C8    C     C_R   0.891331 0.249880 0.500641 0.875463
C9    C     C_R   0.249700 0.390812 0.499868 0.905785
C10   C     C_R   0.249546 0.608966 0.499459 0.893047
C11   C     C_R   0.750219 0.890875 0.499801 0.898115
C12   C     C_R   0.749857 0.109019 0.499840 0.890821
C13   C     C_R   0.248669 0.109016 0.498374 0.962277
C14   C     C_R   0.248415 0.890794 0.498213 0.942074
C15   C     C_R   0.751332 0.609052 0.501033 0.902961
C16   C     C_R   0.748259 0.390829 0.497880 0.927213
C17   C     C_R   0.108526 0.250376 0.217861 0.909332
C18   C     C_R   0.106665 0.751706 0.218049 0.936713
C19   C     C_R   0.608535 0.749856 0.217896 0.918223
C20   C     C_R   0.607852 0.251392 0.218217 0.903532
C21   C     C_R   0.390641 0.250370 0.782032 1.007147
C22   C     C_R   0.388429 0.748453 0.781652 0.985497
C23   C     C_R   0.889437 0.750647 0.781700 1.030023
C24   C     C_R   0.889597 0.249606 0.781707 1.004684
C25   C     C_3   0.414692 0.224066 0.938587 0.295462
C26   C     C_3   0.422746 0.792100 0.937942 0.293270
C27   C     C_3   0.923685 0.706407 0.937603 0.284543
C28   C     C_3   0.924917 0.295450 0.937474 0.285270
C29   C     C_3   0.478532 0.220197 0.061606 0.314578
C30   C     C_3   0.480653 0.786290 0.060737 0.313865
C31   C     C_3   0.989455 0.703503 0.061077 0.309399
C32   C     C_3   0.982277 0.290387 0.060703 0.309610
C33   C     C_3   0.472340 0.312262 0.938964 0.197712
C34   C     C_3   0.447676 0.691441 0.939448 0.150906
C35   C     C_3   0.946127 0.808456 0.936913 0.179426
C36   C     C_3   0.947852 0.193269 0.937681 0.170411
C37   C     C_3   0.517037 0.222851 0.939652 -0.031670
C38   C     C_3   0.519494 0.761583 0.938891 -0.047985
C39   C     C_3   0.020584 0.739908 0.939117 -0.040072
C40   C     C_3   0.021391 0.262795 0.939696 -0.046700
C41   C     C_3   0.446722 0.251940 0.897651 -0.304103
C42   C     C_3   0.442538 0.748532 0.897073 -0.293106
C43   C     C_3   0.943325 0.750801 0.896808 -0.309891
C44   C     C_3   0.943898 0.250425 0.896810 -0.295222
H1    H     H_    0.536532 0.244523 0.911536 0.152125
H2    H     H_    0.535311 0.725438 0.927125 0.143710
H3    H     H_    0.030773 0.771269 0.910038 0.163659
H4    H     H_    0.036058 0.227714 0.924963 0.179311
C45   C     C_3   0.548726 0.252991 0.102895 -0.287572
C46   C     C_3   0.548806 0.749077 0.102216 -0.259350
C47   C     C_3   0.045335 0.751931 0.102126 -0.296470
C48   C     C_3   0.048166 0.251128 0.101979 -0.269775
C49   C     C_3   0.527720 0.312981 0.063256 0.195171
C50   C     C_3   0.523271 0.688716 0.062535 0.185453
C51   C     C_3   0.002461 0.807040 0.061399 0.189532
C52   C     C_3   0.019555 0.191973 0.061651 0.154003
C53   C     C_3   0.578616 0.227777 0.059378 0.033468
C54   C     C_3   0.579194 0.769880 0.057501 0.023294
C55   C     C_3   0.080114 0.746059 0.058110 0.034210
C56   C     C_3   0.081182 0.269110 0.059741 0.028077
H5    H     H_    0.614062 0.256383 0.070595 0.162991
H6    H     H_    0.623428 0.746012 0.082144 0.188636
H7    H     H_    0.103375 0.783497 0.068115 0.174625
H8    H     H_    0.124688 0.241837 0.088986 0.191291
C57   C     C_3   0.513239 0.295899 0.589194 0.253880
C58   C     C_3   0.526428 0.721759 0.616234 0.210999
C59   C     C_3   0.012823 0.795376 0.588406 0.234469
C60   C     C_3   0.024511 0.220285 0.611723 0.190538
C61   C     C_3   0.576273 0.292572 0.590640 0.258963
C62   C     C_3   0.585396 0.722489 0.608957 0.225378
C63   C     C_3   0.076146 0.792039 0.590793 0.262511
C64   C     C_3   0.080854 0.211206 0.600150 0.228471
H9    H     H_    0.411119 0.310954 0.399017 0.206535
H10   H     H_    0.441627 0.676560 0.448195 0.219531
H11   H     H_    0.910727 0.810292 0.398187 0.205221
H12   H     H_    0.935740 0.178440 0.438799 0.224060
C65   C     C_3   0.418250 0.270362 0.398130 -0.174741
C66   C     C_3   0.429689 0.715290 0.418680 -0.193350
C67   C     C_3   0.917990 0.769720 0.397423 -0.174887
C68   C     C_3   0.926892 0.217662 0.411737 -0.183717
C69   C     C_3   0.488612 0.193430 0.538272 0.290549
C70   C     C_3   0.471489 0.810787 0.504368 0.268888
C71   C     C_3   0.988624 0.692590 0.536955 0.285404
C72   C     C_3   0.968838 0.310249 0.499082 0.293393
C73   C     C_3   0.452521 0.251105 0.507929 -0.194827
C74   C     C_3   0.453790 0.750718 0.510265 -0.185760
C75   C     C_3   0.952258 0.750461 0.507126 -0.197625
C76   C     C_3   0.951531 0.250352 0.505627 -0.181699
C77   C     C_3   0.551857 0.250132 0.501884 -0.190850
C78   C     C_3   0.551296 0.751650 0.500965 -0.189816
C79   C     C_3   0.052145 0.749738 0.502191 -0.194090
C80   C     C_3   0.054535 0.250041 0.506748 -0.171408
C81   C     C_3   0.473238 0.266566 0.388132 0.352872
C82   C     C_3   0.480321 0.720377 0.401071 0.374764
C83   C     C_3   0.973292 0.765810 0.388065 0.356576
C84   C     C_3   0.979775 0.226085 0.398136 0.349745
C85   C     C_3   0.546771 0.191674 0.531286 0.103572
C86   C     C_3   0.527943 0.811772 0.494426 0.114691
C87   C     C_3   0.047875 0.691179 0.531941 0.106025
C88   C     C_3   0.041615 0.308885 0.523522 0.057444
C89   C     C_3   0.197682 0.029744 0.510107 -0.168463
C90   C     C_3   0.191910 0.969551 0.499687 -0.177204
C91   C     C_3   0.684734 0.530767 0.479116 -0.120268
C92   C     C_3   0.680709 0.470395 0.471616 -0.129544
H13   H     H_    0.228907 0.037671 0.591715 0.208841
H14   H     H_    0.212196 0.955102 0.573081 0.221625
H15   H     H_    0.700142 0.538948 0.551678 0.190395
H16   H     H_    0.688510 0.457291 0.536348 0.204618
H17   H     H_    0.339027 0.044291 0.659126 0.158300
H18   H     H_    0.324364 0.963069 0.657078 0.146302
H19   H     H_    0.816706 0.542158 0.662311 0.164090
H20   H     H_    0.803082 0.460696 0.653321 0.150069
C93   C     C_3   0.325631 0.030017 0.590481 -0.013195
C94   C     C_3   0.322931 0.969757 0.596105 0.006293
C95   C     C_3   0.821087 0.529241 0.609406 -0.012509
C96   C     C_3   0.816541 0.468771 0.609167 -0.011978
C97   C     C_3   0.212045 0.030251 0.384201 0.317825
C98   C     C_3   0.224192 0.968999 0.392535 0.266237
C99   C     C_3   0.745770 0.530751 0.411134 0.296325
C100  C     C_3   0.750632 0.469282 0.415555 0.303031
C101  C     C_3   0.246469 0.051105 0.493951 -0.258508
C102  C     C_3   0.246096 0.948346 0.493995 -0.247363
C103  C     C_3   0.751354 0.551189 0.499080 -0.266829
C104  C     C_3   0.748504 0.448426 0.495952 -0.253578
H21   H     H_    0.297614 0.462189 0.446130 0.151815
H22   H     H_    0.284197 0.543539 0.425945 0.148156
H23   H     H_    0.768708 0.963899 0.407083 0.155667
H24   H     H_    0.751443 0.044797 0.388035 0.150777
C105  C     C_3   0.247458 0.448255 0.500364 -0.249637
C106  C     C_3   0.246382 0.551161 0.498674 -0.230525
C107  C     C_3   0.750504 0.948437 0.503614 -0.250808
C108  C     C_3   0.748505 0.051332 0.501603 -0.244201
C109  C     C_3   0.242934 0.469539 0.414932 -0.149112
C110  C     C_3   0.235850 0.529613 0.407973 -0.154545
C111  C     C_3   0.723102 0.970110 0.400005 -0.176432
C112  C     C_3   0.714512 0.029921 0.393993 -0.133709
H25   H     H_    0.363994 0.455902 0.605036 0.137430
H26   H     H_    0.359143 0.535831 0.584627 0.125069
H27   H     H_    0.858416 0.956266 0.565932 0.126626
H28   H     H_    0.849279 0.036829 0.544465 0.118311
C113  C     C_3   0.180346 0.468310 0.482062 0.334251
C114  C     C_3   0.185478 0.530576 0.494830 0.321708
C115  C     C_3   0.700955 0.968559 0.520269 0.339760
C116  C     C_3   0.707837 0.030869 0.533037 0.318048
C117  C     C_3   0.322827 0.469594 0.603729 -0.016628
C118  C     C_3   0.324627 0.529006 0.598628 0.009937
C119  C     C_3   0.831088 0.969718 0.589008 0.012547
C120  C     C_3   0.830374 0.029338 0.581835 0.005766
C121  C     C_3   0.346444 0.255231 0.896661 -0.825387
H29   H     H_    0.356547 0.294412 0.924388 0.247429
H30   H     H_    0.304569 0.258288 0.812512 0.246229
H31   H     H_    0.319102 0.236321 0.915583 0.261431
C122  C     C_3   0.343299 0.790817 0.891684 -0.695288
H32   H     H_    0.326762 0.757426 0.907195 0.244278
H33   H     H_    0.336943 0.823856 0.922723 0.259445
H34   H     H_    0.299296 0.796787 0.808622 0.267806
C123  C     C_3   0.847846 0.718152 0.898112 -0.758794
H35   H     H_    0.844122 0.753610 0.925239 0.227599
H36   H     H_    0.802180 0.718824 0.814534 0.283335
H37   H     H_    0.831299 0.687273 0.919403 0.256733
C124  C     C_3   0.845147 0.296113 0.890367 -0.693108
H38   H     H_    0.825656 0.261836 0.898960 0.239556
H39   H     H_    0.841187 0.327645 0.926561 0.254927
H40   H     H_    0.801456 0.305832 0.808480 0.273200
C125  C     C_3   0.512783 0.336786 0.911575 -0.566246
H41   H     H_    0.485230 0.335457 0.831747 0.273069
H42   H     H_    0.519448 0.378721 0.924998 0.307194
H43   H     H_    0.567920 0.321703 0.957224 0.204325
C126  C     C_3   0.445742 0.647806 0.879803 -0.479904
H44   H     H_    0.393254 0.646760 0.798687 0.262506
H45   H     H_    0.489280 0.649783 0.882359 0.231540
H46   H     H_    0.446279 0.609744 0.907405 0.301822
C127  C     C_3   0.970905 0.850403 0.905062 -0.548041
H47   H     H_    0.936238 0.852674 0.822478 0.272414
H48   H     H_    0.963785 0.889769 0.919334 0.313189
H49   H     H_    0.028248 0.847622 0.945683 0.212176
C128  C     C_3   0.950965 0.148613 0.883769 -0.463476
H50   H     H_    0.896132 0.140643 0.807091 0.273990
H51   H     H_    0.984207 0.155503 0.868518 0.238667
H52   H     H_    0.968870 0.112182 0.927677 0.280818
N1    N     N_R   0.591207 0.347293 0.108579 0.246630
O53   O     O_R   0.580454 0.396740 0.092938 -0.240868
O54   O     O_R   0.653081 0.331017 0.145764 -0.313656
N2    N     N_R   0.578882 0.656870 0.077205 0.209429
O55   O     O_R   0.566999 0.608023 0.055109 -0.279185
O56   O     O_R   0.646653 0.669340 0.139237 -0.308392
N3    N     N_R   0.050278 0.853496 0.104707 0.233481
O57   O     O_R   0.021710 0.898690 0.087546 -0.244279
O58   O     O_R   0.116330 0.852916 0.146724 -0.299994
N4    N     N_R   0.079984 0.160097 0.089192 0.219270
O59   O     O_R   0.121366 0.131483 0.170928 -0.227698
O60   O     O_R   0.095288 0.159401 0.035957 -0.397639
C129  C     C_3   0.476424 0.351859 0.553871 -0.677770
H53   H     H_    0.474393 0.371770 0.498938 0.244523
H54   H     H_    0.419777 0.352244 0.516257 0.197496
H55   H     H_    0.504841 0.379159 0.618478 0.294981
C130  C     C_3   0.513617 0.665041 0.634306 -0.559507
H56   H     H_    0.475459 0.638889 0.569040 0.201113
H57   H     H_    0.566106 0.644525 0.692840 0.265927
H58   H     H_    0.494750 0.665193 0.672385 0.262331
C131  C     C_3   0.975957 0.851383 0.552640 -0.658262
H59   H     H_    0.974132 0.871165 0.497795 0.241844
H60   H     H_    0.919221 0.851830 0.514690 0.197099
H61   H     H_    0.004181 0.878813 0.617013 0.301416
C132  C     C_3   0.010073 0.166680 0.635435 -0.523085
H62   H     H_    0.962449 0.145414 0.567277 0.215940
H63   H     H_    0.059037 0.141815 0.683366 0.248737
H64   H     H_    0.000854 0.170315 0.685362 0.276307
N5    N     N_R   0.546117 0.292891 0.696593 0.219831
O61   O     O_R   0.594958 0.326603 0.763751 -0.335351
O62   O     O_R   0.519425 0.265995 0.722741 -0.381198
N6    N     N_R   0.554102 0.746401 0.711526 0.198048
O63   O     O_R   0.613773 0.728945 0.800166 -0.351358
O64   O     O_R   0.508923 0.766946 0.711749 -0.345986
N7    N     N_R   0.045387 0.792558 0.695588 0.223997
O65   O     O_R   0.093684 0.826566 0.762594 -0.316295
O66   O     O_R   0.019328 0.765014 0.721919 -0.340146
N8    N     N_R   0.054736 0.250503 0.704052 0.194902
O67   O     O_R   0.116634 0.237754 0.794591 -0.357511
O68   O     O_R   0.009546 0.269997 0.705257 -0.347773
C133  C     C_3   0.651867 0.277135 0.701112 -0.698415
H65   H     H_    0.683695 0.310932 0.750560 0.282171
H66   H     H_    0.649025 0.254487 0.748117 0.220986
H67   H     H_    0.689320 0.256880 0.702163 0.228182
C134  C     C_3   0.656667 0.750569 0.706053 -0.701711
H68   H     H_    0.692051 0.724512 0.773263 0.279138
H69   H     H_    0.690202 0.765560 0.695007 0.237023
H70   H     H_    0.648720 0.781989 0.736457 0.234283
C135  C     C_3   0.151389 0.776601 0.701421 -0.700306
H71   H     H_    0.183188 0.810312 0.751240 0.284427
H72   H     H_    0.148082 0.753885 0.747930 0.223782
H73   H     H_    0.188823 0.756534 0.702351 0.221212
C136  C     C_3   0.161875 0.217024 0.709019 -0.653571
H74   H     H_    0.171872 0.186837 0.760413 0.271856
H75   H     H_    0.204646 0.207826 0.712743 0.261994
H76   H     H_    0.180322 0.253050 0.750976 0.219743
N9    N     N_R   0.591299 0.346143 0.578317 0.231969
O69   O     O_R   0.592449 0.359047 0.511785 -0.334010
O70   O     O_R   0.613186 0.381299 0.645398 -0.335206
N10   N     N_R   0.609580 0.668316 0.615136 0.244139
O71   O     O_R   0.564445 0.630641 0.561093 -0.368799
O72   O     O_R   0.677981 0.655576 0.682288 -0.329870
N11   N     N_R   0.091386 0.845539 0.579008 0.232311
O73   O     O_R   0.091115 0.858569 0.511227 -0.352240
O74   O     O_R   0.113556 0.880678 0.646281 -0.333990
N12   N     N_R   0.081666 0.156093 0.573335 0.225108
O75   O     O_R   0.029014 0.123589 0.529072 -0.392917
O76   O     O_R   0.140005 0.136549 0.603012 -0.336192
N13   N     N_R   0.479399 0.316207 0.354449 0.235264
O77   O     O_R   0.437292 0.355352 0.325624 -0.372394
O78   O     O_R   0.515901 0.317389 0.330675 -0.420849
N14   N     N_R   0.500623 0.669045 0.392007 0.244100
O79   O     O_R   0.545891 0.666320 0.383561 -0.451252
O80   O     O_R   0.457318 0.629971 0.357131 -0.355254
N15   N     N_R   0.979015 0.815311 0.353564 0.235877
O81   O     O_R   0.936250 0.854214 0.323419 -0.366273
O82   O     O_R   0.016266 0.816619 0.331049 -0.407843
N16   N     N_R   0.993570 0.176388 0.374119 0.248853
O83   O     O_R   0.038548 0.174831 0.365018 -0.428945
O84   O     O_R   0.946631 0.139190 0.331031 -0.328428
N17   N     N_R   0.432003 0.153030 0.471059 0.250767
O85   O     O_R   0.378562 0.159241 0.373155 -0.353758
O86   O     O_R   0.442233 0.106457 0.505507 -0.254737
N18   N     N_R   0.404094 0.839831 0.417065 0.251597
O87   O     O_R   0.351530 0.818706 0.328953 -0.366128
O88   O     O_R   0.402552 0.889856 0.419916 -0.265817
N19   N     N_R   0.933588 0.651622 0.469277 0.254431
O89   O     O_R   0.875281 0.659682 0.373816 -0.336420
O90   O     O_R   0.950953 0.603641 0.497974 -0.272503
N20   N     N_R   0.907418 0.335045 0.396312 0.225555
O91   O     O_R   0.844538 0.313930 0.325574 -0.315895
O92   O     O_R   0.909322 0.383802 0.381981 -0.292787
N21   N     N_R   0.384164 0.171131 0.898112 0.270108
O93   O     O_R   0.351764 0.148904 0.919912 -0.323805
O94   O     O_R   0.392128 0.143822 0.847926 -0.262356
N22   N     N_R   0.426166 0.844343 0.906570 0.271113
O95   O     O_R   0.367504 0.868536 0.827789 -0.303493
O96   O     O_R   0.486226 0.869363 0.959046 -0.232132
N23   N     N_R   0.911721 0.653651 0.895868 0.273367
O97   O     O_R   0.893955 0.616446 0.921873 -0.297372
O98   O     O_R   0.916260 0.642352 0.832344 -0.256654
N24   N     N_R   0.930287 0.346981 0.906270 0.271171
O99   O     O_R   0.872836 0.370829 0.824839 -0.295821
O100  O     O_R   0.991067 0.371304 0.960116 -0.223151
C137  C     C_3   0.524368 0.177798 0.647524 -0.651142
H77   H     H_    0.546007 0.137937 0.667777 0.271780
H78   H     H_    0.571321 0.200668 0.709816 0.229146
H79   H     H_    0.483809 0.178498 0.651167 0.282240
C138  C     C_3   0.501366 0.842240 0.599891 -0.618694
H80   H     H_    0.508639 0.883520 0.593863 0.275264
H81   H     H_    0.462227 0.841112 0.605788 0.287467
H82   H     H_    0.555028 0.830980 0.673156 0.230408
C139  C     C_3   0.022366 0.676307 0.644735 -0.637217
H83   H     H_    0.043859 0.636409 0.664949 0.272016
H84   H     H_    0.069004 0.699108 0.708059 0.232767
H85   H     H_    0.980638 0.676736 0.646117 0.277946
C140  C     C_3   0.976665 0.347926 0.573047 -0.563146
H86   H     H_    0.983390 0.388138 0.560826 0.269735
H87   H     H_    0.927388 0.347690 0.557672 0.268967
H88   H     H_    0.023321 0.343232 0.655554 0.252975
C141  C     C_3   0.623721 0.169007 0.630612 -0.747602
H89   H     H_    0.622217 0.126885 0.639583 0.285019
H90   H     H_    0.664085 0.174288 0.627269 0.264935
H91   H     H_    0.648559 0.181715 0.705654 0.234269
C142  C     C_3   0.596432 0.847297 0.575567 -0.687025
H92   H     H_    0.636553 0.843275 0.571658 0.280679
H93   H     H_    0.581414 0.888635 0.562573 0.290515
H94   H     H_    0.626399 0.844362 0.655697 0.223677
C143  C     C_3   0.124674 0.669253 0.632705 -0.730379
H95   H     H_    0.124448 0.626985 0.641627 0.287132
H96   H     H_    0.166089 0.676357 0.632075 0.269264
H97   H     H_    0.147528 0.681130 0.707056 0.229408
C144  C     C_3   0.109918 0.328570 0.633932 -0.800059
H98   H     H_    0.160544 0.319694 0.654579 0.251249
H99   H     H_    0.109541 0.371025 0.641238 0.287477
H100  H     H_    0.114408 0.314625 0.693679 0.259133
C145  C     C_3   0.525844 0.147826 0.454882 -0.556360
H101  H     H_    0.471526 0.146757 0.378616 0.246801
H102  H     H_    0.564471 0.143614 0.448597 0.277609
H103  H     H_    0.526661 0.109812 0.482937 0.282734
C146  C     C_3   0.492632 0.843099 0.393470 -0.551532
H104  H     H_    0.436272 0.836289 0.323676 0.235699
H105  H     H_    0.489005 0.884809 0.402169 0.279624
H106  H     H_    0.520973 0.841411 0.370100 0.277107
C147  C     C_3   0.028810 0.647303 0.455983 -0.552055
H107  H     H_    0.973281 0.644542 0.381377 0.245298
H108  H     H_    0.065709 0.644559 0.446469 0.270060
H109  H     H_    0.034933 0.608495 0.486211 0.281624
C148  C     C_3   0.038852 0.350976 0.459923 -0.504976
H110  H     H_    0.998911 0.345548 0.376892 0.246350
H111  H     H_    0.029029 0.389552 0.473381 0.286708
H112  H     H_    0.092245 0.356252 0.487616 0.278426
C149  C     C_3   0.335710 0.264492 0.297780 -0.662324
H113  H     H_    0.322087 0.287417 0.235169 0.260709
H114  H     H_    0.315346 0.225668 0.266676 0.297883
H115  H     H_    0.302104 0.280793 0.308142 0.244854
C150  C     C_3   0.347711 0.704859 0.322672 -0.638210
H116  H     H_    0.341013 0.675268 0.273349 0.278694
H117  H     H_    0.321408 0.688996 0.345520 0.213417
H118  H     H_    0.315711 0.738040 0.272934 0.312091
C151  C     C_3   0.835447 0.763870 0.296557 -0.649839
H119  H     H_    0.801116 0.779291 0.306378 0.243884
H120  H     H_    0.822004 0.787638 0.234854 0.257521
H121  H     H_    0.815543 0.725241 0.263728 0.298106
C152  C     C_3   0.844755 0.210135 0.310606 -0.604760
H122  H     H_    0.835966 0.171961 0.276536 0.266741
H123  H     H_    0.809595 0.209947 0.323821 0.224987
H124  H     H_    0.822364 0.237469 0.248367 0.283315
C153  C     C_3   0.439852 0.230344 0.295742 -0.748655
H125  H     H_    0.405555 0.252904 0.223337 0.245979
H126  H     H_    0.479894 0.210806 0.301479 0.259640
H127  H     H_    0.400784 0.202051 0.277035 0.256322
C154  C     C_3   0.437203 0.743657 0.292986 -0.773008
H128  H     H_    0.472596 0.763610 0.289523 0.233452
H129  H     H_    0.410836 0.712862 0.234290 0.262409
H130  H     H_    0.390020 0.767009 0.261155 0.260096
C155  C     C_3   0.940297 0.729100 0.296510 -0.760847
H131  H     H_    0.904662 0.751144 0.223369 0.245672
H132  H     H_    0.980390 0.710556 0.301394 0.248839
H133  H     H_    0.902891 0.699989 0.280273 0.253779
C156  C     C_3   0.942238 0.258653 0.300338 -0.775068
H134  H     H_    0.979816 0.270450 0.294903 0.250076
H135  H     H_    0.901243 0.234879 0.230805 0.252110
H136  H     H_    0.912111 0.292293 0.288429 0.264507
C157  C     C_3   0.124997 0.057401 0.455010 -0.525625
H137  H     H_    0.079791 0.047082 0.373690 0.272515
H138  H     H_    0.107695 0.046864 0.493253 0.256673
H139  H     H_    0.130204 0.099632 0.459268 0.282951
C158  C     C_3   0.114309 0.947492 0.422473 -0.549457
H140  H     H_    0.079868 0.963144 0.344769 0.288295
H141  H     H_    0.115279 0.905058 0.418925 0.279015
H142  H     H_    0.087381 0.956524 0.447661 0.252792
C159  C     C_3   0.611764 0.561207 0.401594 -0.553893
H143  H     H_    0.565592 0.539573 0.333285 0.260924
H144  H     H_    0.594353 0.572893 0.439259 0.275685
H145  H     H_    0.616221 0.596679 0.373217 0.221884
C160  C     C_3   0.605339 0.446497 0.382323 -0.584670
H146  H     H_    0.578808 0.460500 0.306203 0.294215
H147  H     H_    0.608544 0.403910 0.383602 0.251040
H148  H     H_    0.568519 0.456083 0.391061 0.250662
N25   N     N_R   0.243385 0.052750 0.348633 0.253103
O101  O     O_R   0.307368 0.073272 0.410152 -0.218679
O102  O     O_R   0.209896 0.045775 0.254032 -0.196868
N26   N     N_R   0.282978 0.955335 0.399229 0.241518
O103  O     O_R   0.344635 0.978933 0.459416 -0.235344
O104  O     O_R   0.272126 0.920516 0.338969 -0.178247
N27   N     N_R   0.803710 0.551005 0.421004 0.265087
O105  O     O_R   0.853625 0.582101 0.493268 -0.267023
O106  O     O_R   0.802454 0.539879 0.351103 -0.181768
N28   N     N_R   0.818820 0.450700 0.448895 0.219811
O107  O     O_R   0.881486 0.471304 0.524315 -0.271823
O108  O     O_R   0.816422 0.414834 0.397528 -0.215956
N29   N     N_R   0.134346 0.047335 0.306601 0.215014
O109  O     O_R   0.119879 0.095770 0.300695 -0.412106
O110  O     O_R   0.078802 0.017657 0.240866 -0.305923
N30   N     N_R   0.158386 0.944315 0.296748 0.267970
O111  O     O_R   0.139280 0.955716 0.211677 -0.162068
O112  O     O_R   0.124165 0.907239 0.294816 -0.381744
N31   N     N_R   0.676189 0.549786 0.309808 0.215925
O113  O     O_R   0.676873 0.585946 0.261875 -0.218322
O114  O     O_R   0.613981 0.529057 0.262088 -0.378639
N32   N     N_R   0.690934 0.449492 0.309505 0.279106
O115  O     O_R   0.689503 0.462601 0.240082 -0.166416
O116  O     O_R   0.644268 0.415601 0.284538 -0.380713
N33   N     N_R   0.501038 0.165034 0.095061 0.277475
O117  O     O_R   0.505371 0.144731 0.163791 -0.308354
O118  O     O_R   0.511448 0.133985 0.051740 -0.256006
N34   N     N_R   0.500843 0.839310 0.104443 0.279705
O119  O     O_R   0.451233 0.870066 0.080349 -0.322674
O120  O     O_R   0.564969 0.858369 0.160620 -0.325979
N35   N     N_R   0.031363 0.654445 0.094642 0.269167
O121  O     O_R   0.049370 0.627066 0.168786 -0.310631
O122  O     O_R   0.045885 0.634603 0.046601 -0.248636
N36   N     N_R   0.005550 0.343457 0.104864 0.285421
O123  O     O_R   0.957125 0.376665 0.077886 -0.293225
O124  O     O_R   0.071791 0.359606 0.167250 -0.300096
N37   N     N_R   0.384243 0.052644 0.604509 0.299521
O125  O     O_R   0.394847 0.102027 0.618498 -0.342476
O126  O     O_R   0.436646 0.025227 0.630098 -0.186561
N38   N     N_R   0.388491 0.941920 0.638148 0.287467
O127  O     O_R   0.447470 0.947014 0.735088 -0.222247
O128  O     O_R   0.386391 0.905379 0.588361 -0.350077
N39   N     N_R   0.890574 0.552225 0.655908 0.290520
O129  O     O_R   0.902316 0.600534 0.681362 -0.294716
O130  O     O_R   0.943935 0.525631 0.682771 -0.189928
N40   N     N_R   0.886208 0.441232 0.671410 0.305300
O131  O     O_R   0.935882 0.449080 0.769827 -0.194008
O132  O     O_R   0.893662 0.401377 0.637156 -0.341965
N41   N     N_R   0.350054 0.448803 0.699792 0.306497
O133  O     O_R   0.410001 0.422532 0.759146 -0.323839
O134  O     O_R   0.322826 0.461319 0.734635 -0.164867
N42   N     N_R   0.366631 0.555063 0.697565 0.255704
O135  O     O_R   0.431952 0.570419 0.747743 -0.367786
O136  O     O_R   0.345336 0.557767 0.742861 -0.268661
N43   N     N_R   0.878435 0.948775 0.693625 0.277432
O137  O     O_R   0.939733 0.927717 0.736470 -0.337477
O138  O     O_R   0.865580 0.955101 0.749027 -0.227821
N44   N     N_R   0.886640 0.055233 0.681859 0.273663
O139  O     O_R   0.939836 0.078193 0.702109 -0.358853
O140  O     O_R   0.890796 0.050642 0.755603 -0.270526
C161  C     C_3   0.198539 0.440004 0.312755 -0.577943
H149  H     H_    0.139764 0.445350 0.256320 0.321569
H150  H     H_    0.215087 0.453085 0.274578 0.230383
H151  H     H_    0.210592 0.398246 0.326594 0.233398
C162  C     C_3   0.177520 0.552838 0.299385 -0.503793
H152  H     H_    0.122758 0.537775 0.252960 0.326043
H153  H     H_    0.177373 0.595309 0.302841 0.254737
H154  H     H_    0.190996 0.543910 0.255711 0.218372
C163  C     C_3   0.665012 0.939913 0.299427 -0.548478
H155  H     H_    0.612995 0.936014 0.275359 0.317783
H156  H     H_    0.654953 0.957806 0.235850 0.246293
H157  H     H_    0.685648 0.900792 0.307655 0.240936
C164  C     C_3   0.642315 0.051383 0.290488 -0.468300
H158  H     H_    0.593066 0.034581 0.264215 0.310469
H159  H     H_    0.638630 0.093593 0.289529 0.278855
H160  H     H_    0.639669 0.043199 0.229019 0.221267
N45   N     N_R   0.110754 0.452714 0.376769 0.258609
O141  O     O_R   0.082294 0.477877 0.294936 -0.318179
O142  O     O_R   0.071769 0.415645 0.364334 -0.300582
N46   N     N_R   0.110857 0.551381 0.410819 0.240052
O143  O     O_R   0.087926 0.574399 0.329972 -0.292540
O144  O     O_R   0.063161 0.541568 0.412983 -0.297304
N47   N     N_R   0.624696 0.952610 0.429856 0.246992
O145  O     O_R   0.580186 0.978083 0.344615 -0.333143
O146  O     O_R   0.598325 0.913210 0.437247 -0.368696
N48   N     N_R   0.634022 0.051780 0.472027 0.234579
O147  O     O_R   0.594844 0.074404 0.383872 -0.325690
O148  O     O_R   0.603421 0.041894 0.503194 -0.315104
N49   N     N_R   0.178258 0.443492 0.552426 0.233269
O149  O     O_R   0.124663 0.454781 0.541797 -0.299565
O150  O     O_R   0.215133 0.402099 0.604306 -0.371118
N50   N     N_R   0.207251 0.550668 0.588974 0.229596
O151  O     O_R   0.206023 0.600164 0.597878 -0.409567
O152  O     O_R   0.217682 0.522629 0.656579 -0.203101
N51   N     N_R   0.719532 0.943477 0.608895 0.252388
O153  O     O_R   0.681152 0.955618 0.627092 -0.260681
O154  O     O_R   0.752747 0.899312 0.644589 -0.340032
N52   N     N_R   0.750353 0.050971 0.638140 0.226207
O155  O     O_R   0.750711 0.100415 0.649700 -0.386507
O156  O     O_R   0.778306 0.022590 0.716777 -0.185001
C165  C     C_3   0.448373 0.236900 0.108391 -0.804186
H161  H     H_    0.416301 0.272071 0.080589 0.218720
H162  H     H_    0.409990 0.207251 0.089899 0.280454
H163  H     H_    0.490142 0.240558 0.192246 0.267736
C166  C     C_3   0.446490 0.763097 0.097351 -0.881347
H164  H     H_    0.412730 0.729371 0.054530 0.257485
H165  H     H_    0.487133 0.752873 0.179291 0.243913
H166  H     H_    0.409883 0.790600 0.088478 0.274222
C167  C     C_3   0.955608 0.698525 0.106464 -0.758788
H167  H     H_    0.915379 0.726751 0.083663 0.195100
H168  H     H_    0.926214 0.661384 0.080534 0.280488
H169  H     H_    0.993637 0.695623 0.189929 0.277440
C168  C     C_3   0.946661 0.269921 0.097050 -0.860829
H170  H     H_    0.905703 0.240356 0.048209 0.232984
H171  H     H_    0.986007 0.254404 0.175659 0.248087
H172  H     H_    0.917220 0.300474 0.097437 0.276968
N53   N     N_R   0.410327 0.348052 0.888787 0.229045
O157  O     O_R   0.347814 0.340276 0.795746 -0.368758
O158  O     O_R   0.423112 0.394752 0.923476 -0.255177
N54   N     N_R   0.380143 0.680672 0.913077 0.204582
O159  O     O_R   0.378950 0.645923 0.962412 -0.346514
O160  O     O_R   0.318476 0.688268 0.818570 -0.431132
N55   N     N_R   0.873577 0.827832 0.886725 0.215688
O161  O     O_R   0.815783 0.815236 0.792885 -0.419429
O162  O     O_R   0.869390 0.870006 0.920269 -0.269208
N56   N     N_R   0.878405 0.181182 0.905914 0.195424
O163  O     O_R   0.873725 0.139055 0.939043 -0.319806
O164  O     O_R   0.818182 0.194159 0.813635 -0.435802
C169  C     C_3   0.496507 0.339330 0.102145 -0.646434
H173  H     H_    0.437644 0.339391 0.047782 0.218856
H174  H     H_    0.521836 0.324061 0.177379 0.205850
H175  H     H_    0.507657 0.381038 0.116949 0.305003
C170  C     C_3   0.518897 0.657068 0.130678 -0.591790
H176  H     H_    0.485392 0.670990 0.141483 0.212017
H177  H     H_    0.500865 0.617099 0.101978 0.301413
H178  H     H_    0.573530 0.652477 0.209417 0.217779
C171  C     C_3   0.966317 0.813599 0.101782 -0.640961
H179  H     H_    0.909153 0.803306 0.047497 0.217559
H180  H     H_    0.997329 0.793514 0.175559 0.217004
H181  H     H_    0.964797 0.853773 0.120024 0.307246
C172  C     C_3   0.004631 0.163853 0.120794 -0.563521
H182  H     H_    0.955271 0.172010 0.101418 0.229773
H183  H     H_    0.001826 0.121648 0.108882 0.307181
H184  H     H_    0.048406 0.170778 0.204017 0.230880
N57   N     N_R   0.504695 0.171967 0.893529 0.293548
O165  O     O_R   0.468840 0.170237 0.797106 -0.344924
O166  O     O_R   0.540230 0.130788 0.947518 -0.184966
N58   N     N_R   0.522231 0.799420 0.882061 0.301839
O167  O     O_R   0.579663 0.800174 0.898743 -0.235640
O168  O     O_R   0.466992 0.827471 0.807605 -0.282087
N59   N     N_R   0.024801 0.694343 0.895035 0.302133
O169  O     O_R   0.986475 0.694461 0.797673 -0.321688
O170  O     O_R   0.076373 0.660352 0.950375 -0.187456
N60   N     N_R   0.025068 0.301133 0.884464 0.295549
O171  O     O_R   0.082051 0.300899 0.900039 -0.232706
O172  O     O_R   0.969109 0.327597 0.807186 -0.270256
N61   N     N_R   0.629120 0.183612 0.114668 0.277357
O173  O     O_R   0.647074 0.162371 0.193720 -0.400630
O174  O     O_R   0.669057 0.173156 0.098515 -0.329345
N62   N     N_R   0.618519 0.819540 0.100187 0.279172
O175  O     O_R   0.613340 0.854315 0.044755 -0.204687
O176  O     O_R   0.676040 0.821839 0.198320 -0.441553
N63   N     N_R   0.144242 0.712365 0.113923 0.283302
O177  O     O_R   0.168652 0.683161 0.190119 -0.394416
O178  O     O_R   0.185404 0.719188 0.098812 -0.333870
N64   N     N_R   0.123377 0.317632 0.104363 0.271991
O179  O     O_R   0.118964 0.352834 0.050252 -0.206933
O180  O     O_R   0.180475 0.319189 0.202653 -0.452179

loop_
_geom_bond_atom_site_label_1
_geom_bond_atom_site_label_2
_geom_bond_distance
_ccdc_geom_bond_type
N59   O169  1.301000 A    
N3    O58   1.298794 A    
C57   C61   1.632360 S    
C138  H80   1.109512 S    
Zn5   O21   1.971467 S    
O13   C9    1.288264 A    
N17   O86   1.303905 A    
C166  H164  1.090430 S    
H10   C66   1.079929 S    
N47   O145  1.294734 A    
O23   C19   1.292517 A    
C60   C64   1.649494 S    
C35   C51   1.634174 S    
N34   O120  1.293381 A    
C113  N49   1.487969 S    
C167  H167  1.092060 S    
C59   C63   1.627777 S    
H28   C120  1.115948 S    
N2    O56   1.298024 A    
C148  H111  1.106815 S    
C27   C31   1.617689 S    
C172  H184  1.103828 S    
H23   C111  1.115677 S    
C123  H37   1.108573 S    
H21   C109  1.115814 S    
N54   O159  1.299756 A    
O46   C2    1.297661 A    
C2    C79   1.514905 S    
C155  H131  1.113060 S    
C69   C73   1.642965 S    
C143  H97   1.087344 S    
N57   O166  1.299259 A    
O34   C22   1.309495 A    
C72   C76   1.650486 S    
N46   O143  1.296976 A    
N25   O102  1.301478 A    
C26   C122  1.591511 S    
C65   C149  1.566784 S    
Zn3   O3    1.979687 S    
N16   O83   1.301994 A    
C108  C120  1.615014 S    
C71   C75   1.650697 S    
C92   C160  1.547162 S    
H24   C112  1.116622 S    
C67   C75   1.610673 S    
Zn16  O28   1.967968 S    
H19   C95   1.115563 S    
O28   C24   1.276209 A    
N5    O62   1.299945 A    
H9    C65   1.073820 S    
C141  H91   1.087875 S    
H26   C118  1.116097 S    
N21   O94   1.298450 A    
C63   C79   1.685431 S    
C152  H123  1.106629 S    
C128  H50   1.109881 S    
Zn4   O40   1.962552 S    
N39   O130  1.299141 A    
O27   C23   1.281304 A    
O11   C7    1.284369 A    
C137  H78   1.090222 S    
N41   O133  1.299101 A    
N43   O138  1.296285 A    
C83   C155  1.568872 S    
C139  H85   1.109954 S    
N55   O162  1.303037 A    
N15   O81   1.303017 A    
C69   N17   1.496978 S    
C94   C102  1.595291 S    
N58   O167  1.302286 A    
C19   C46   1.512029 S    
C120  N44   1.480503 S    
C142  H94   1.082660 S    
N19   O90   1.303911 A    
C159  H145  1.107226 S    
N12   O75   1.299371 A    
C136  H74   1.111032 S    
C86   C142  1.585522 S    
C68   C84   1.587181 S    
C98   C102  1.617094 S    
C95   C96   1.576768 S    
C36   C128  1.571166 S    
C124  H38   1.093266 S    
C161  H151  1.108193 S    
C66   C82   1.577977 S    
C26   N22   1.504092 S    
C66   C74   1.615749 S    
Zn16  O4    1.981073 S    
C169  H175  1.106611 S    
Zn12  O4    1.978737 S    
Zn13  O5    1.970840 S    
Zn2   O10   1.972918 S    
C171  H179  1.090998 S    
N6    O63   1.304730 A    
C55   N63   1.479256 S    
C13   C101  1.507106 S    
H18   C94   1.115634 S    
C29   C165  1.590289 S    
C114  N46   1.488642 S    
Zn6   O14   1.959889 S    
C84   N16   1.491807 S    
C138  H82   1.093709 S    
N36   O124  1.296332 A    
C131  H60   1.104236 S    
C53   H5    1.088765 S    
C144  H98   1.111479 S    
C155  H133  1.098390 S    
C150  H118  1.094129 S    
C25   N21   1.500345 S    
C106  C118  1.604259 S    
C35   N55   1.489209 S    
C90   H14   1.115716 S    
C136  H76   1.088763 S    
C15   C103  1.505075 S    
C93   N37   1.484228 S    
C47   C51   1.635674 S    
C134  H70   1.092678 S    
C147  H107  1.086557 S    
C37   C53   1.570145 S    
O24   C20   1.296342 A    
O42   C14   1.296318 A    
N33   O117  1.305148 A    
C39   C55   1.563088 S    
C165  H162  1.111424 S    
C140  H86   1.109769 S    
N8    O68   1.300432 A    
C155  H132  1.097823 S    
Zn6   O46   1.972511 S    
C161  H149  1.094625 S    
C65   C81   1.578026 S    
Zn10  O2    1.978737 S    
C71   C87   1.617491 S    
C156  H135  1.112032 S    
Zn11  O19   1.960806 S    
N38   O127  1.302361 A    
C79   C87   1.649085 S    
C32   N36   1.497608 S    
C80   C88   1.643350 S    
C29   C45   1.643215 S    
C170  H176  1.089541 S    
Zn9   O49   1.971869 S    
C31   C47   1.653154 S    
N19   O89   1.293137 A    
Zn4   O4    1.974331 S    
C7    C75   1.511810 S    
C128  H52   1.111236 S    
N27   O106  1.303563 A    
Zn7   O23   1.971467 S    
N48   O147  1.298246 A    
Zn8   O24   1.969625 S    
N15   O82   1.303778 A    
C151  H119  1.109558 S    
C150  H116  1.109777 S    
N44   O140  1.295446 A    
H20   C96   1.114998 S    
C99   N27   1.489277 S    
N2    O55   1.303553 A    
C145  H102  1.101352 S    
C169  H173  1.090163 S    
O25   C21   1.295279 A    
N61   O173  1.299973 A    
C160  H148  1.111946 S    
C66   C150  1.560026 S    
O29   C17   1.304559 A    
C60   C132  1.585085 S    
C89   C101  1.602709 S    
N37   O126  1.299598 A    
C1    C80   1.513667 S    
C149  H113  1.112558 S    
N60   O171  1.302499 A    
C57   N5    1.508024 S    
C26   C30   1.613548 S    
N53   O157  1.300908 A    
C92   C104  1.593724 S    
C57   C129  1.604560 S    
Zn12  O52   1.970796 S    
N1    O53   1.303437 A    
C134  H68   1.108291 S    
O22   C18   1.285780 A    
C107  C119  1.591412 S    
C37   H1    1.106485 S    
N47   O146  1.295787 A    
C124  H40   1.100574 S    
C129  H53   1.107496 S    
C29   N33   1.505576 S    
Zn13  O41   1.962110 S    
O50   C6    1.304916 A    
C59   C131  1.605955 S    
N42   O135  1.302335 A    
C6    C74   1.512040 S    
C25   C121  1.574429 S    
C127  H47   1.094468 S    
Zn16  O44   1.960851 S    
N50   O152  1.298063 A    
Zn1   O37   1.959847 S    
Zn2   O34   1.971512 S    
Zn3   O39   1.959847 S    
N63   O177  1.301301 A    
N42   O136  1.296059 A    
N9    O70   1.304584 A    
C106  C110  1.598549 S    
C146  H106  1.092253 S    
N41   O134  1.296164 A    
Zn6   O22   1.969625 S    
C125  H41   1.093149 S    
C70   N18   1.499092 S    
C114  N50   1.493432 S    
C58   C130  1.599334 S    
N5    O61   1.304296 A    
C135  H72   1.096173 S    
N24   O99   1.304241 A    
C109  C161  1.552080 S    
C153  H126  1.099012 S    
N10   O72   1.305016 A    
C133  H65   1.107817 S    
C54   N62   1.484595 S    
Zn3   O11   1.972553 S    
Zn10  O50   1.970796 S    
C147  H109  1.108215 S    
N40   O132  1.300161 A    
C85   C141  1.590794 S    
N28   O107  1.297985 A    
C71   C139  1.561988 S    
C69   C85   1.616236 S    
N18   O87   1.295735 A    
C140  H88   1.093142 S    
C77   C85   1.650834 S    
C36   C44   1.636287 S    
N32   O115  1.303512 A    
N30   O111  1.303910 A    
C168  H171  1.102175 S    
C121  H29   1.086716 S    
C50   N2    1.520873 S    
C4    C77   1.517138 S    
O5    C1    1.282395 A    
C162  H153  1.106451 S    
O31   C19   1.296189 A    
C170  H178  1.108550 S    
C27   C123  1.583436 S    
C119  N43   1.475665 S    
N37   O125  1.301078 A    
C53   N61   1.479745 S    
C130  H57   1.110395 S    
C62   C78   1.683419 S    
N51   O153  1.303784 A    
C108  C112  1.600655 S    
N62   O175  1.299547 A    
C111  C163  1.545842 S    
C113  C114  1.628435 S    
Zn5   O45   1.972876 S    
C28   C124  1.592908 S    
C40   C56   1.577248 S    
C151  H121  1.097152 S    
N64   O180  1.300981 A    
C164  H159  1.100707 S    
Zn7   O47   1.972876 S    
C18   C47   1.516653 S    
Zn8   O48   1.972511 S    
C85   C145  1.583712 S    
N36   O123  1.303862 A    
C154  H130  1.098401 S    
N20   O92   1.303120 A    
N11   O74   1.304812 A    
C50   C170  1.575698 S    
C31   N35   1.498347 S    
O51   C7    1.306420 A    
C25   C29   1.610855 S    
C149  H115  1.107976 S    
C61   N9    1.508062 S    
O8    C4    1.295117 A    
C118  N42   1.474349 S    
C156  H136  1.089377 S    
C98   N26   1.495123 S    
C37   C41   1.590446 S    
C34   C126  1.559768 S    
C39   C43   1.591935 S    
N26   O103  1.295147 A    
N56   O163  1.302195 A    
C129  H55   1.109203 S    
N43   O137  1.302098 A    
C87   C147  1.593369 S    
C97   C101  1.625828 S    
C36   C52   1.638916 S    
N33   O118  1.295939 A    
C10   C106  1.504982 S    
Zn1   O1    1.979687 S    
O40   C12   1.297676 A    
C109  C110  1.567164 S    
Zn13  O1    1.978586 S    
C100  C104  1.620660 S    
C127  H49   1.105692 S    
C58   N6    1.496714 S    
Zn14  O6    1.971914 S    
C82   N14   1.489004 S    
N4    O59   1.299594 A    
Zn15  O27   1.970071 S    
C67   C83   1.577382 S    
C148  H110  1.095064 S    
C64   C80   1.670213 S    
H17   C93   1.115986 S    
C28   C32   1.618833 S    
C117  N41   1.470715 S    
C123  H36   1.096342 S    
N54   O160  1.304405 A    
O9    C5    1.279821 A    
C36   N56   1.494500 S    
C106  C114  1.634463 S    
C125  H43   1.104312 S    
C143  H96   1.107451 S    
C52   N4    1.516663 S    
C97   N29   1.500651 S    
N27   O105  1.295561 A    
C37   N57   1.482234 S    
N22   O95   1.304601 A    
N46   O144  1.301939 A    
N25   O101  1.298556 A    
Zn4   O12   1.972918 S    
C110  C162  1.543386 S    
N7    O65   1.304498 A    
C51   C171  1.575774 S    
N16   O84   1.302548 A    
O18   C14   1.291300 A    
C45   C53   1.607012 S    
O6    C2    1.294585 A    
C158  H140  1.098848 S    
C92   H16   1.115984 S    
C25   C41   1.643404 S    
C141  H90   1.109302 S    
C47   C55   1.601518 S    
Zn9   O17   1.960806 S    
Zn9   O29   1.968058 S    
C152  H122  1.110183 S    
C140  H87   1.105947 S    
C171  H180  1.105918 S    
Zn11  O31   1.968058 S    
N35   O121  1.301007 A    
Zn12  O32   1.970162 S    
C34   N54   1.489173 S    
Zn13  O25   1.970071 S    
C137  H77   1.110108 S    
C84   C156  1.559978 S    
C93   C94   1.575210 S    
C121  H31   1.109631 S    
Zn15  O3    1.978586 S    
C139  H84   1.091402 S    
Zn11  O3    1.981225 S    
C154  H128  1.102527 S    
C88   C148  1.569843 S    
C88   C144  1.569103 S    
C80   C84   1.640053 S    
C94   N38   1.475112 S    
N50   O151  1.301004 A    
O43   C15   1.301280 A    
C122  H34   1.097375 S    
C142  H93   1.110009 S    
C90   C158  1.544955 S    
C38   C42   1.600561 S    
C163  H155  1.096385 S    
C159  H144  1.111694 S    
Zn5   O1    1.974330 S    
C54   H6    1.087296 S    
C33   C41   1.665394 S    
H22   C110  1.116551 S    
C133  H67   1.099826 S    
C116  N52   1.494281 S    
C35   C43   1.652267 S    
N52   O155  1.302591 A    
N17   O85   1.293658 A    
N12   O76   1.303462 A    
N13   O78   1.304477 A    
N56   O164  1.303028 A    
O35   C23   1.305642 A    
C93   C101  1.591909 S    
C97   N25   1.487453 S    
C169  H174  1.107372 S    
Zn16  O8    1.971914 S    
C81   C153  1.569708 S    
C96   C104  1.599826 S    
C79   C83   1.647401 S    
C52   C172  1.577716 S    
C51   N3    1.500579 S    
H12   C68   1.085561 S    
C158  H141  1.106778 S    
H25   C117  1.117762 S    
N55   O161  1.300700 A    
C138  H81   1.104306 S    
C131  H59   1.107751 S    
C35   C127  1.580672 S    
C107  C111  1.599148 S    
C166  H165  1.102188 S    
N20   O91   1.293841 A    
C70   C138  1.566156 S    
N63   O178  1.302372 A    
C62   C134  1.580562 S    
C67   C151  1.568801 S    
C100  N28   1.494684 S    
N34   O119  1.303684 A    
C72   C88   1.615633 S    
N57   O165  1.302033 A    
N23   O98   1.296659 A    
C136  H75   1.097280 S    
Zn14  O42   1.960851 S    
C144  H99   1.113248 S    
C11   C107  1.498292 S    
C89   C90   1.571563 S    
O7    C3    1.299307 A    
C59   N7    1.507118 S    
Zn2   O38   1.962552 S    
C148  H112  1.104029 S    
C127  H48   1.105574 S    
N23   O97   1.303914 A    
Zn3   O35   1.969668 S    
C24   C44   1.506411 S    
C160  H146  1.100805 S    
C156  H134  1.100573 S    
C30   C166  1.574713 S    
C8    C76   1.510971 S    
C33   C49   1.633824 S    
C40   C44   1.601747 S    
N14   O80   1.304064 A    
O37   C9    1.294943 A    
C165  H161  1.091110 S    
C30   N34   1.494411 S    
O39   C11   1.287349 A    
C132  H64   1.112161 S    
C117  C118  1.550424 S    
C168  H172  1.109463 S    
C40   N60   1.478094 S    
H27   C119  1.117277 S    
C91   C103  1.595642 S    
C108  C116  1.621966 S    
C112  C164  1.554698 S    
Zn9   O1    1.981225 S    
C61   C133  1.587373 S    
O47   C3    1.289782 A    
C38   H2    1.108749 S    
C152  H124  1.102771 S    
C128  H51   1.102706 S    
C33   C125  1.594829 S    
N48   O148  1.301550 A    
C34   C42   1.638292 S    
O52   C8    1.298952 A    
O12   C8    1.286679 A    
C77   C81   1.644965 S    
C137  H79   1.109974 S    
C105  C117  1.586289 S    
C78   C86   1.650613 S    
C163  H156  1.108977 S    
C145  H101  1.082028 S    
O21   C17   1.284543 A    
C3    C78   1.518457 S    
O19   C15   1.290047 A    
Zn15  O43   1.962110 S    
N6    O64   1.299200 A    
C172  H183  1.111879 S    
C163  H157  1.109655 S    
C126  H44   1.104344 S    
C48   C56   1.591299 S    
C61   C77   1.686423 S    
C38   C54   1.565004 S    
C31   C167  1.600062 S    
C40   H4    1.096260 S    
C55   H7    1.092873 S    
C113  N45   1.501226 S    
C167  H169  1.097200 S    
N44   O139  1.302694 A    
C99   C100  1.600632 S    
C124  H39   1.109640 S    
N49   O150  1.301399 A    
C97   C98   1.609435 S    
C58   C74   1.654445 S    
C60   C76   1.671284 S    
C30   C46   1.661172 S    
C96   N40   1.477089 S    
C26   C42   1.636931 S    
C91   C159  1.562776 S    
C134  H69   1.103655 S    
N9    O69   1.296581 A    
C131  H61   1.109238 S    
C146  H105  1.110462 S    
C100  N32   1.489213 S    
C133  H66   1.095239 S    
C68   C76   1.604926 S    
C34   C50   1.649822 S    
C9    C105  1.495048 S    
C72   C140  1.575632 S    
C116  N48   1.485367 S    
C64   C136  1.589335 S    
O38   C10   1.303367 A    
C70   C86   1.612681 S    
O32   C20   1.291986 A    
C91   C92   1.573211 S    
Zn2   O2    1.974331 S    
C82   C154  1.561689 S    
C135  H71   1.107952 S    
Zn14  O2    1.981073 S    
C87   C143  1.589224 S    
C119  C120  1.554746 S    
C60   N8    1.501082 S    
C59   C75   1.664067 S    
N52   O156  1.298311 A    
C49   C169  1.577025 S    
C153  H125  1.112741 S    
C39   N59   1.487069 S    
N21   O93   1.303919 A    
H11   C67   1.073648 S    
C28   C44   1.647492 S    
C164  H160  1.110621 S    
Zn8   O4    1.979686 S    
N28   O108  1.302130 A    
Zn4   O36   1.971512 S    
C57   C73   1.663051 S    
C32   C168  1.578631 S    
N24   O100  1.296228 A    
C81   N13   1.490453 S    
C171  H181  1.107564 S    
C99   N31   1.494784 S    
C63   C135  1.585523 S    
C165  H163  1.099829 S    
C83   N15   1.490147 S    
C150  H117  1.111213 S    
C46   C50   1.661125 S    
N8    O67   1.301097 A    
N58   O168  1.301116 A    
N32   O116  1.297950 A    
O16   C12   1.289771 A    
C12   C108  1.501341 S    
C126  H45   1.107229 S    
C21   C41   1.511789 S    
O49   C5    1.309612 A    
C170  H177  1.110111 S    
C162  H152  1.096415 S    
C23   C43   1.506964 S    
C160  H147  1.109390 S    
C45   C49   1.642360 S    
C132  H63   1.110164 S    
C27   N23   1.495877 S    
N60   O172  1.300341 A    
C115  C116  1.629355 S    
N62   O176  1.301899 A    
Zn10  O30   1.970162 S    
O26   C22   1.277553 A    
N39   O129  1.300609 A    
N51   O154  1.301073 A    
C105  C109  1.597740 S    
C32   C48   1.650825 S    
Zn12  O20   1.962063 S    
C130  H56   1.101491 S    
C28   N24   1.503981 S    
C98   N30   1.483213 S    
Zn14  O26   1.967968 S    
C145  H103  1.109040 S    
C65   C73   1.612193 S    
C157  H139  1.102720 S    
Zn15  O7    1.970840 S    
C64   N12   1.522255 S    
C154  H129  1.113112 S    
C14   C102  1.497376 S    
Zn1   O9    1.972553 S    
C69   C137  1.563953 S    
N64   O179  1.299099 A    
C56   H8    1.102570 S    
N38   O128  1.298312 A    
C149  H114  1.096608 S    
Zn11  O51   1.971869 S    
C167  H168  1.111004 S    
Zn5   O13   1.962595 S    
C68   C152  1.569224 S    
N29   O110  1.298974 A    
Zn6   O2    1.979686 S    
N1    O54   1.300850 A    
Zn7   O15   1.962595 S    
N53   O158  1.302820 A    
Zn8   O16   1.959889 S    
C33   N53   1.490051 S    
N26   O104  1.303392 A    
C161  H150  1.111485 S    
C129  H54   1.104148 S    
C72   N20   1.509877 S    
N11   O73   1.294148 A    
N49   O149  1.303402 A    
C91   H15   1.115923 S    
C172  H182  1.088193 S    
C95   N39   1.479697 S    
C147  H108  1.099344 S    
C17   C48   1.515013 S    
N4    O60   1.300112 A    
N29   O109  1.296676 A    
C144  H100  1.087606 S    
C122  H32   1.095244 S    
C49   N1    1.513086 S    
N31   O113  1.300658 A    
C123  H35   1.087189 S    
C63   N11   1.505121 S    
Zn10  O18   1.962063 S    
C125  H42   1.104939 S    
C39   H3    1.108253 S    
C143  H95   1.111835 S    
C115  N47   1.491965 S    
N30   O112  1.299515 A    
N22   O96   1.295014 A    
C168  H170  1.089748 S    
N45   O142  1.300908 A    
C135  H73   1.098446 S    
O41   C13   1.301662 A    
C126  H46   1.108671 S    
C151  H120  1.112858 S    
C22   C42   1.510917 S    
N3    O57   1.304286 A    
C153  H127  1.098467 S    
N10   O71   1.298532 A    
C141  H89   1.112483 S    
C164  H158  1.096078 S    
O45   C1    1.305392 A    
N40   O131  1.302354 A    
C89   H13   1.115443 S    
N31   O114  1.298361 A    
C99   C103  1.618265 S    
C38   N58   1.477660 S    
O33   C21   1.294784 A    
C166  H166  1.109454 S    
C95   C103  1.593769 S    
C58   C62   1.640929 S    
N35   O122  1.296309 A    
O15   C11   1.297479 A    
C121  H30   1.101899 S    
C157  H138  1.111117 S    
C139  H83   1.109983 S    
C90   C102  1.592022 S    
Zn7   O3    1.974330 S    
C162  H154  1.111590 S    
N14   O79   1.301542 A    
N59   O170  1.299074 A    
C62   N10   1.514163 S    
C122  H33   1.109974 S    
C27   C43   1.647768 S    
C142  H92   1.106883 S    
O44   C16   1.299712 A    
C159  H143  1.101622 S    
C146  H104  1.084722 S    
O17   C13   1.290699 A    
O20   C16   1.288935 A    
C89   C157  1.555795 S    
O10   C6    1.280817 A    
C158  H142  1.110819 S    
C16   C104  1.498170 S    
C107  C115  1.616782 S    
O48   C4    1.298315 A    
N13   O77   1.302926 A    
C130  H58   1.110475 S    
C71   N19   1.492809 S    
C105  C113  1.619898 S    
C78   C82   1.634185 S    
O14   C10   1.285437 A    
N18   O88   1.303647 A    
C115  N51   1.489665 S    
N61   O174  1.302670 A    
C157  H137  1.102613 S    
C70   C74   1.654903 S    
C86   C146  1.599045 S    
C5    C73   1.510104 S    
C56   N64   1.485468 S    
C46   C54   1.594144 S    
C111  C112  1.563663 S    
C20   C45   1.507295 S    
N45   O141  1.294205 A    
Zn1   O33   1.969668 S    
O36   C24   1.308157 A    
C48   C52   1.642370 S    
N7    O66   1.298474 A    
O30   C18   1.307089 A    
C132  H62   1.107219 S    
