data_mof_unit_56379.cif
_audit_creation_date              2013-03-05T15:55:45-0500
_audit_creation_method            fapswitch 2.2
_symmetry_space_group_name_H-M    P1
_symmetry_Int_Tables_number       1
_space_group_crystal_system       triclinic
_cell_length_a                    10.585436
_cell_length_b                    12.362324
_cell_length_c                    13.162082
_cell_angle_alpha                 116.690449
_cell_angle_beta                  77.286711
_cell_angle_gamma                 100.337508
_cell_volume                      1494.70979064

loop_
_atom_site_label
_atom_site_type_symbol
_atom_site_description
_atom_site_fract_x
_atom_site_fract_y
_atom_site_fract_z
_atom_type_partial_charge
O1    O     O_R   0.537510 0.972500 0.318130 -0.598790
O2    O     O_R   0.487140 0.806530 0.359650 -0.569723
C1    C     C_R   0.510434 0.855188 0.286616 0.822609
O3    O     O_R   0.708330 0.082950 0.479220 -0.594404
O4    O     O_R   0.657960 0.916980 0.520740 -0.523129
C2    C     C_R   0.739798 0.000984 0.502654 0.835471
Cu1   Cu    Cu3+1 0.529830 0.098270 0.475420 0.932425
Cu2   Cu    Cu3+1 0.470170 0.901730 0.524580 0.966761
O5    O     O_R   0.512860 0.193470 0.640350 -0.592962
O6    O     O_R   0.462490 0.027500 0.681870 -0.598895
O7    O     O_R   0.342040 0.083020 0.479260 -0.581402
O8    O     O_R   0.291670 0.917050 0.520780 -0.602275
C3    C     C_R   0.481129 0.145038 0.713580 0.774988
C4    C     C_R   0.259979 0.001082 0.500174 0.769172
C5    C     C_3   0.975434 0.951246 0.394368 -0.135854
C6    C     C_3   0.032626 0.887730 0.449579 -0.088598
H1    H     H_    0.062522 0.793692 0.405517 0.148870
H2    H     H_    0.951868 0.908858 0.305608 0.154377
C7    C     C_3   0.123313 0.003235 0.500973 -0.001968
C8    C     C_3   0.068375 0.066882 0.445837 -0.167133
C9    C     C_3   0.967260 0.117543 0.556361 -0.170476
C10   C     C_3   0.024902 0.054144 0.611516 -0.220583
C11   C     C_3   0.931880 0.938680 0.560336 -0.080354
C12   C     C_3   0.876617 0.001703 0.504771 0.024494
H3    H     H_    0.127220 0.119362 0.399057 0.145834
H4    H     H_    0.937170 0.211492 0.600390 0.142484
H5    H     H_    0.048773 0.096437 0.700171 0.133766
H6    H     H_    0.874245 0.888232 0.609486 0.166274
C13   C     C_R   0.328900 0.279628 0.025164 -0.194111
H7    H     H_    0.332184 0.098577 0.890482 0.143383
H8    H     H_    0.248730 0.463034 0.222769 0.149015
H9    H     H_    0.261229 0.250723 0.085051 0.132753
C14   C     C_R   0.455360 0.228639 0.835638 -0.041891
C15   C     C_R   0.594846 0.813240 0.083293 -0.179315
C16   C     C_R   0.621394 0.733303 0.968033 -0.142216
C17   C     C_R   0.576906 0.610909 0.931368 -0.179804
C18   C     C_R   0.499480 0.566265 0.009499 0.085377
C19   C     C_R   0.459914 0.651022 0.124306 0.095926
C20   C     C_R   0.458603 0.440601 0.977191 0.071123
C21   C     C_R   0.370102 0.403235 0.056068 0.165406
C22   C     C_R   0.320735 0.489775 0.163652 -0.239859
C23   C     C_R   0.363002 0.611892 0.196543 -0.215920
C24   C     C_R   0.503392 0.350528 0.868797 -0.254758
C25   C     C_R   0.370513 0.192685 0.915002 -0.202566
C26   C     C_R   0.517368 0.773005 0.163086 -0.079191
H10   H     H_    0.574644 0.372672 0.807126 0.146613
H11   H     H_    0.638070 0.906257 0.110424 0.142391
H12   H     H_    0.602520 0.554495 0.840791 0.128186
H13   H     H_    0.680534 0.765657 0.907093 0.141440
H14   H     H_    0.315904 0.675077 0.278382 0.163754
C27   C     C_R   0.639250 0.307397 0.285872 -0.269647
H15   H     H_    0.687306 0.143328 0.279081 0.120317
H16   H     H_    0.645922 0.482734 0.227693 0.186014
H17   H     H_    0.690964 0.289338 0.199858 0.136321
N1    N     N_R   0.575030 0.246270 0.438190 -0.185008
C28   C     C_R   0.339944 0.771011 0.659302 0.088501
C29   C     C_R   0.306840 0.679788 0.697508 -0.251416
C30   C     C_R   0.361395 0.569354 0.635048 -0.164513
C31   C     C_R   0.448568 0.547839 0.531817 -0.035577
C32   C     C_R   0.480552 0.643710 0.494943 0.157610
C33   C     C_R   0.508633 0.436073 0.465101 -0.035024
C34   C     C_R   0.574721 0.412628 0.352624 0.103119
C35   C     C_R   0.587157 0.499592 0.311229 -0.293493
C36   C     C_R   0.567790 0.619174 0.388882 0.360191
C37   C     C_R   0.508535 0.346849 0.504797 0.037679
C38   C     C_R   0.640149 0.226084 0.331374 0.079671
N2    N     N_R   0.425760 0.754330 0.561190 -0.208903
H18   H     H_    0.455161 0.354981 0.587308 0.119292
H19   H     H_    0.297201 0.856454 0.709041 0.119821
H20   H     H_    0.331369 0.500997 0.667456 0.133124
H21   H     H_    0.238649 0.694875 0.776088 0.141686
N3    N     N_R   0.679823 0.699951 0.381684 0.152119
O9    O     O_R   0.766893 0.713817 0.443593 -0.409964
O10   O     O_R   0.719334 0.713390 0.286745 -0.408634

loop_
_geom_bond_atom_site_label_1
_geom_bond_atom_site_label_2
_geom_bond_distance
_ccdc_geom_bond_type
C5    H2    1.110435 S    
C9    H4    1.110437 S    
C22   C23   1.386495 A    
C16   C17   1.390105 A    
Cu1   N1    2.050518 S    
Cu1   Cu2   2.720781 S    
Cu1   O7    1.954340 S    
C34   C35   1.383420 A    
C17   C18   1.417897 A    
C19   C23   1.412861 A    
C13   H9    1.083868 S    
O4    C2    1.301549 A    
O7    C4    1.298401 A    
C8    H3    1.110409 S    
C5    C6    1.545319 S    
C28   C29   1.391952 A    
C15   C16   1.386452 A    
O5    C3    1.305414 A    
C19   C26   1.421430 A    
C7    C8    1.531953 S    
C32   N2    1.399169 A    
C6    H1    1.110650 S    
C16   H13   1.082849 S    
C11   C12   1.532273 S    
C31   C32   1.433629 A    
C9    C10   1.546399 S    
H7    C25   1.083139 S    
C27   C34   1.399584 A    
O3    Cu1   1.946051 S    
N1    C37   1.368685 A    
C5    C8    1.545644 S    
C31   C33   1.436659 A    
C14   C24   1.396941 A    
C7    C10   1.530953 S    
O3    C2    1.296138 A    
C20   C21   1.419953 A    
C30   H20   1.079272 S    
C20   C24   1.401693 A    
C30   C31   1.407119 A    
C1    C26   1.473588 S    
O1    C1    1.311557 A    
C27   C38   1.384204 A    
C3    C14   1.462952 S    
C18   C19   1.418903 A    
Cu2   O8    1.946052 S    
C37   H18   1.077496 S    
C2    C12   1.453037 S    
C15   C26   1.402423 A    
C11   H6    1.109879 S    
C29   H21   1.082574 S    
C23   H14   1.080057 S    
N3    O10   1.302117 A    
C5    C12   1.531566 S    
O8    C4    1.297494 A    
C6    C11   1.546323 S    
C10   H5    1.110461 S    
C13   C25   1.392993 A    
N1    C38   1.354266 A    
H15   C38   1.081219 S    
Cu1   O5    1.933636 S    
C21   C22   1.391694 A    
H8    C22   1.084103 S    
O1    Cu1   1.946711 S    
C14   C25   1.398671 A    
C4    C7    1.449321 S    
O2    Cu2   1.933636 S    
N3    O9    1.300478 A    
O6    C3    1.308814 A    
O4    Cu2   1.954339 S    
C28   N2    1.359044 A    
C32   C36   1.430480 A    
C27   H17   1.084085 S    
O2    C1    1.307129 A    
C18   C20   1.423974 A    
H16   C35   1.085779 S    
C29   C30   1.392444 A    
C6    C7    1.531074 S    
C13   C21   1.403991 A    
C17   H12   1.076972 S    
C36   N3    1.422353 S    
C33   C34   1.412984 A    
C24   H10   1.076454 S    
C35   C36   1.389696 A    
C33   C37   1.416587 A    
C8    C9    1.546253 S    
Cu2   N2    2.038450 S    
Cu2   O6    1.946710 S    
C28   H19   1.081181 S    
C9    C12   1.533809 S    
C10   C11   1.544202 S    
C15   H11   1.083214 S    
