data_mof_unit_12197.cif
_audit_creation_date              2012-12-11T16:47:44-0500
_audit_creation_method            fapswitch 2.2
_symmetry_space_group_name_H-M    P1
_symmetry_Int_Tables_number       1
_space_group_crystal_system       triclinic
_cell_length_a                    26.168011
_cell_length_b                    7.200969
_cell_length_c                    23.871119
_cell_angle_alpha                 90.931088
_cell_angle_beta                  101.70598
_cell_angle_gamma                 91.251591
_cell_volume                      4402.56731286

loop_
_atom_site_label
_atom_site_type_symbol
_atom_type_description
_atom_site_fract_x
_atom_site_fract_y
_atom_site_fract_z
_atom_type_partial_charge
O1    O     O_R   0.797620 0.601060 0.203310 -0.543283
O2    O     O_R   0.202380 0.398940 0.796690 -0.543840
O3    O     O_R   0.702380 0.101060 0.296690 -0.539429
O4    O     O_R   0.297620 0.898940 0.703310 -0.538922
O5    O     O_R   0.692070 0.267810 0.186600 -0.532661
O6    O     O_R   0.307930 0.732190 0.813400 -0.532616
O7    O     O_R   0.807930 0.767810 0.313400 -0.528446
O8    O     O_R   0.192070 0.232190 0.686600 -0.527016
C1    C     C_R   0.673593 0.436336 0.171342 0.687142
C2    C     C_R   0.326409 0.563669 0.828655 0.686098
C3    C     C_R   0.826025 0.941783 0.328385 0.694861
C4    C     C_R   0.173977 0.058216 0.671610 0.697102
O9    O     O_R   0.796590 0.271120 0.196480 -0.542244
O10   O     O_R   0.203410 0.728880 0.803520 -0.542918
O11   O     O_R   0.703410 0.771120 0.303520 -0.541493
O12   O     O_R   0.296590 0.228880 0.696480 -0.541512
O13   O     O_R   0.807640 0.104280 0.306650 -0.523626
O14   O     O_R   0.192360 0.895720 0.693350 -0.523289
O15   O     O_R   0.692360 0.604280 0.193350 -0.518905
O16   O     O_R   0.307640 0.395720 0.806650 -0.519777
C5    C     C_R   0.812357 0.440184 0.184380 0.705857
C6    C     C_R   0.187645 0.559815 0.815623 0.705037
C7    C     C_R   0.687625 0.939541 0.315565 0.716160
C8    C     C_R   0.312381 0.060461 0.684442 0.719469
O17   O     O_3   0.753500 0.435660 0.286130 -0.371669
O18   O     O_3   0.246500 0.564340 0.713870 -0.369837
O19   O     O_3   0.746500 0.935660 0.213870 -0.377949
O20   O     O_3   0.253500 0.064340 0.786130 -0.379233
V1    V     V_3+5 0.749350 0.159470 0.243300 1.492967
V2    V     V_3+5 0.250650 0.840530 0.756700 1.500469
V3    V     V_3+5 0.750650 0.659470 0.256700 1.495755
V4    V     V_3+5 0.249350 0.340530 0.743300 1.506002
C9    C     C_R   0.376357 0.885602 0.639206 -0.123257
C10   C     C_R   0.623672 0.114409 0.360835 -0.130328
C11   C     C_R   0.122937 0.382073 0.860520 -0.134969
C12   C     C_R   0.877076 0.617922 0.139497 -0.136169
H1    H     H_    0.369226 0.762613 0.662275 0.141327
H2    H     H_    0.630795 0.237396 0.337760 0.141690
H3    H     H_    0.129894 0.257138 0.837622 0.140345
H4    H     H_    0.870116 0.742857 0.162392 0.140668
C13   C     C_R   0.412500 0.876454 0.603505 -0.200381
C14   C     C_R   0.587546 0.123559 0.396554 -0.205674
C15   C     C_R   0.086408 0.373293 0.895838 -0.204355
C16   C     C_R   0.913611 0.626698 0.104186 -0.204085
H5    H     H_    0.432405 0.747544 0.600428 0.147613
H6    H     H_    0.567642 0.252468 0.399639 0.148001
H7    H     H_    0.066520 0.241976 0.899509 0.153583
H8    H     H_    0.933500 0.758014 0.100518 0.153833
C17   C     C_R   0.423702 0.031842 0.572817 0.064729
C18   C     C_R   0.576355 0.968170 0.427248 0.064849
C19   C     C_R   0.075835 0.530929 0.926619 0.061386
C20   C     C_R   0.924186 0.469061 0.073406 0.061575
C21   C     C_R   0.397520 0.198783 0.578237 0.387199
C22   C     C_R   0.602536 0.801233 0.421819 0.383390
C23   C     C_R   0.102278 0.700525 0.920937 0.384016
C24   C     C_R   0.897741 0.299467 0.079085 0.384455
C25   C     C_R   0.361438 0.207291 0.614978 -0.218507
C26   C     C_R   0.638601 0.792723 0.385060 -0.225440
C27   C     C_R   0.138792 0.708464 0.884723 -0.229525
C28   C     C_R   0.861221 0.291531 0.115292 -0.229641
H9    H     H_    0.341524 0.335660 0.618937 0.127039
H10   H     H_    0.658515 0.664356 0.381095 0.124689
H11   H     H_    0.158717 0.839232 0.880363 0.122096
H12   H     H_    0.841295 0.160764 0.119649 0.121917
C29   C     C_R   0.350450 0.051201 0.645691 -0.073261
C30   C     C_R   0.649574 0.948807 0.354336 -0.073967
C31   C     C_R   0.149545 0.549799 0.854304 -0.072067
C32   C     C_R   0.850464 0.450198 0.145707 -0.072657
C33   C     C_R   0.502481 0.152589 0.537537 -0.057034
C34   C     C_R   0.497584 0.847407 0.462538 -0.058595
C35   C     C_R   0.048826 0.585069 0.020969 -0.064001
C36   C     C_R   0.951196 0.414922 0.979058 -0.064387
H13   H     H_    0.505653 0.270160 0.567010 0.154888
H14   H     H_    0.494412 0.729839 0.433064 0.154416
H15   H     H_    0.086736 0.648659 0.038306 0.153101
H16   H     H_    0.913286 0.351333 0.961721 0.152824
C37   C     C_R   0.539286 0.136455 0.502635 -0.164158
C38   C     C_R   0.460779 0.863542 0.497439 -0.161152
C39   C     C_R   0.012259 0.569790 0.056236 -0.151617
C40   C     C_R   0.987763 0.430201 0.943791 -0.152518
H17   H     H_    0.569698 0.242795 0.505664 0.143569
H18   H     H_    0.430367 0.757204 0.494409 0.145941
H19   H     H_    0.022641 0.623073 0.099858 0.144216
H20   H     H_    0.977381 0.376918 0.900169 0.143174
C41   C     C_R   0.537436 0.983277 0.464880 0.103070
C42   C     C_R   0.462628 0.016722 0.535193 0.103465
C43   C     C_R   0.963100 0.483827 0.035784 0.102802
C44   C     C_R   0.036922 0.516164 0.964243 0.102959
C45   C     C_3   0.982099 0.821123 0.496060 -0.374772
C46   C     C_3   0.018067 0.179033 0.503693 -0.342195
C47   C     C_3   0.530826 0.384076 0.976585 -0.274569
C48   C     C_3   0.469478 0.617044 0.023067 -0.264508
C49   C     C_3   0.988325 0.951816 0.549382 0.428011
C50   C     C_3   0.011790 0.048156 0.450375 0.403804
C51   C     C_3   0.516034 0.582025 0.956453 0.332251
C52   C     C_3   0.484238 0.419133 0.043187 0.370847
H21   H     H_    0.967940 0.674327 0.493305 0.241407
H22   H     H_    0.032237 0.325821 0.506527 0.232233
H23   H     H_    0.555577 0.294103 0.955584 0.249775
H24   H     H_    0.444732 0.707707 0.043873 0.251092
C53   C     C_1   0.128348 0.044522 0.625779 -0.081985
C54   C     C_1   0.871678 0.955480 0.374180 -0.090161
C55   C     C_1   0.372552 0.565993 0.874904 -0.084301
C56   C     C_1   0.627501 0.434101 0.125033 -0.082773
C57   C     C_3   0.036718 0.889594 0.488153 0.312851
C58   C     C_3   0.963445 0.110632 0.511674 0.390060
C59   C     C_3   0.472843 0.347337 0.980575 0.420378
C60   C     C_3   0.527487 0.653838 0.019092 0.408623
C61   C     C_3   0.042740 0.017537 0.541470 -0.177687
C62   C     C_3   0.957383 0.982578 0.458351 -0.196048
C63   C     C_3   0.458449 0.543915 0.959816 -0.203433
C64   C     C_3   0.541833 0.457082 0.039884 -0.210635
C65   C     C_1   0.089878 0.033272 0.587676 0.234922
C66   C     C_1   0.910185 0.966765 0.412232 0.228686
C67   C     C_1   0.411258 0.565211 0.913326 0.282528
C68   C     C_1   0.588875 0.435218 0.086515 0.285664
O21   O     O_3   0.406581 0.349673 0.546267 -0.651002
H25   H     H_    0.384597 0.453413 0.554189 0.286119
O22   O     O_3   0.593489 0.650346 0.453798 -0.652667
H26   H     H_    0.615470 0.546609 0.445868 0.282805
O23   O     O_3   0.090939 0.857298 0.949756 -0.647169
H27   H     H_    0.113501 0.962465 0.942188 0.285727
O24   O     O_3   0.909085 0.142691 0.050270 -0.647130
H28   H     H_    0.886520 0.037525 0.057835 0.285484
S1    S     S_3+6 0.972978 0.883132 0.615527 0.123857
O25   O     O_2   0.008332 0.729962 0.639924 -0.298551
O26   O     O_2   0.980738 0.046303 0.656672 -0.289601
O27   O     O_3   0.910525 0.806476 0.604055 -0.429393
H29   H     H_    0.905170 0.765922 0.641940 0.388518
S2    S     S_3+6 0.026854 0.112980 0.383727 0.096175
O28   O     O_2   0.021306 0.945671 0.344326 -0.284945
O29   O     O_2   0.989780 0.258639 0.357253 -0.332077
O30   O     O_3   0.088472 0.198230 0.394968 -0.424762
H30   H     H_    0.093537 0.237357 0.356840 0.397649
S3    S     S_3+6 0.537516 0.687226 0.897939 0.136609
O31   O     O_2   0.514980 0.579338 0.843851 -0.279616
O32   O     O_2   0.519472 0.883807 0.891854 -0.250874
O33   O     O_3   0.603039 0.684881 0.908993 -0.460657
H31   H     H_    0.615197 0.803601 0.929372 0.383160
S4    S     S_3+6 0.461784 0.313599 0.101014 0.120436
O34   O     O_2   0.477807 0.114608 0.105466 -0.244399
O35   O     O_2   0.485083 0.417128 0.155713 -0.309720
O36   O     O_3   0.396359 0.322997 0.089127 -0.465373
H32   H     H_    0.386394 0.258120 0.121735 0.377790
S5    S     S_3+6 0.914451 0.260915 0.526603 0.086781
O37   O     O_2   0.936075 0.375390 0.579635 -0.254789
O38   O     O_2   0.898027 0.386721 0.476905 -0.340924
O39   O     O_3   0.862661 0.133009 0.536536 -0.460640
H33   H     H_    0.837392 0.224664 0.544897 0.375791
S6    S     S_3+6 0.086082 0.740486 0.473369 0.128521
O40   O     O_2   0.132346 0.856114 0.465090 -0.245333
O41   O     O_2   0.102660 0.613466 0.522715 -0.321201
O42   O     O_3   0.062947 0.613590 0.413583 -0.409068
H34   H     H_    0.028458 0.565042 0.418438 0.360157
S7    S     S_3+6 0.569100 0.846833 0.048360 0.065838
O43   O     O_2   0.553765 0.016495 0.014520 -0.295038
O44   O     O_2   0.564817 0.880385 0.109502 -0.291915
O45   O     O_3   0.631243 0.799336 0.045925 -0.529680
H35   H     H_    0.652219 0.905386 0.066240 0.351661
S8    S     S_3+6 0.431226 0.154234 0.951594 0.098856
O46   O     O_2   0.432523 0.128091 0.889322 -0.301754
O47   O     O_2   0.448933 0.982128 0.982992 -0.280938
O48   O     O_3   0.369829 0.196361 0.958454 -0.495076
H36   H     H_    0.348491 0.091106 0.938129 0.352954

loop_
_geom_bond_atom_site_label_1
_geom_bond_atom_site_label_2
_ccdc_geom_bond_type
C52   S4    S    
C26   H10   S    
S3    O33   S    
C39   H19   S    
C23   O23   S    
C50   C57   S    
O17   V3    S    
C23   C27   A    
S7    O44   D    
C53   C65   T    
O3    C7    A    
O48   H36   S    
C10   C14   A    
S4    O36   S    
O1    V3    S    
C40   H20   S    
O15   V3    S    
O27   H29   S    
C10   C30   A    
C35   C39   A    
S5    O37   D    
C9    C29   A    
O24   H28   S    
O1    C5    A    
C57   S6    S    
C52   C64   S    
C26   C30   A    
C50   S2    S    
C58   S5    S    
C7    C30   S    
O9    V1    S    
C2    C55   S    
S4    O35   D    
C22   C26   A    
C11   H3    S    
O4    C8    A    
C21   O21   S    
O19   V1    S    
O36   H32   S    
C48   C52   S    
O13   V1    S    
O2    V4    S    
C14   H6    S    
O3    V1    S    
C34   H14   S    
C12   H4    S    
C18   C41   S    
C27   C31   A    
C56   C68   T    
C33   C37   A    
C1    O15   A    
C2    O16   A    
S6    O42   S    
O2    C6    A    
S1    O27   S    
O45   H35   S    
C33   H13   S    
O14   V2    S    
C11   C31   A    
C11   C15   A    
C62   C66   S    
C61   C65   S    
C38   C42   A    
O11   C7    A    
C37   C41   A    
O12   C8    A    
C39   C43   A    
C40   C44   A    
S7    O45   S    
O10   V2    S    
C13   C17   A    
S5    O38   D    
C48   C60   S    
C46   C50   S    
O5    V1    S    
O7    V3    S    
O8    V4    S    
C24   O24   S    
C47   C59   S    
S3    O31   D    
O39   H33   S    
C46   C58   S    
O33   H31   S    
C21   C25   A    
O18   V4    S    
C45   C62   S    
C50   C62   S    
C9    H1    S    
C60   C64   S    
C45   H21   S    
S8    O47   D    
C47   C64   S    
S2    O29   D    
S8    O48   S    
O5    C1    A    
C55   C67   T    
C54   C66   T    
C49   C58   S    
C38   H18   S    
O7    C3    A    
C37   H17   S    
O8    C4    A    
C51   S3    S    
O9    C5    A    
C36   H16   S    
C18   C22   A    
S4    O34   D    
O11   V3    S    
O23   H27   S    
C8    C29   S    
C14   C18   A    
O6    V2    S    
C52   C59   S    
C5    C32   S    
S1    O25   D    
S6    O41   D    
C12   C16   A    
S2    O30   S    
C45   C57   S    
C64   C68   S    
C36   C43   A    
S5    O39   S    
C48   H24   S    
O16   V4    S    
C34   C38   A    
S3    O32   D    
C57   C61   S    
C3    O13   A    
C10   H2    S    
C59   C63   S    
C17   C42   S    
C20   C43   S    
C25   C29   A    
C19   C44   S    
O6    C2    A    
O22   H26   S    
C12   C32   A    
C48   C63   S    
C25   H9    S    
C16   C20   A    
O12   V4    S    
C27   H11   S    
C28   H12   S    
C9    C13   A    
S8    O46   D    
O10   C6    A    
O20   V2    S    
S2    O28   D    
C4    C53   S    
C36   C40   A    
C16   H8    S    
C59   S8    S    
O21   H25   S    
C35   H15   S    
C15   C19   A    
O30   H30   S    
C60   S7    S    
C1    C56   S    
C17   C21   A    
C3    C54   S    
C19   C23   A    
C45   C49   S    
C49   S1    S    
C6    C31   S    
C51   C60   S    
C47   C51   S    
C35   C44   A    
C24   C28   A    
C51   C63   S    
C28   C32   A    
C58   C62   S    
C4    O14   A    
S7    O43   D    
S1    O26   D    
C13   H5    S    
S6    O40   D    
C63   C67   S    
C46   C61   S    
C47   H23   S    
O42   H34   S    
C22   O22   S    
C34   C41   A    
C15   H7    S    
C46   H22   S    
O4    V2    S    
C33   C42   A    
C20   C24   A    
C49   C61   S    
