data_mof_unit_33286.cif
_audit_creation_date              2012-12-10T17:43:39-0500
_audit_creation_method            fapswitch 2.2
_symmetry_space_group_name_H-M    P1
_symmetry_Int_Tables_number       1
_space_group_crystal_system       triclinic
_cell_length_a                    14.950651
_cell_length_b                    10.757209
_cell_length_c                    10.0286
_cell_angle_alpha                 88.830376
_cell_angle_beta                  91.474054
_cell_angle_gamma                 94.67435
_cell_volume                      1606.70445235

loop_
_atom_site_label
_atom_site_type_symbol
_atom_type_description
_atom_site_fract_x
_atom_site_fract_y
_atom_site_fract_z
_atom_type_partial_charge
C1    C     C_R   0.500352 0.259874 0.501486 0.873186
C2    C     C_R   0.179785 0.366241 0.509805 0.042520
C3    C     C_R   0.230484 0.482277 0.492145 -0.216449
C4    C     C_R   0.327121 0.493142 0.498367 0.991586
C5    C     C_R   0.190971 0.590317 0.456089 0.517718
C6    C     C_R   0.606054 0.128003 0.709242 -0.147188
C7    C     C_R   0.671184 0.071774 0.786609 0.229115
C8    C     C_R   0.701390 0.958439 0.744986 0.252487
C9    C     C_R   0.657441 0.898213 0.634031 0.093209
C10   C     C_R   0.577516 0.943306 0.578244 0.030266
C11   C     C_R   0.560928 0.067414 0.599248 -0.014724
C12   C     C_R   0.911579 0.586006 0.428293 -0.018878
C13   C     C_R   0.503801 0.125986 0.504259 -0.089322
C14   C     C_R   0.456993 0.055217 0.402027 0.170699
C15   C     C_R   0.459026 0.928148 0.406169 -0.151325
C16   C     C_R   0.506941 0.739255 0.498906 0.922628
C17   C     C_R   0.516863 0.872424 0.493879 -0.141129
C18   C     C_R   0.352104 0.389568 0.134540 -0.194814
C19   C     C_R   0.269403 0.373830 0.066225 0.173211
C20   C     C_R   0.268915 0.382729 0.926485 0.175335
C21   C     C_R   0.351887 0.382630 0.863389 0.221573
C22   C     C_R   0.427277 0.444626 0.927554 0.049904
C23   C     C_R   0.936152 0.275258 0.582835 -0.154832
C24   C     C_R   0.427593 0.445184 0.070431 0.064038
C25   C     C_R   0.569247 0.554091 0.074216 -0.086926
C26   C     C_R   0.569656 0.555069 0.932047 0.215142
C27   C     C_R   0.672614 0.498690 0.500711 1.009534
C28   C     C_R   0.818836 0.585617 0.425304 0.468554
C29   C     C_R   0.768132 0.495658 0.499533 -0.314107
C30   C     C_R   0.807384 0.394817 0.558438 0.482396
C31   C     C_R   0.898828 0.384382 0.543838 -0.038615
C32   C     C_R   0.952261 0.483196 0.485150 -0.056914
C33   C     C_3   0.710610 0.142226 0.906340 -0.868830
C34   C     C_R   0.026791 0.259950 0.564012 0.208112
C35   C     C_3   0.782466 0.907418 0.814055 -0.931280
C36   C     C_3   0.707368 0.809231 0.556100 -0.813104
C37   C     C_3   0.184926 0.342029 0.141959 -0.894037
C38   C     C_3   0.183542 0.373697 0.843544 -0.860712
C39   C     C_3   0.366272 0.261454 0.798272 -0.838611
C40   C     C_3   0.648652 0.621548 0.866624 -0.836696
C41   C     C_3   0.053995 0.129695 0.596667 -0.904403
C42   C     C_3   0.227299 0.247421 0.504796 -0.919670
C43   C     C_3   0.107919 0.808994 0.330044 -0.782904
C44   C     C_3   0.403446 0.108622 0.287587 -0.874905
C45   C     C_R   0.084954 0.365639 0.519252 0.106903
C46   C     C_R   0.045469 0.478873 0.481855 -0.088102
C47   C     C_R   0.098317 0.588314 0.439627 -0.011434
C48   C     C_R   0.056531 0.692582 0.384100 0.174381
C49   C     C_R   0.963361 0.687372 0.374983 -0.160052
F1    F     F_    0.778156 0.671140 0.348669 -0.699618
F2    F     F_    0.755223 0.302534 0.619479 -0.699502
F3    F     F_    0.245274 0.696536 0.436427 -0.691834
H1    H     H_    0.593257 0.219179 0.740790 0.215148
H2    H     H_    0.768773 0.889135 0.921186 0.246563
H3    H     H_    0.800680 0.818193 0.773672 0.249938
H4    H     H_    0.841639 0.976161 0.804497 0.249190
H5    H     H_    0.713221 0.721235 0.612398 0.222391
H6    H     H_    0.675222 0.789826 0.457391 0.272697
H7    H     H_    0.775945 0.852044 0.535846 0.262607
H8    H     H_    0.199794 0.333648 0.249599 0.250099
H9    H     H_    0.138726 0.417178 0.127724 0.249978
H10   H     H_    0.151565 0.251841 0.107865 0.245647
H11   H     H_    0.122525 0.380106 0.902407 0.245130
H12   H     H_    0.415995 0.871339 0.338407 0.193135
H13   H     H_    0.185896 0.451960 0.769773 0.247613
H14   H     H_    0.176873 0.284055 0.791784 0.242447
H15   H     H_    0.355583 0.271132 0.690657 0.263419
H16   H     H_    0.434295 0.231420 0.822078 0.235359
H17   H     H_    0.318397 0.184117 0.834060 0.213169
H18   H     H_    0.624505 0.682722 0.786485 0.272637
H19   H     H_    0.689309 0.681769 0.937821 0.214885
H20   H     H_    0.693201 0.553259 0.829412 0.259459
H21   H     H_    0.081913 0.087506 0.508822 0.251368
H22   H     H_    0.099545 0.129040 0.685005 0.237966
H23   H     H_    0.625454 0.598463 0.130326 0.186470
H24   H     H_    0.995728 0.063996 0.623559 0.227500
H25   H     H_    0.225075 0.195147 0.600190 0.256441
H26   H     H_    0.198790 0.188326 0.422507 0.248608
H27   H     H_    0.298965 0.265746 0.483147 0.201446
H28   H     H_    0.145035 0.859665 0.412387 0.275305
H29   H     H_    0.154883 0.783999 0.252773 0.269186
H30   H     H_    0.062840 0.874942 0.282268 0.198290
H31   H     H_    0.368487 0.035079 0.224541 0.233719
H32   H     H_    0.350824 0.162923 0.325358 0.226169
H33   H     H_    0.448449 0.166140 0.220248 0.261016
H34   H     H_    0.356757 0.356984 0.235067 0.203512
H35   H     H_    0.892850 0.198831 0.623826 0.201220
H36   H     H_    0.930946 0.765636 0.331294 0.197595
H37   H     H_    0.742305 0.234306 0.873498 0.280862
H38   H     H_    0.656042 0.157959 0.975641 0.227824
H39   H     H_    0.761881 0.093507 0.963617 0.246368
N1    N     N_R   0.499150 0.498800 0.142780 -0.128055
N2    N     N_R   0.499120 0.498720 0.857170 -0.112095
O1    O     O_R   0.500000 0.316780 0.614690 -0.651346
O2    O     O_R   0.499990 0.316750 0.385360 -0.627393
O3    O     O_R   0.367850 0.499980 0.614680 -0.609486
O4    O     O_R   0.367840 0.499960 0.385350 -0.621262
O5    O     O_R   0.500010 0.683250 0.614640 -0.609353
O6    O     O_R   0.500000 0.683220 0.385310 -0.607997
O7    O     O_R   0.632160 0.500040 0.614650 -0.623269
O8    O     O_R   0.632150 0.500020 0.385320 -0.588003
Zn1   Zn    Zn3+2 0.500010 0.500020 0.653130 0.951766
Zn2   Zn    Zn3+2 0.499990 0.499980 0.346870 0.972537

loop_
_geom_bond_atom_site_label_1
_geom_bond_atom_site_label_2
_ccdc_geom_bond_type
C8    C9    A    
O6    Zn2   S    
C30   F2    S    
C40   H19   S    
O3    Zn1   S    
C27   C29   S    
C39   H16   S    
C19   C20   A    
C36   H7    S    
C26   C40   S    
C12   C49   A    
C7    C8    A    
C45   C46   A    
C5    C47   A    
C18   H34   S    
C40   H18   S    
C12   C28   A    
C18   C24   A    
C28   C29   A    
C36   H6    S    
C33   H39   S    
C30   C31   A    
C10   C17   A    
C18   C19   A    
C19   C37   S    
N1    Zn2   S    
C41   H22   S    
C4    O3    A    
C28   F1    S    
C38   H14   S    
C1    O1    A    
C9    C36   S    
C15   H12   S    
C5    F3    S    
C9    C10   A    
C44   H31   S    
C26   N2    A    
C42   H27   S    
O8    Zn2   S    
C23   H35   S    
C13   C14   A    
C12   C32   A    
C35   H2    S    
C7    C33   S    
C49   H36   S    
C34   C41   S    
C32   C46   A    
C24   N1    A    
O2    Zn2   S    
C37   H10   S    
C2    C45   A    
C4    O4    A    
C27   O7    A    
C35   H3    S    
C36   H5    S    
C6    C11   A    
C16   C17   S    
C3    C5    A    
C43   H28   S    
O5    Zn1   S    
C27   O8    A    
C25   H23   S    
C8    C35   S    
C23   C31   A    
C29   C30   A    
C33   H37   S    
C20   C38   S    
C47   C48   A    
C21   C39   S    
C38   H13   S    
C1    O2    A    
C23   C34   A    
O7    Zn1   S    
C39   H17   S    
C34   C45   A    
O4    Zn2   S    
C48   C49   A    
C42   H26   S    
C43   H29   S    
C22   N2    A    
C22   C24   A    
C1    C13   S    
C6    H1    S    
C44   H33   S    
C14   C44   S    
C38   H11   S    
C43   C48   S    
C15   C17   A    
C46   C47   A    
C25   N1    A    
C40   H20   S    
C35   H4    S    
C39   H15   S    
C31   C32   A    
C44   H32   S    
N2    Zn1   S    
C37   H9    S    
C16   O6    A    
C6    C7    A    
C2    C3    A    
C25   C26   A    
C33   H38   S    
C41   H24   S    
C11   C13   A    
C16   O5    A    
C2    C42   S    
C37   H8    S    
C10   C11   A    
C41   H21   S    
C20   C21   A    
O1    Zn1   S    
C42   H25   S    
C43   H30   S    
C14   C15   A    
C21   C22   A    
C3    C4    S    
