data_mof_unit_10087.cif
_audit_creation_date              2012-12-11T14:40:13-0500
_audit_creation_method            fapswitch 2.2
_symmetry_space_group_name_H-M    P1
_symmetry_Int_Tables_number       1
_space_group_crystal_system       triclinic
_cell_length_a                    19.664741
_cell_length_b                    10.977197
_cell_length_c                    19.473377
_cell_angle_alpha                 90.501908
_cell_angle_beta                  97.773016
_cell_angle_gamma                 89.814994
_cell_volume                      4164.80312086

loop_
_atom_site_label
_atom_site_type_symbol
_atom_type_description
_atom_site_fract_x
_atom_site_fract_y
_atom_site_fract_z
_atom_type_partial_charge
C1    C     C_R   0.726822 0.950233 0.359296 0.552750
C2    C     C_R   0.272216 0.945305 0.642203 0.536594
C3    C     C_R   0.226513 0.451111 0.359602 0.543419
C4    C     C_R   0.774140 0.449474 0.640295 0.539829
C5    C     C_3   0.750517 0.282191 0.487489 -0.157269
C6    C     C_3   0.308165 0.300164 0.503837 -0.177491
C7    C     C_3   0.223883 0.791781 0.483684 -0.145911
C8    C     C_3   0.805120 0.794898 0.504191 -0.154668
C9    C     C_3   0.742695 0.387863 0.435408 0.025938
C10   C     C_3   0.265876 0.349189 0.559390 0.012311
C11   C     C_3   0.245160 0.891571 0.435604 0.015413
C12   C     C_3   0.765491 0.851023 0.559720 0.000243
C13   C     C_3   0.689866 0.451327 0.474829 -0.102480
C14   C     C_3   0.274053 0.480152 0.535090 -0.108472
C15   C     C_3   0.207268 0.988253 0.473069 -0.131566
C16   C     C_3   0.777890 0.979791 0.534529 -0.115681
C17   C     C_3   0.750425 0.520517 0.516266 -0.144416
C18   C     C_3   0.206531 0.463118 0.484770 -0.121291
C19   C     C_3   0.275478 0.009137 0.521803 -0.123794
C20   C     C_3   0.709136 0.969040 0.485016 -0.133056
C21   C     C_3   0.802158 0.455224 0.476050 0.048059
C22   C     C_3   0.199142 0.332823 0.509151 0.078071
C23   C     C_3   0.311938 0.911266 0.483992 0.058509
C24   C     C_3   0.697810 0.840786 0.510510 0.059058
C25   C     C_3   0.811206 0.351198 0.528415 -0.125152
C26   C     C_3   0.240572 0.282950 0.453321 -0.146011
C27   C     C_3   0.291776 0.812723 0.532637 -0.142048
C28   C     C_3   0.736372 0.784325 0.454418 -0.126715
C29   C     C_3   0.759026 0.415929 0.568405 0.040277
C30   C     C_3   0.248016 0.412560 0.429312 0.038275
C31   C     C_3   0.254718 0.909984 0.570381 0.055281
C32   C     C_3   0.748196 0.911944 0.429210 0.042683
C33   C     C_3   0.495778 0.276845 0.980520 -0.117245
C34   C     C_3   0.445617 0.262391 0.034309 -0.138164
C35   C     C_3   0.995768 0.776853 0.980523 -0.117315
C36   C     C_3   0.945609 0.762383 0.034312 -0.138035
C37   C     C_3   0.544523 0.182059 0.018505 -0.114926
C38   C     C_3   0.408456 0.157540 0.990611 -0.156297
C39   C     C_3   0.044520 0.682075 0.018506 -0.114934
C40   C     C_3   0.908455 0.657527 0.990611 -0.156216
C41   C     C_3   0.494229 0.167943 0.072211 0.055393
C42   C     C_3   0.459180 0.172587 0.937613 0.042848
C43   C     C_3   0.994227 0.667942 0.072212 0.055275
C44   C     C_3   0.959178 0.672590 0.937614 0.042948
C45   C     C_R   0.534662 0.180441 0.337363 0.537587
C46   C     C_R   0.462577 0.179596 0.660664 0.540635
C47   C     C_R   0.036175 0.680572 0.338415 0.529283
C48   C     C_R   0.964214 0.679604 0.661819 0.544319
C49   C     C_3   0.458125 0.062878 0.029914 0.031604
C50   C     C_3   0.507507 0.077303 0.975500 0.035476
C51   C     C_3   0.958130 0.562874 0.029912 0.031591
C52   C     C_3   0.007511 0.577315 0.975499 0.035544
C53   C     C_1   0.762597 0.425290 0.903916 -0.013066
C54   C     C_1   0.236941 0.424359 0.095917 -0.012780
C55   C     C_1   0.262595 0.925288 0.903915 -0.012336
C56   C     C_1   0.736944 0.924353 0.095919 -0.012520
C57   C     C_1   0.746620 0.406143 0.034158 -0.059019
C58   C     C_1   0.252858 0.407097 0.965677 -0.056871
C59   C     C_1   0.246615 0.906131 0.034154 -0.059152
C60   C     C_1   0.752858 0.907094 0.965678 -0.056799
C61   C     C_1   0.753603 0.414381 0.963399 -0.057086
C62   C     C_1   0.245789 0.414097 0.036357 -0.059788
C63   C     C_1   0.253599 0.914374 0.963396 -0.057132
C64   C     C_1   0.745791 0.914091 0.036359 -0.059816
C65   C     C_1   0.741965 0.392853 0.094564 -0.014213
C66   C     C_1   0.257813 0.394330 0.905286 -0.012162
C67   C     C_1   0.241961 0.892840 0.094560 -0.014378
C68   C     C_1   0.757813 0.894330 0.905287 -0.012203
C69   C     C_R   0.737911 0.358851 0.363094 0.581076
C70   C     C_R   0.274356 0.312553 0.631862 0.555143
C71   C     C_R   0.239351 0.862961 0.362342 0.578188
C72   C     C_R   0.774164 0.813374 0.631855 0.550111
C73   C     C_R   0.721781 0.952567 0.163766 0.545886
C74   C     C_R   0.278180 0.953142 0.836275 0.535326
C75   C     C_R   0.221779 0.452571 0.163764 0.542472
C76   C     C_R   0.778179 0.453139 0.836273 0.538443
C77   C     C_R   0.526986 0.178157 0.143152 0.542254
C78   C     C_R   0.437851 0.182561 0.863253 0.560137
C79   C     C_R   0.026984 0.678157 0.143154 0.541514
C80   C     C_R   0.937851 0.682561 0.863253 0.560642
C81   C     C_R   0.735595 0.359278 0.164088 0.552070
C82   C     C_R   0.264269 0.360117 0.835741 0.549717
C83   C     C_R   0.235593 0.859268 0.164084 0.549974
C84   C     C_R   0.764269 0.860119 0.835740 0.549236
C85   C     C_1   0.479326 0.170063 0.591705 0.011465
C86   C     C_1   0.509597 0.173031 0.402693 -0.009953
C87   C     C_1   0.984876 0.670494 0.594529 -0.006988
C88   C     C_1   0.015475 0.673352 0.405676 -0.002557
C89   C     C_1   0.496535 0.168546 0.461155 -0.028592
C90   C     C_1   0.487292 0.166791 0.531565 -0.008990
C91   C     C_1   0.004823 0.668935 0.464913 -0.006279
C92   C     C_1   0.995090 0.667070 0.535109 -0.023156
C93   C     C_3   0.699261 0.348094 0.528374 0.000300
C94   C     C_3   0.314979 0.430839 0.478287 0.021958
C95   C     C_3   0.187584 0.890289 0.522631 0.018127
C96   C     C_3   0.816270 0.923799 0.477541 0.027603
Cr1   Cr    Cr6+3 0.765830 0.160660 0.268180 1.026757
Cr2   Cr    Cr6+3 0.234170 0.160660 0.731820 1.017567
Cr3   Cr    Cr6+3 0.265830 0.660660 0.268180 1.029106
Cr4   Cr    Cr6+3 0.734170 0.660660 0.731820 1.026638
Cr5   Cr    Cr6+3 0.612110 0.009150 0.248770 1.014143
Cr6   Cr    Cr6+3 0.387890 0.009150 0.751230 1.018163
Cr7   Cr    Cr6+3 0.112110 0.509150 0.248770 1.023794
Cr8   Cr    Cr6+3 0.887890 0.509150 0.751230 1.006442
Cr9   Cr    Cr6+3 0.615930 0.324050 0.248450 1.030863
Cr10  Cr    Cr6+3 0.384070 0.324050 0.751550 1.016591
Cr11  Cr    Cr6+3 0.115930 0.824050 0.248450 1.028973
Cr12  Cr    Cr6+3 0.884070 0.824050 0.751550 1.014293
H1    H     H_    0.750423 0.187678 0.468696 0.122657
H2    H     H_    0.353393 0.239257 0.510870 0.113192
H3    H     H_    0.201473 0.705148 0.462998 0.109783
H4    H     H_    0.845857 0.724932 0.514858 0.131234
H5    H     H_    0.640869 0.491461 0.450021 0.170808
H6    H     H_    0.286547 0.557688 0.571114 0.124475
H7    H     H_    0.170444 0.052678 0.445225 0.171670
H8    H     H_    0.794387 0.058685 0.568743 0.128639
H9    H     H_    0.298336 0.091859 0.546325 0.104881
H10   H     H_    0.667962 0.038822 0.475690 0.117777
H11   H     H_    0.746715 0.610754 0.539155 0.125786
H12   H     H_    0.161493 0.524821 0.475768 0.122029
H13   H     H_    0.860506 0.311566 0.552693 0.143298
H14   H     H_    0.229623 0.208107 0.415086 0.127447
H15   H     H_    0.326374 0.745131 0.560900 0.122175
H16   H     H_    0.719203 0.706659 0.419518 0.171222
H17   H     H_    0.601082 0.192413 0.030911 0.115491
H18   H     H_    0.352001 0.147836 0.977340 0.110424
H19   H     H_    0.101078 0.692441 0.030913 0.115556
H20   H     H_    0.852000 0.647812 0.977340 0.110371
H21   H     H_    0.512285 0.364686 0.960342 0.141864
H22   H     H_    0.419756 0.337317 0.059456 0.130340
H23   H     H_    0.012270 0.864700 0.960346 0.141639
H24   H     H_    0.919743 0.837300 0.059461 0.130519
O1    O     O_R   0.783230 0.287800 0.346510 -0.515996
O2    O     O_R   0.216770 0.287800 0.653490 -0.470277
O3    O     O_R   0.283230 0.787800 0.346510 -0.491605
O4    O     O_R   0.716770 0.787800 0.653490 -0.474896
O5    O     O_R   0.554500 0.081650 0.170370 -0.512425
O6    O     O_R   0.445500 0.081650 0.829630 -0.508037
O7    O     O_R   0.054500 0.581650 0.170370 -0.512790
O8    O     O_R   0.945500 0.581650 0.829630 -0.507583
O9    O     O_R   0.545430 0.285140 0.163100 -0.514584
O10   O     O_R   0.454570 0.285140 0.836900 -0.513767
O11   O     O_R   0.045430 0.785140 0.163100 -0.513825
O12   O     O_R   0.954570 0.785140 0.836900 -0.514622
O13   O     O_R   0.677850 0.374730 0.185500 -0.490657
O14   O     O_R   0.322150 0.374730 0.814500 -0.504836
O15   O     O_R   0.177850 0.874730 0.185500 -0.492733
O16   O     O_R   0.822150 0.874730 0.814500 -0.505229
O17   O     O_3   0.664630 0.164620 0.255130 -0.260639
O18   O     O_3   0.335370 0.164620 0.744870 -0.299508
O19   O     O_3   0.164630 0.664620 0.255130 -0.262080
O20   O     O_3   0.835370 0.664620 0.744870 -0.297928
O21   O     O_R   0.760130 0.037060 0.338610 -0.519082
O22   O     O_R   0.239870 0.037060 0.661390 -0.529557
O23   O     O_R   0.260130 0.537060 0.338610 -0.517130
O24   O     O_R   0.739870 0.537060 0.661390 -0.526668
O25   O     O_R   0.666620 0.921370 0.332440 -0.505387
O26   O     O_R   0.333380 0.921370 0.667560 -0.501832
O27   O     O_R   0.166620 0.421370 0.332440 -0.499761
O28   O     O_R   0.833380 0.421370 0.667560 -0.517782
O29   O     O_R   0.557170 0.082420 0.312350 -0.497525
O30   O     O_R   0.442830 0.082420 0.687650 -0.468616
O31   O     O_R   0.057170 0.582420 0.312350 -0.483097
O32   O     O_R   0.942830 0.582420 0.687650 -0.481420
O33   O     O_R   0.548310 0.285980 0.316250 -0.515982
O34   O     O_R   0.451690 0.285980 0.683750 -0.528225
O35   O     O_R   0.048310 0.785980 0.316250 -0.518621
O36   O     O_R   0.951690 0.785980 0.683750 -0.522665
O37   O     O_R   0.680520 0.375500 0.327470 -0.503191
O38   O     O_R   0.319480 0.375500 0.672530 -0.497028
O39   O     O_R   0.180520 0.875500 0.327470 -0.505754
O40   O     O_R   0.819480 0.875500 0.672530 -0.495944
O41   O     O_R   0.780350 0.286970 0.193350 -0.507200
O42   O     O_R   0.219650 0.286970 0.806650 -0.502069
O43   O     O_R   0.280350 0.786970 0.193350 -0.505345
O44   O     O_R   0.719650 0.786970 0.806650 -0.501885
O45   O     O_R   0.757460 0.036290 0.196640 -0.496066
O46   O     O_R   0.242540 0.036290 0.803360 -0.499766
O47   O     O_R   0.257460 0.536290 0.196640 -0.497067
O48   O     O_R   0.742540 0.536290 0.803360 -0.495850
O49   O     O_R   0.663740 0.920540 0.179290 -0.517254
O50   O     O_R   0.336260 0.920540 0.820710 -0.533738
O51   O     O_R   0.163740 0.420540 0.179290 -0.518760
O52   O     O_R   0.836260 0.420540 0.820710 -0.532513
C97   C     C_3   0.644723 0.291440 0.566043 -0.276363
C98   C     C_3   0.594237 0.388495 0.585039 -0.409488
H25   H     H_    0.621131 0.472518 0.605415 0.193456
H26   H     H_    0.557454 0.412486 0.538703 0.155306
H27   H     H_    0.565718 0.354240 0.626104 0.154438
H28   H     H_    0.618038 0.220539 0.532196 0.157320
H29   H     H_    0.669852 0.246554 0.613813 0.153141
C99   C     C_3   0.384322 0.469194 0.457701 -0.272233
C100  C     C_3   0.395467 0.605931 0.461996 -0.390653
H30   H     H_    0.349177 0.654314 0.437485 0.197232
H31   H     H_    0.407771 0.634388 0.517021 0.157452
H32   H     H_    0.439547 0.630553 0.434807 0.179187
H33   H     H_    0.426389 0.424801 0.492590 0.144295
H34   H     H_    0.387511 0.436630 0.404052 0.157147
C101  C     C_3   0.116392 0.869969 0.542867 -0.277392
C102  C     C_3   0.096416 0.962881 0.595251 -0.394595
H35   H     H_    0.121625 0.940220 0.648050 0.162027
H36   H     H_    0.110901 0.056235 0.581843 0.208211
H37   H     H_    0.040035 0.959962 0.595759 0.140356
H38   H     H_    0.078793 0.875052 0.495083 0.160532
H39   H     H_    0.115401 0.777767 0.565479 0.148479
C103  C     C_3   0.886650 0.956957 0.457713 -0.267779
C104  C     C_3   0.900197 0.093290 0.461514 -0.409621
H40   H     H_    0.860031 0.142840 0.427369 0.201304
H41   H     H_    0.901685 0.125892 0.515739 0.138911
H42   H     H_    0.950707 0.112336 0.444435 0.186432
H43   H     H_    0.927184 0.911280 0.493876 0.145830
H44   H     H_    0.890320 0.922540 0.404524 0.160973
C105  C     C_2   0.856919 0.506874 0.438951 0.561528
O53   O     O_2   0.914089 0.461074 0.446895 -0.507903
O54   O     O_R   0.840563 0.600103 0.391134 -0.731566
H45   H     H_    0.879932 0.621539 0.364981 0.332456
C106  C     C_2   0.128922 0.292004 0.521399 0.592494
O55   O     O_2   0.098469 0.214626 0.483793 -0.563699
O56   O     O_R   0.096565 0.349501 0.572542 -0.665200
H46   H     H_    0.048788 0.316560 0.574675 0.337383
C107  C     C_2   0.382540 0.922879 0.464172 0.562700
O57   O     O_2   0.432282 0.911205 0.508489 -0.524933
O58   O     O_R   0.391404 0.943803 0.395311 -0.693273
H47   H     H_    0.441447 0.942347 0.387987 0.342802
C108  C     C_2   0.628765 0.800043 0.526091 0.607947
O59   O     O_2   0.601852 0.709512 0.497459 -0.560340
O60   O     O_R   0.595219 0.867238 0.572748 -0.656183
H48   H     H_    0.549898 0.829504 0.580354 0.363391
C109  C     C_3   0.428759 0.945766 0.056420 -0.273451
C110  C     C_3   0.482432 0.866185 0.099015 -0.396538
H49   H     H_    0.533505 0.874172 0.081238 0.175627
H50   H     H_    0.486724 0.891744 0.154651 0.175486
H51   H     H_    0.466096 0.769389 0.094299 0.128861
H52   H     H_    0.388266 0.970341 0.088687 0.149501
H53   H     H_    0.404109 0.892733 0.011026 0.150954
C111  C     C_3   0.550414 0.980302 0.943457 -0.257869
C112  C     C_3   0.510040 0.865445 0.919357 -0.407509
H54   H     H_    0.457593 0.887418 0.894324 0.200455
H55   H     H_    0.537295 0.814755 0.881667 0.145850
H56   H     H_    0.506134 0.804485 0.963674 0.136662
H57   H     H_    0.571493 0.021194 0.898832 0.166453
H58   H     H_    0.594593 0.954025 0.982253 0.142002
C113  C     C_3   0.928774 0.445749 0.056413 -0.273799
C114  C     C_3   0.982456 0.366167 0.098992 -0.396330
H59   H     H_    0.033526 0.374175 0.081211 0.175367
H60   H     H_    0.986754 0.391707 0.154631 0.176485
H61   H     H_    0.966127 0.269368 0.094268 0.129144
H62   H     H_    0.888284 0.470309 0.088689 0.149296
H63   H     H_    0.904119 0.392726 0.011017 0.151012
C115  C     C_3   0.050424 0.480326 0.943453 -0.257709
C116  C     C_3   0.010057 0.365463 0.919347 -0.407863
H64   H     H_    0.957606 0.387426 0.894323 0.200578
H65   H     H_    0.037312 0.314793 0.881650 0.145148
H66   H     H_    0.006162 0.304487 0.963659 0.136689
H67   H     H_    0.071501 0.521229 0.898830 0.166295
H68   H     H_    0.094605 0.454053 0.982248 0.142019

loop_
_geom_bond_atom_site_label_1
_geom_bond_atom_site_label_2
_ccdc_geom_bond_type
C58   C62   S    
C29   C93   S    
Cr2   O22   S    
C67   C83   S    
C113  H63   S    
C83   O43   A    
C17   C29   S    
C9    C21   S    
C14   C18   S    
C35   C39   S    
C35   C36   S    
C8    C96   S    
Cr1   O1    S    
C19   C31   S    
Cr6   O26   S    
C20   H10   S    
C48   O32   A    
C97   H28   S    
C38   C49   S    
Cr11  O39   S    
C105  O53   D    
C10   C22   S    
C15   C19   S    
Cr2   O18   S    
C5    C9    S    
C109  C110  S    
C57   C61   S    
Cr9   O37   S    
C37   C41   S    
Cr10  O18   S    
C33   C42   S    
C72   O40   A    
C7    C11   S    
C77   O5    A    
C38   C42   S    
Cr11  O11   S    
C36   H24   S    
C15   C95   S    
Cr2   O42   S    
C41   C77   S    
C11   C71   S    
C116  H65   S    
Cr7   O51   S    
C43   C79   S    
C113  C114  S    
C40   H20   S    
Cr4   O48   S    
C78   O6    A    
C101  H39   S    
C15   H7    S    
C7    C27   S    
C111  C112  S    
C110  H51   S    
C75   O51   A    
Cr6   O6    S    
Cr5   O17   S    
C109  H52   S    
C49   C50   S    
C45   O29   A    
C36   C40   S    
C9    C13   S    
C59   C67   T    
C43   C51   S    
Cr12  O20   S    
C55   C74   S    
C11   C15   S    
C103  H43   S    
C58   C66   T    
C79   O11   A    
C12   C16   S    
C114  H60   S    
C102  H35   S    
C6    C94   S    
C55   C63   T    
Cr4   O44   S    
C104  H42   S    
C69   O1    A    
C56   C64   T    
Cr10  O10   S    
C18   C30   S    
C80   O12   A    
C99   H34   S    
Cr2   O46   S    
C75   O47   A    
C114  H59   S    
Cr5   O29   S    
C4    C29   S    
C8    C12   S    
C52   C115  S    
C46   C85   S    
C47   O31   A    
Cr4   O24   S    
C105  O54   S    
C39   C52   S    
Cr12  O36   S    
C98   H25   S    
Cr5   O25   S    
C101  C102  S    
C2    O22   A    
C107  O58   S    
C34   C38   S    
C112  H54   S    
C3    O27   A    
C6    H2    S    
C34   C41   S    
C53   C61   T    
Cr8   O28   S    
C16   H8    S    
C41   C49   S    
C82   O14   A    
C97   H29   S    
C37   H17   S    
C23   C27   S    
C84   O16   A    
C115  H68   S    
Cr11  O35   S    
C16   C96   S    
C39   H19   S    
C27   C31   S    
C51   C52   S    
Cr6   O50   S    
C20   C24   S    
C44   C80   S    
Cr1   O41   S    
O58   H47   S    
C116  H64   S    
C79   O7    A    
C10   C14   S    
C46   O30   A    
C91   C92   S    
C87   C92   T    
Cr5   O5    S    
C103  C104  S    
C50   C111  S    
C116  H66   S    
C39   C43   S    
C54   C62   T    
C100  H31   S    
C115  C116  S    
C80   O8    A    
C78   O10   A    
Cr3   O19   S    
Cr1   O21   S    
C1    C32   S    
C33   C37   S    
Cr8   O8    S    
Cr3   O23   S    
C2    C31   S    
C68   C84   S    
C111  H57   S    
C109  H53   S    
C3    C30   S    
C19   C23   S    
O54   H45   S    
C38   H18   S    
Cr3   O47   S    
C107  O57   D    
Cr7   O7    S    
C66   C82   S    
C94   C99   S    
C47   O35   A    
Cr1   O45   S    
O60   H48   S    
C74   O46   A    
C88   C91   T    
C28   C32   S    
C16   C20   S    
C100  H32   S    
Cr9   O13   S    
C3    O23   A    
C33   C34   S    
C6    C26   S    
C48   C87   S    
Cr3   O3    S    
C36   C43   S    
Cr4   O20   S    
C69   O37   A    
C99   H33   S    
C110  H50   S    
C35   C44   S    
C60   C68   T    
Cr8   O20   S    
C42   C50   S    
C83   O15   A    
C10   C70   S    
C95   C101  S    
C106  O55   D    
C22   C106  S    
Cr6   O18   S    
C100  H30   S    
C81   O13   A    
C112  H55   S    
C22   C26   S    
C101  H38   S    
C8    C28   S    
C71   O39   A    
C53   C76   S    
C106  O56   S    
Cr9   O33   S    
C98   H26   S    
C24   C108  S    
C4    O24   A    
C35   H23   S    
Cr12  O12   S    
C19   H9    S    
Cr5   O49   S    
Cr6   O30   S    
Cr9   O17   S    
C70   O2    A    
C20   C32   S    
C33   H21   S    
C115  H67   S    
O56   H46   S    
Cr1   O17   S    
C21   C25   S    
Cr11  O15   S    
C27   H15   S    
C56   C73   S    
C46   O34   A    
C108  O59   D    
C18   C22   S    
C59   C63   S    
C73   O45   A    
C51   C113  S    
C96   C103  S    
C24   C28   S    
C57   C65   T    
C76   O48   A    
C86   C89   T    
C44   C52   S    
Cr8   O32   S    
C5    C93   S    
C85   C90   T    
C28   H16   S    
C42   C78   S    
C74   O50   A    
Cr7   O19   S    
C32   C96   S    
C40   C51   S    
C7    C95   S    
C12   C24   S    
Cr7   O31   S    
C73   O49   A    
Cr10  O14   S    
C114  H61   S    
C13   C17   S    
C60   C64   S    
C47   C88   S    
C9    C69   S    
C98   H27   S    
C1    O25   A    
C45   C86   S    
C70   O38   A    
C82   O42   A    
Cr11  O19   S    
C30   C94   S    
C14   H6    S    
C99   C100  S    
C25   C29   S    
C71   O3    A    
C37   C50   S    
Cr7   O27   S    
C97   C98   S    
C4    O28   A    
C25   H13   S    
C26   C30   S    
Cr10  O34   S    
Cr12  O40   S    
C31   C95   S    
C5    H1    S    
C11   C23   S    
C108  O60   S    
C8    H4    S    
C7    H3    S    
C21   C105  S    
Cr2   O2    S    
C103  H44   S    
C49   C109  S    
C110  H49   S    
C12   C72   S    
Cr9   O9    S    
C17   C21   S    
C1    O21   A    
C72   O4    A    
C6    C10   S    
C17   H11   S    
C111  H58   S    
C54   C75   S    
C23   C107  S    
C40   C44   S    
Cr3   O43   S    
C2    O26   A    
C34   H22   S    
C77   O9    A    
C102  H36   S    
C113  H62   S    
Cr10  O38   S    
C112  H56   S    
C13   C93   S    
C104  H41   S    
C104  H40   S    
C65   C81   S    
Cr8   O52   S    
C26   H14   S    
C102  H37   S    
C89   C90   S    
C84   O44   A    
C76   O52   A    
C45   O33   A    
C48   O36   A    
C14   C94   S    
C13   H5    S    
Cr4   O4    S    
C81   O41   A    
C18   H12   S    
Cr12  O16   S    
C5    C25   S    
C93   C97   S    
