data_mof_unit_8553.cif
_audit_creation_date              2012-12-10T19:07:24-0500
_audit_creation_method            fapswitch 2.2
_symmetry_space_group_name_H-M    P1
_symmetry_Int_Tables_number       1
_space_group_crystal_system       triclinic
_cell_length_a                    13.066314
_cell_length_b                    13.690612
_cell_length_c                    18.953621
_cell_angle_alpha                 89.788912
_cell_angle_beta                  93.424751
_cell_angle_gamma                 86.940615
_cell_volume                      3379.57517803

loop_
_atom_site_label
_atom_site_type_symbol
_atom_type_description
_atom_site_fract_x
_atom_site_fract_y
_atom_site_fract_z
_atom_type_partial_charge
C1    C     C_R   0.482197 0.684687 0.498875 0.904850
C2    C     C_2   0.965257 0.538946 0.508778 -0.112195
C3    C     C_1   0.853732 0.525176 0.510604 0.115739
C4    C     C_1   0.145965 0.475862 0.490776 0.092404
C5    C     C_R   0.500231 0.499055 0.636040 0.862078
C6    C     C_R   0.500205 0.501301 0.364110 0.860529
C7    C     C_R   0.405245 0.514763 0.747513 -0.066002
C8    C     C_R   0.580417 0.569070 0.258229 -0.071565
C9    C     C_R   0.399855 0.552206 0.816216 -0.042180
C10   C     C_R   0.567290 0.611137 0.190469 -0.037579
C11   C     C_R   0.489693 0.580709 0.853414 -0.042015
C12   C     C_R   0.517910 0.315293 0.500409 0.899025
C13   C     C_R   0.478142 0.595831 0.147916 -0.040206
C14   C     C_R   0.585299 0.570777 0.822514 -0.041680
C15   C     C_R   0.399111 0.542259 0.173670 -0.044290
C16   C     C_R   0.590905 0.531755 0.754024 -0.062331
C17   C     C_R   0.409384 0.503649 0.243155 -0.059406
C18   C     C_R   0.499280 0.512278 0.713939 -0.183442
C19   C     C_R   0.498286 0.521288 0.286964 -0.177994
C20   C     C_R   0.485120 0.602364 0.071624 0.317076
C21   C     C_R   0.489573 0.593624 0.930074 0.314978
C22   C     C_R   0.318553 0.460516 0.716693 0.161238
C23   C     C_1   0.531200 0.213590 0.494712 -0.188344
C24   C     C_R   0.225490 0.509259 0.693352 -0.099303
C25   C     C_R   0.145523 0.455923 0.664026 -0.149997
C26   C     C_R   0.158141 0.354245 0.657930 -0.129031
C27   C     C_R   0.250499 0.305579 0.681299 -0.120090
C28   C     C_R   0.330643 0.358435 0.710491 -0.143600
C29   C     C_R   0.686424 0.558297 0.291014 0.164956
C30   C     C_R   0.735465 0.638601 0.320633 -0.109306
C31   C     C_R   0.839687 0.629037 0.342558 -0.141182
C32   C     C_R   0.895136 0.539915 0.334839 -0.118428
C33   C     C_R   0.845997 0.459324 0.306968 -0.131720
C34   C     C_1   0.469417 0.786784 0.498096 -0.192570
C35   C     C_R   0.741988 0.468313 0.285198 -0.120333
C36   C     C_1   0.303604 0.552666 0.850855 0.174688
C37   C     C_1   0.649913 0.662904 0.161570 0.172065
C38   C     C_R   0.680133 0.597461 0.863980 0.118149
C39   C     C_R   0.751131 0.524618 0.892116 -0.095179
C40   C     C_R   0.839108 0.550571 0.931728 -0.125953
C41   C     C_R   0.856413 0.649099 0.943953 -0.095181
C42   C     C_R   0.785650 0.721833 0.916724 -0.126717
C43   C     C_R   0.697609 0.696223 0.876991 -0.169828
C44   C     C_R   0.311637 0.517066 0.124482 0.117901
C45   C     C_2   0.541004 0.024344 0.481184 -0.030637
C46   C     C_R   0.308590 0.423269 0.094954 -0.119264
C47   C     C_R   0.226246 0.399918 0.048705 -0.128901
C48   C     C_R   0.146837 0.470007 0.031561 -0.087100
C49   C     C_R   0.149860 0.563699 0.060417 -0.114838
C50   C     C_R   0.232099 0.587378 0.106650 -0.149339
C51   C     C_R   0.692085 0.492527 0.731694 0.170681
C52   C     C_R   0.709443 0.390658 0.726538 -0.136919
C53   C     C_R   0.808436 0.350108 0.719192 -0.156424
C54   C     C_R   0.890735 0.410769 0.717824 -0.142727
C55   C     C_R   0.873729 0.512287 0.719964 -0.151488
C56   C     C_2   0.458127 0.976944 0.499520 -0.026914
C57   C     C_R   0.774359 0.553445 0.725450 -0.120629
C58   C     C_R   0.335791 0.431423 0.264707 0.162116
C59   C     C_R   0.371406 0.334569 0.280413 -0.147685
C60   C     C_R   0.301863 0.262612 0.290860 -0.133906
C61   C     C_R   0.196464 0.286359 0.284418 -0.128620
C62   C     C_R   0.160509 0.382785 0.269843 -0.164524
C63   C     C_R   0.229768 0.455598 0.261910 -0.109635
C64   C     C_R   0.361539 0.027102 0.522044 0.148359
C65   C     C_R   0.317647 0.996885 0.583954 -0.141871
C66   C     C_R   0.225176 0.041462 0.603960 -0.195942
C67   C     C_1   0.461590 0.873439 0.498111 -0.054051
C68   C     C_R   0.175693 0.116272 0.562390 -0.135415
C69   C     C_R   0.218831 0.146845 0.500946 -0.104890
C70   C     C_R   0.310233 0.101547 0.480125 -0.148409
C71   C     C_R   0.635305 0.975855 0.453792 0.148679
C72   C     C_R   0.672938 0.010400 0.390842 -0.150768
C73   C     C_R   0.763740 0.968951 0.365777 -0.164886
C74   C     C_R   0.817922 0.892833 0.403267 -0.136312
C75   C     C_R   0.780999 0.857591 0.465614 -0.133087
C76   C     C_R   0.691059 0.899741 0.491504 -0.147123
C77   C     C_R   0.999025 0.640040 0.520247 0.138400
C78   C     C_1   0.539259 0.127432 0.488401 -0.057135
C79   C     C_R   0.056817 0.686052 0.470640 -0.155190
C80   C     C_R   0.086317 0.781762 0.481545 -0.138770
C81   C     C_R   0.058044 0.832631 0.541693 -0.106261
C82   C     C_R   0.000206 0.787923 0.591056 -0.160412
C83   C     C_R   0.970124 0.692375 0.580169 -0.192243
C84   C     C_R   0.996983 0.362778 0.483494 0.158414
C85   C     C_R   0.014974 0.313223 0.420658 -0.191978
C86   C     C_R   0.976318 0.221138 0.407956 -0.167148
C87   C     C_R   0.919655 0.177422 0.458468 -0.098138
C88   C     C_R   0.901083 0.226044 0.521424 -0.143991
C89   C     C_2   0.034013 0.463031 0.494533 -0.116036
C90   C     C_R   0.939464 0.318180 0.533892 -0.167328
H1    H     H_    0.215354 0.588022 0.697457 0.124076
H2    H     H_    0.705361 0.406064 0.261756 0.115751
H3    H     H_    0.738008 0.448028 0.883502 0.130311
H4    H     H_    0.893664 0.494299 0.953127 0.120704
H5    H     H_    0.924464 0.669123 0.974682 0.119298
H6    H     H_    0.798985 0.798086 0.926464 0.129381
H7    H     H_    0.643178 0.753135 0.856226 0.128923
H8    H     H_    0.369829 0.368539 0.107888 0.129003
H9    H     H_    0.224004 0.327520 0.026125 0.127822
H10   H     H_    0.083223 0.451838 0.995691 0.119738
H11   H     H_    0.088531 0.617985 0.046960 0.122169
H12   H     H_    0.073970 0.493462 0.645773 0.133931
H13   H     H_    0.233745 0.660115 0.128814 0.128353
H14   H     H_    0.647024 0.342541 0.731432 0.109255
H15   H     H_    0.821851 0.271518 0.716874 0.124466
H16   H     H_    0.967639 0.378705 0.715605 0.133253
H17   H     H_    0.937928 0.558898 0.719648 0.126561
H18   H     H_    0.762455 0.632097 0.729159 0.119656
H19   H     H_    0.452800 0.314260 0.282379 0.104146
H20   H     H_    0.329629 0.187965 0.302120 0.120109
H21   H     H_    0.142680 0.230014 0.290673 0.117908
H22   H     H_    0.078849 0.401157 0.264294 0.122335
H23   H     H_    0.096346 0.312828 0.635612 0.118318
H24   H     H_    0.200737 0.529896 0.250577 0.118916
H25   H     H_    0.355087 0.938969 0.616752 0.130685
H26   H     H_    0.191788 0.017918 0.651654 0.132841
H27   H     H_    0.104207 0.150646 0.577990 0.137972
H28   H     H_    0.181697 0.205396 0.469112 0.154281
H29   H     H_    0.340644 0.124282 0.431146 0.126431
H30   H     H_    0.632026 0.069679 0.361249 0.126436
H31   H     H_    0.792438 0.996305 0.317505 0.133041
H32   H     H_    0.888806 0.861665 0.384166 0.129016
H33   H     H_    0.822374 0.798044 0.494182 0.158392
H34   H     H_    0.260047 0.226942 0.677143 0.143643
H35   H     H_    0.665854 0.873761 0.541272 0.132455
H36   H     H_    0.077990 0.648534 0.423076 0.117309
H37   H     H_    0.130527 0.816752 0.443094 0.135022
H38   H     H_    0.080088 0.906965 0.549691 0.143159
H39   H     H_    0.977604 0.827704 0.637358 0.129917
H40   H     H_    0.923707 0.659568 0.618162 0.124751
H41   H     H_    0.057695 0.346965 0.381413 0.131774
H42   H     H_    0.990293 0.183696 0.359009 0.122736
H43   H     H_    0.890140 0.106036 0.448862 0.145768
H44   H     H_    0.856901 0.192456 0.560550 0.132223
H45   H     H_    0.402162 0.319997 0.728412 0.110851
H46   H     H_    0.923878 0.355058 0.582629 0.133107
H47   H     H_    0.693799 0.708643 0.325032 0.133467
H48   H     H_    0.878024 0.690869 0.364614 0.128764
H49   H     H_    0.976199 0.533215 0.350387 0.120959
H50   H     H_    0.888780 0.390347 0.300901 0.127701
N1    N     N_R   0.550712 0.531746 0.971769 -0.169570
N2    N     N_R   0.422680 0.664292 0.030346 -0.168970
N3    N     N_R   0.548797 0.536208 0.041308 -0.169360
N4    N     N_R   0.425122 0.660162 0.960226 -0.166452
N5    N     N_1   0.234540 0.484780 0.488910 -0.081836
N6    N     N_1   0.765460 0.515220 0.511090 -0.081736
N7    N     N_1   0.226825 0.553029 0.878318 -0.205719
N8    N     N_1   0.715636 0.704001 0.138514 -0.207188
O1    O     O_R   0.402510 0.634760 0.495940 -0.605697
O2    O     O_R   0.597490 0.365240 0.504060 -0.603706
O3    O     O_R   0.572960 0.644530 0.503060 -0.611647
O4    O     O_R   0.427040 0.355470 0.496940 -0.599494
O5    O     O_R   0.414750 0.495120 0.598300 -0.592672
O6    O     O_R   0.585250 0.504880 0.401700 -0.599508
O7    O     O_R   0.585190 0.504900 0.605420 -0.603079
O8    O     O_R   0.414810 0.495100 0.394580 -0.600402
Zn1   Zn    Zn3+2 0.386190 0.493480 0.495250 0.988253
Zn2   Zn    Zn3+2 0.613810 0.506520 0.504750 0.983955

loop_
_geom_bond_atom_site_label_1
_geom_bond_atom_site_label_2
_ccdc_geom_bond_type
C66   C68   A    
C87   C88   A    
C45   C71   S    
C28   H45   S    
C41   C42   A    
C87   H43   S    
C16   C51   S    
C81   C82   A    
C41   H5    S    
C53   C54   A    
C75   H33   S    
C6    C19   S    
C12   C23   S    
C26   C27   A    
C29   C30   A    
C66   H26   S    
C10   C37   S    
C42   H6    S    
C8    C29   S    
O8    Zn1   S    
C15   C44   S    
O6    Zn2   S    
N1    N3    A    
C49   H11   S    
C30   C31   A    
C11   C14   A    
C25   H12   S    
C77   C83   A    
C33   H50   S    
C69   H28   S    
C47   H9    S    
C15   C17   A    
C73   C74   A    
C12   O4    A    
C39   H3    S    
C59   H19   S    
C54   C55   A    
C63   H24   S    
C52   H14   S    
C47   C48   A    
C45   C56   D    
C68   C69   A    
C9    C36   S    
C56   C64   S    
C1    O1    A    
C45   C78   S    
C51   C57   A    
C14   C16   A    
C64   C70   A    
C17   C58   S    
C35   H2    S    
C46   H8    S    
C50   H13   S    
C23   C78   T    
C30   H47   S    
C22   C28   A    
O7    Zn2   S    
C76   H35   S    
C65   H25   S    
C20   N3    A    
C69   C70   A    
C84   C90   A    
C44   C46   A    
C1    C34   S    
C77   C79   A    
C48   H10   S    
C8    C19   A    
C74   C75   A    
C54   H16   S    
C51   C52   A    
O3    Zn2   S    
C20   N2    A    
C24   C25   A    
C83   H40   S    
C39   C40   A    
C86   C87   A    
C72   C73   A    
C5    C18   S    
C25   C26   A    
C5    O7    A    
C11   C21   S    
C38   C43   A    
C55   H17   S    
C60   C61   A    
C82   H39   S    
C2    C89   D    
C75   C76   A    
C62   C63   A    
C12   O2    A    
C68   H27   S    
C14   C38   S    
C90   H46   S    
C36   N7    T    
C31   C32   A    
C70   H29   S    
C7    C18   A    
C72   H30   S    
C46   C47   A    
C84   C85   A    
C31   H48   S    
C9    C11   A    
C85   C86   A    
C6    O6    A    
C32   H49   S    
C16   C18   A    
C48   C49   A    
C74   H32   S    
C79   H36   S    
C88   C90   A    
C65   C66   A    
C73   H31   S    
C55   C57   A    
C81   H38   S    
C22   C24   A    
C84   C89   S    
C17   C19   A    
C7    C22   S    
C24   H1    S    
C71   C76   A    
C52   C53   A    
C4    C89   S    
C44   C50   A    
C58   C63   A    
C7    C9    A    
O4    Zn1   S    
C40   C41   A    
O2    Zn2   S    
C13   C20   S    
C43   H7    S    
C21   N4    A    
C40   H4    S    
C80   C81   A    
C10   C13   A    
C34   C67   T    
C27   H34   S    
N6    Zn2   S    
C80   H37   S    
C56   C67   S    
N5    Zn1   S    
C29   C35   A    
C32   C33   A    
C13   C15   A    
C2    C3    S    
C58   C59   A    
C26   H23   S    
C21   N1    A    
C71   C72   A    
C2    C77   S    
C64   C65   A    
C86   H42   S    
C38   C39   A    
C5    O5    A    
C4    N5    T    
C33   C35   A    
C1    O3    A    
N2    N4    A    
C37   N8    T    
O5    Zn1   S    
C61   C62   A    
C6    O8    A    
C60   H20   S    
C88   H44   S    
C79   C80   A    
C53   H15   S    
C59   C60   A    
C57   H18   S    
C62   H22   S    
C3    N6    T    
C8    C10   A    
C49   C50   A    
C42   C43   A    
C27   C28   A    
C82   C83   A    
O1    Zn1   S    
C85   H41   S    
C61   H21   S    
