data_mof_unit_29873.cif
_audit_creation_date              2012-12-11T16:24:17-0500
_audit_creation_method            fapswitch 2.2
_symmetry_space_group_name_H-M    P1
_symmetry_Int_Tables_number       1
_space_group_crystal_system       triclinic
_cell_length_a                    14.697794
_cell_length_b                    14.862432
_cell_length_c                    33.262556
_cell_angle_alpha                 96.230322
_cell_angle_beta                  95.599417
_cell_angle_gamma                 61.231827
_cell_volume                      6323.02459973

loop_
_atom_site_label
_atom_site_type_symbol
_atom_type_description
_atom_site_fract_x
_atom_site_fract_y
_atom_site_fract_z
_atom_type_partial_charge
C1    C     C_R   0.391635 0.699273 0.445937 0.610606
C2    C     C_1   0.331217 0.351665 0.227740 -0.017681
C3    C     C_3   0.449920 0.970530 0.184662 0.014310
C4    C     C_3   0.532698 0.967519 0.216872 -0.231156
C5    C     C_3   0.502086 0.073495 0.238157 -0.479832
C6    C     C_3   0.128565 0.582387 0.582141 0.024523
C7    C     C_3   0.113384 0.551945 0.537459 -0.263670
C8    C     C_3   0.999922 0.581393 0.526057 -0.476761
C9    C     C_3   0.283431 0.579006 0.681899 0.026693
C10   C     C_3   0.390061 0.513528 0.703245 -0.293667
C11   C     C_3   0.453514 0.570978 0.709950 -0.484552
C12   C     C_3   0.528513 0.119194 0.652848 0.022069
C13   C     C_1   0.338075 0.355091 0.264057 -0.013468
C14   C     C_3   0.589005 0.031067 0.622031 -0.275392
C15   C     C_3   0.706115 0.990594 0.629227 -0.495909
C16   C     C_3   0.520308 0.216144 0.938747 0.033716
C17   C     C_3   0.600341 0.232013 0.918421 -0.261426
C18   C     C_3   0.660083 0.270658 0.949180 -0.477231
C19   C     C_3   0.712822 0.214222 0.689851 -0.006568
C20   C     C_3   0.693474 0.264321 0.733076 -0.271730
C21   C     C_3   0.598103 0.267836 0.749056 -0.473441
C22   C     C_3   0.912085 0.510128 0.818063 -0.015388
C23   C     C_3   0.866446 0.627162 0.823284 -0.267290
C24   C     C_R   0.405935 0.385785 0.434096 0.532103
C25   C     C_3   0.946898 0.660851 0.817215 -0.488675
C26   C     C_3   0.805993 0.552662 0.717816 0.000843
C27   C     C_3   0.694011 0.627755 0.704403 -0.302723
C28   C     C_3   0.628981 0.684729 0.740881 -0.480877
C29   C     C_3   0.613037 0.725550 0.601728 0.018784
C30   C     C_3   0.689345 0.768163 0.611302 -0.300610
C31   C     C_3   0.803010 0.685666 0.610441 -0.490509
C32   C     C_3   0.147996 0.792973 0.799249 0.015968
C33   C     C_3   0.247476 0.688652 0.801396 -0.285525
C34   C     C_3   0.222865 0.602977 0.807762 -0.471473
C35   C     C_R   0.288792 0.297619 0.101743 0.052826
C36   C     C_R   0.764218 0.368568 0.411272 0.026914
C37   C     C_R   0.818641 0.417159 0.399440 0.193742
C38   C     C_R   0.850149 0.399560 0.359036 0.229760
C39   C     C_R   0.833895 0.327493 0.332296 0.000273
C40   C     C_R   0.794853 0.268590 0.346734 -0.159421
C41   C     C_R   0.761475 0.287049 0.385854 0.195953
C42   C     C_R   0.347372 0.355685 0.307256 -0.011109
C43   C     C_R   0.843195 0.317826 0.206477 0.362693
C44   C     C_R   0.845207 0.320566 0.288287 0.371287
C45   C     C_R   0.838355 0.397799 0.142718 0.231221
C46   C     C_R   0.702153 0.409198 0.447746 0.596945
C47   C     C_R   0.864939 0.383028 0.102309 -0.147708
C48   C     C_R   0.891759 0.207892 0.098368 0.217640
C49   C     C_R   0.869282 0.221204 0.139008 -0.088204
C50   C     C_R   0.848133 0.313471 0.162095 0.027208
C51   C     C_R   0.900017 0.286319 0.080938 -0.021057
C52   C     C_R   0.373844 0.753450 0.408618 0.067090
C53   C     C_R   0.438933 0.283408 0.325829 -0.131043
C54   C     C_R   0.273664 0.801103 0.389047 0.190797
C55   C     C_R   0.261343 0.832742 0.349189 0.233020
C56   C     C_R   0.350315 0.807973 0.328172 0.011619
C57   C     C_R   0.447249 0.769920 0.349265 -0.178497
C58   C     C_R   0.392159 0.703804 0.560684 0.564932
C59   C     C_R   0.459926 0.744293 0.389366 0.173711
C60   C     C_R   0.340353 0.822167 0.202435 0.375273
C61   C     C_R   0.345583 0.816850 0.283967 0.355644
C62   C     C_R   0.256783 0.826571 0.133240 0.214092
C63   C     C_R   0.237841 0.860112 0.093997 -0.124498
C64   C     C_R   0.452349 0.287323 0.367761 -0.140241
C65   C     C_R   0.380758 0.899186 0.104056 -0.129762
C66   C     C_R   0.399880 0.867656 0.143482 0.219164
C67   C     C_R   0.335061 0.834973 0.158818 0.081100
C68   C     C_R   0.296057 0.901341 0.080066 -0.056376
C69   C     C_R   0.360106 0.372369 0.582807 -0.065435
C70   C     C_R   0.405131 0.389697 0.548564 0.553975
C71   C     C_R   0.285129 0.455940 0.605973 0.237773
C72   C     C_R   0.271946 0.442134 0.645808 0.226698
C73   C     C_R   0.313568 0.341589 0.658759 0.001604
C74   C     C_R   0.376079 0.256668 0.632545 0.219640
C75   C     C_R   0.406361 0.295313 0.159621 0.231784
C76   C     C_R   0.399123 0.273290 0.595002 -0.184455
C77   C     C_R   0.304519 0.321032 0.782637 0.329486
C78   C     C_R   0.303441 0.327713 0.701296 0.387357
C79   C     C_R   0.218635 0.390525 0.847983 -0.191148
C80   C     C_R   0.210859 0.381831 0.888913 0.173161
C81   C     C_R   0.388786 0.241688 0.890585 0.269072
C82   C     C_R   0.700687 0.414358 0.562873 0.539197
C83   C     C_R   0.396389 0.252011 0.849916 0.244918
C84   C     C_R   0.307739 0.321369 0.827355 -0.052130
C85   C     C_R   0.292301 0.299561 0.909041 0.006149
C86   C     C_R   0.390291 0.271487 0.117968 0.241299
C87   C     C_R   0.757553 0.381698 0.602689 -0.071432
C88   C     C_R   0.795864 0.442833 0.625276 -0.126649
C89   C     C_R   0.833691 0.425734 0.665569 0.240533
C90   C     C_R   0.841359 0.339512 0.682963 0.050002
C91   C     C_R   0.804196 0.276795 0.660617 0.247770
C92   C     C_R   0.763926 0.297140 0.620468 -0.135379
C93   C     C_R   0.942830 0.203308 0.818719 -0.175488
C94   C     C_R   0.374714 0.364787 0.391929 0.003716
C95   C     C_R   0.954077 0.193200 0.860371 -0.196438
C96   C     C_R   0.873625 0.379171 0.873007 0.258960
C97   C     C_R   0.202904 0.352504 0.126510 0.179255
C98   C     C_R   0.868217 0.388721 0.830820 0.263055
C99   C     C_R   0.903054 0.300261 0.803812 0.001701
C100  C     C_1   0.892878 0.309192 0.760689 0.007445
C101  C     C_1   0.875701 0.320323 0.724848 0.044740
C102  C     C_R   0.923350 0.280356 0.887876 0.017943
C103  C     C_R   0.371265 0.765184 0.600041 0.001251
C104  C     C_R   0.285140 0.781097 0.620640 -0.178177
C105  C     C_R   0.272533 0.820987 0.661061 0.232659
C106  C     C_R   0.277366 0.431694 0.373003 0.243689
C107  C     C_R   0.347951 0.843782 0.681250 0.031552
C108  C     C_R   0.219923 0.374511 0.167575 -0.145399
C109  C     C_R   0.429609 0.836545 0.660116 -0.141194
C110  C     C_R   0.441501 0.798269 0.619332 0.252428
C111  C     C_R   0.393003 0.903800 0.830981 -0.162915
C112  C     C_R   0.376152 0.920084 0.872354 -0.132049
C113  C     C_R   0.217064 0.908459 0.858755 -0.130436
C114  C     C_R   0.235562 0.888034 0.817157 0.288322
C115  C     C_R   0.321496 0.890915 0.803333 0.042661
C116  C     C_1   0.336208 0.879385 0.760556 0.042960
C117  C     C_1   0.343877 0.866726 0.724408 0.048491
C118  C     C_R   0.265792 0.427742 0.330654 -0.025747
C119  C     C_R   0.319985 0.343477 0.184389 -0.033521
C120  C     C_R   0.286463 0.925394 0.886566 -0.027396
C121  C     C_R   0.961345 0.265195 0.045083 0.552409
C122  C     C_R   0.271973 0.259639 0.060126 0.603387
C123  C     C_R   0.259059 0.959517 0.043569 0.558175
C124  C     C_R   0.964316 0.266780 0.930487 0.564525
C125  C     C_R   0.271915 0.263578 0.945366 0.566831
C126  C     C_R   0.255591 0.967089 0.928366 0.544000
C127  C     C_3   0.787090 0.147715 0.418124 0.026751
C128  C     C_3   0.836997 0.051198 0.389173 -0.284912
C129  C     C_3   0.905592 0.955720 0.412253 -0.465195
Cr1   Cr    Cr6+3 0.576280 0.580550 0.506370 1.072384
Cr2   Cr    Cr6+3 0.346780 0.572400 0.496520 1.061667
Cr3   Cr    Cr6+3 0.576960 0.347070 0.497150 1.015225
Cr4   Cr    Cr6+3 0.087320 0.083240 0.984860 1.026939
Cr5   Cr    Cr6+3 0.087720 0.316210 0.996740 1.121795
Cr6   Cr    Cr6+3 0.317350 0.090340 0.995890 1.056304
H1    H     H_    0.864821 0.445829 0.088493 0.146641
H2    H     H_    0.992345 0.116503 0.871025 0.150419
H3    H     H_    0.675506 0.810021 0.641682 0.156228
H4    H     H_    0.825122 0.639176 0.637021 0.198657
H5    H     H_    0.853171 0.722946 0.611905 0.146910
H6    H     H_    0.817265 0.635329 0.582021 0.149589
H7    H     H_    0.094458 0.784642 0.774974 0.171484
H8    H     H_    0.105981 0.814084 0.827609 0.112310
H9    H     H_    0.287663 0.670350 0.772844 0.174111
H10   H     H_    0.301046 0.691853 0.826807 0.155661
H11   H     H_    0.186382 0.617936 0.837148 0.145072
H12   H     H_    0.295974 0.528686 0.808158 0.158903
H13   H     H_    0.968502 0.134930 0.798124 0.166682
H14   H     H_    0.169437 0.597552 0.782798 0.188599
H15   H     H_    0.143031 0.816143 0.663265 0.318937
H16   H     H_    0.199097 0.477203 0.421334 0.325424
H17   H     H_    0.053041 0.415715 0.132079 0.328536
H18   H     H_    0.903896 0.480172 0.421077 0.329836
H19   H     H_    0.735007 0.248477 0.603822 0.140737
H20   H     H_    0.792730 0.507143 0.611962 0.144165
H21   H     H_    0.526891 0.233568 0.380990 0.183753
H22   H     H_    0.430585 0.933949 0.892949 0.164701
H23   H     H_    0.460515 0.903773 0.820462 0.137699
H24   H     H_    0.484363 0.859957 0.675238 0.127872
H25   H     H_    0.229512 0.758460 0.605872 0.149988
H26   H     H_    0.145884 0.916572 0.869145 0.122148
H27   H     H_    0.782894 0.212202 0.326742 0.163538
H28   H     H_    0.154731 0.411837 0.187057 0.140025
H29   H     H_    0.193227 0.481482 0.316038 0.159015
H30   H     H_    0.538108 0.208655 0.107392 0.380559
H31   H     H_    0.744085 0.134164 0.440388 0.159042
H32   H     H_    0.848304 0.161247 0.436056 0.118911
H33   H     H_    0.775076 0.040021 0.371055 0.178476
H34   H     H_    0.885474 0.060684 0.368121 0.168313
H35   H     H_    0.969435 0.964374 0.429906 0.179698
H36   H     H_    0.940103 0.887260 0.390466 0.170297
H37   H     H_    0.858913 0.943162 0.433165 0.151171
H38   H     H_    0.871440 0.157320 0.152739 0.182393
H39   H     H_    0.865841 0.522331 0.359687 0.340472
H40   H     H_    0.804516 0.542350 0.145810 0.331213
H41   H     H_    0.882854 0.130316 0.049305 0.332103
H42   H     H_    0.138685 0.807059 0.388458 0.339382
H43   H     H_    0.608556 0.701744 0.391206 0.332440
H44   H     H_    0.505257 0.297710 0.203138 0.340973
H45   H     H_    0.113320 0.927292 0.351115 0.329893
H46   H     H_    0.146906 0.787526 0.125903 0.335115
H47   H     H_    0.374624 0.001782 0.199508 0.133239
H48   H     H_    0.441564 0.022383 0.161160 0.142251
H49   H     H_    0.174022 0.858802 0.075140 0.150989
H50   H     H_    0.543701 0.913434 0.239769 0.203365
H51   H     H_    0.607711 0.939180 0.202439 0.194647
H52   H     H_    0.492129 0.128361 0.215926 0.190041
H53   H     H_    0.564316 0.068258 0.261075 0.151877
H54   H     H_    0.428455 0.102492 0.253651 0.156805
H55   H     H_    0.083388 0.667446 0.587090 0.141827
H56   H     H_    0.095490 0.550356 0.601884 0.153257
H57   H     H_    0.139077 0.591183 0.518149 0.185802
H58   H     H_    0.161434 0.467469 0.531443 0.160764
H59   H     H_    0.974731 0.538247 0.543431 0.158576
H60   H     H_    0.515068 0.756341 0.334056 0.147599
H61   H     H_    0.991112 0.561620 0.493252 0.173140
H62   H     H_    0.949478 0.665350 0.532407 0.148441
H63   H     H_    0.078606 0.507830 0.892085 0.312927
H64   H     H_    0.238578 0.647563 0.702435 0.184574
H65   H     H_    0.293613 0.608730 0.654485 0.181454
H66   H     H_    0.378841 0.492895 0.732818 0.172934
H67   H     H_    0.435677 0.441673 0.684368 0.141545
H68   H     H_    0.469865 0.587204 0.680407 0.146709
H69   H     H_    0.528630 0.523039 0.726295 0.146874
H70   H     H_    0.411262 0.644713 0.728174 0.158774
H71   H     H_    0.428357 0.928190 0.093369 0.158040
H72   H     H_    0.548654 0.089139 0.683435 0.168918
H73   H     H_    0.554175 0.178571 0.653465 0.095834
H74   H     H_    0.567589 0.970277 0.624617 0.203174
H75   H     H_    0.566917 0.055446 0.590731 0.168302
H76   H     H_    0.726102 0.052335 0.625687 0.168313
H77   H     H_    0.748718 0.926897 0.606469 0.148943
H78   H     H_    0.732247 0.962080 0.659974 0.151615
H79   H     H_    0.560915 0.163943 0.963523 0.172477
H80   H     H_    0.461918 0.290447 0.953399 0.108873
H81   H     H_    0.656310 0.158007 0.903093 0.200587
H82   H     H_    0.450371 0.209037 0.575660 0.149027
H83   H     H_    0.560146 0.289200 0.895272 0.166555
H84   H     H_    0.605757 0.345335 0.964540 0.161278
H85   H     H_    0.716749 0.281893 0.933432 0.159897
H86   H     H_    0.703318 0.213736 0.972204 0.151942
H87   H     H_    0.502599 0.235716 0.816093 0.314191
H88   H     H_    0.713287 0.139454 0.689763 0.154134
H89   H     H_    0.647642 0.262780 0.668762 0.102711
H90   H     H_    0.761895 0.219460 0.753424 0.189243
H91   H     H_    0.680993 0.344265 0.733526 0.150636
H92   H     H_    0.529380 0.307232 0.728223 0.156761
H93   H     H_    0.501863 0.226469 0.307877 0.127668
H94   H     H_    0.582266 0.310879 0.779207 0.142744
H95   H     H_    0.611481 0.188618 0.752073 0.173018
H96   H     H_    0.953604 0.480105 0.789446 0.160404
H97   H     H_    0.970127 0.477119 0.843714 0.155268
H98   H     H_    0.800060 0.663560 0.801141 0.169541
H99   H     H_    0.836879 0.654927 0.854141 0.174482
H100  H     H_    0.011548 0.630295 0.840547 0.135523
H101  H     H_    0.910065 0.746154 0.820044 0.153272
H102  H     H_    0.978198 0.633147 0.786634 0.160330
H103  H     H_    0.794445 0.527615 0.885681 0.351882
H104  H     H_    0.152372 0.448380 0.831780 0.127396
H105  H     H_    0.842347 0.598804 0.732799 0.161200
H106  H     H_    0.804695 0.506309 0.741111 0.181750
H107  H     H_    0.694896 0.685156 0.686155 0.160110
H108  H     H_    0.656724 0.585944 0.686250 0.150297
H109  H     H_    0.634442 0.629831 0.762350 0.176620
H110  H     H_    0.546691 0.729350 0.730470 0.142064
H111  H     H_    0.654641 0.739058 0.756613 0.147238
H112  H     H_    0.633780 0.681146 0.572155 0.208904
H113  H     H_    0.622487 0.671542 0.624375 0.104381
H114  H     H_    0.675471 0.821455 0.587735 0.183260
N1    N     N_R   0.842973 0.397708 0.230519 -0.123114
N2    N     N_R   0.434400 0.783775 0.264418 -0.252360
N3    N     N_R   0.431880 0.786754 0.224511 -0.169628
N4    N     N_R   0.224926 0.398202 0.762835 -0.263921
N5    N     N_R   0.224566 0.401672 0.723058 -0.159894
N6    N     N_R   0.379555 0.247280 0.720721 -0.221062
N7    N     N_R   0.379622 0.243534 0.760476 -0.210190
N8    N     N_R   0.843088 0.399487 0.270536 -0.132467
N9    N     N_R   0.846326 0.240128 0.264287 -0.236123
N10   N     N_R   0.845967 0.238492 0.224237 -0.234714
N11   N     N_R   0.251599 0.854748 0.221827 -0.156478
N12   N     N_R   0.254252 0.851463 0.261716 -0.119756
O1    O     O_R   0.679450 0.499830 0.463150 -0.424400
O2    O     O_R   0.340240 0.172500 0.045430 -0.480191
O3    O     O_R   0.309670 0.000990 0.032050 -0.504987
O4    O     O_R   0.480650 0.664000 0.464630 -0.444762
O5    O     O_R   0.168330 0.982130 0.939200 -0.522485
O6    O     O_R   0.000140 0.178170 0.944610 -0.531381
O7    O     O_R   0.983010 0.336750 0.948660 -0.429188
O8    O     O_R   0.181800 0.312190 0.959860 -0.440771
O9    O     O_R   0.338500 0.175680 0.956950 -0.489554
O10   O     O_R   0.308050 0.003930 0.950020 -0.496397
O11   O     O_3   0.164130 0.163270 0.992500 -0.275605
O12   O     O_R   0.356040 0.477400 0.534170 -0.457030
O13   O     O_R   0.323930 0.675950 0.455370 -0.454238
O14   O     O_R   0.354700 0.475360 0.451930 -0.493036
O15   O     O_R   0.494470 0.320860 0.448390 -0.504860
O16   O     O_R   0.662580 0.357570 0.460050 -0.478283
O17   O     O_R   0.680900 0.502040 0.551870 -0.552050
O18   O     O_R   0.481990 0.666040 0.546870 -0.494884
O19   O     O_R   0.325370 0.678160 0.544080 -0.503897
O20   O     O_3   0.471745 0.222424 0.092336 -0.679935
O21   O     O_3   0.713961 0.233109 0.396743 -0.556896
O22   O     O_3   0.892991 0.453904 0.344683 -0.668196
O23   O     O_R   0.495910 0.323070 0.537100 -0.530563
O24   O     O_3   0.807027 0.492357 0.163938 -0.650236
O25   O     O_3   0.909967 0.115857 0.077637 -0.671858
O26   O     O_3   0.189921 0.812589 0.408828 -0.690159
O27   O     O_3   0.557274 0.703941 0.409113 -0.649333
O28   O     O_3   0.506538 0.268029 0.174961 -0.710484
O29   O     O_3   0.164161 0.886242 0.330279 -0.667725
O30   O     O_3   0.198082 0.788128 0.147547 -0.654867
O31   O     O_3   0.481758 0.869699 0.167079 -0.538580
O32   O     O_3   0.234550 0.553686 0.591942 -0.557112
O33   O     O_3   0.122543 0.449499 0.908976 -0.661573
O34   O     O_R   0.663920 0.359620 0.542290 -0.502982
O35   O     O_3   0.223488 0.526772 0.673117 -0.551230
O36   O     O_3   0.420170 0.157377 0.644616 -0.524934
O37   O     O_3   0.475188 0.167941 0.910824 -0.513683
O38   O     O_3   0.491437 0.192012 0.833320 -0.661324
O39   O     O_3   0.811475 0.192602 0.677784 -0.553426
O40   O     O_3   0.830342 0.484733 0.816325 -0.615358
O41   O     O_3   0.835328 0.464475 0.900354 -0.678672
O42   O     O_3   0.869136 0.490866 0.685559 -0.569636
O43   O     O_3   0.510791 0.808176 0.596998 -0.558610
O44   O     O_3   0.167444 0.872138 0.788948 -0.539531
O45   O     O_3   0.500010 0.500010 0.500010 -0.271458
O46   O     O_3   0.189206 0.834919 0.681852 -0.673327
O47   O     O_3   0.193263 0.502687 0.394398 -0.678717
O48   O     O_3   0.103482 0.378354 0.110717 -0.668702
O49   O     O_3   0.838872 0.481615 0.427613 -0.685097
O50   O     O_R   0.170070 0.978950 0.027680 -0.491537
O51   O     O_R   0.001760 0.175230 0.026640 -0.487129
O52   O     O_R   0.984760 0.333570 0.037150 -0.480789
O53   O     O_R   0.183410 0.309240 0.041890 -0.449132

loop_
_geom_bond_atom_site_label_1
_geom_bond_atom_site_label_2
_ccdc_geom_bond_type
C30   H3    S    
C96   C102  A    
C47   H1    S    
C19   C20   S    
C55   C56   A    
C49   H38   S    
C114  C115  A    
Cr5   O8    S    
H39   O22   S    
C118  H29   S    
C57   H60   S    
Cr2   O12   S    
C35   C86   A    
C57   C59   A    
C82   C87   S    
Cr3   O15   S    
C56   C57   A    
C4    H51   S    
C23   H99   S    
H15   O46   S    
Cr5   O53   S    
C32   H7    S    
C95   C102  A    
C75   O28   S    
C70   O12   A    
C106  C118  A    
C77   N7    A    
C13   C42   S    
C34   H14   S    
C45   C47   A    
C33   H9    S    
C21   H92   S    
C32   O44   S    
C122  O53   A    
C88   H20   S    
C112  C120  A    
C72   C73   A    
Cr1   O45   S    
C54   O26   S    
C124  O7    A    
H45   O29   S    
C16   H80   S    
C40   H27   S    
C37   C38   A    
C113  C120  A    
C75   C86   A    
C25   H102  S    
C76   H82   S    
C65   C68   A    
Cr6   O10   S    
C26   C27   S    
C10   H67   S    
Cr2   O19   S    
C38   O22   S    
C105  O46   S    
C106  O47   S    
Cr2   O45   S    
C51   C121  S    
C7    H57   S    
C27   H107  S    
C39   C40   A    
C61   N12   A    
C35   C122  S    
C19   H89   S    
C4    C5    S    
C6    C7    S    
C60   N11   A    
C5    H54   S    
C34   H11   S    
C45   C50   A    
C121  O51   A    
C21   H95   S    
C53   C64   A    
C11   H69   S    
C69   C70   S    
C3    H47   S    
C113  H26   S    
C88   C89   A    
C98   C99   A    
C22   C23   S    
C28   H109  S    
C5    H53   S    
C12   O36   S    
H87   O38   S    
C111  C112  A    
C15   H78   S    
C18   H85   S    
C128  C129  S    
C7    C8    S    
C105  C107  A    
C15   H77   S    
C74   C76   A    
C103  C110  A    
C78   N6    A    
C91   O39   S    
C36   C37   A    
C111  H23   S    
C42   C53   A    
C79   C84   A    
Cr5   O11   S    
C115  C116  S    
C16   O37   S    
C46   O16   A    
C20   H91   S    
C69   C76   A    
C71   O32   S    
Cr1   O18   S    
C18   H86   S    
Cr1   O4    S    
C60   C67   S    
C96   C98   A    
C6    H56   S    
C36   C46   S    
C9    C10   S    
Cr4   O51   S    
C66   C67   A    
Cr6   O3    S    
C93   C95   A    
C82   O17   A    
C96   O41   S    
C3    O31   S    
C68   C123  S    
C81   C83   A    
Cr4   O6    S    
C38   C39   A    
C95   H2    S    
C12   H72   S    
C129  H35   S    
C77   N4    A    
C41   O21   S    
C91   C92   A    
H42   O26   S    
C77   C84   S    
H43   O27   S    
C44   N9    A    
C31   H6    S    
C29   C30   S    
C83   C84   A    
C123  O3    A    
C17   C18   S    
C28   H111  S    
C20   C21   S    
C16   H79   S    
C2    C13   T    
C1    O13   A    
H63   O33   S    
C29   H113  S    
C3    C4    S    
C109  H24   S    
C24   O15   A    
C63   C68   A    
C14   H74   S    
Cr3   O45   S    
N11   N12   A    
C27   H108  S    
C9    H65   S    
C43   C50   S    
C39   C44   S    
C30   H114  S    
C125  O9    A    
N9    N10   A    
C71   C72   A    
C81   O37   S    
C100  C101  T    
C107  C117  S    
C10   C11   S    
C89   O42   S    
C29   O43   S    
C23   H98   S    
C26   H105  S    
C49   C50   A    
C14   C15   S    
C126  O5    A    
C123  O50   A    
C11   H70   S    
C31   H5    S    
C3    H48   S    
C81   C85   A    
C17   H83   S    
C9    H64   S    
C83   O38   S    
C87   C88   A    
C73   C74   A    
C129  H37   S    
C26   H106  S    
N2    N3    A    
C97   O48   S    
H16   O47   S    
C26   O42   S    
C37   O49   S    
C127  O21   S    
C82   O34   A    
C30   C31   S    
C120  C126  S    
C122  O2    A    
C45   O24   S    
C19   O39   S    
C93   H13   S    
C104  C105  A    
C54   C55   A    
C48   O25   S    
C22   H96   S    
C25   H101  S    
C16   C17   S    
C8    H59   S    
C17   H81   S    
C93   C99   A    
N1    N8    A    
C87   C92   A    
C107  C109  A    
C108  C119  A    
C36   C41   A    
C104  H25   S    
C102  C124  S    
H103  O41   S    
Cr5   O7    S    
C108  H28   S    
C112  H22   S    
H30   O20   S    
C126  O10   A    
C19   H88   S    
Cr2   O13   S    
C42   C118  A    
Cr4   O11   S    
C47   C51   A    
C4    H50   S    
C80   C85   A    
C34   H12   S    
C61   N2    A    
C21   H94   S    
C11   H68   S    
Cr5   O52   S    
Cr1   O1    S    
C48   C49   A    
Cr3   O23   S    
C58   O19   A    
C5    H52   S    
C127  C128  S    
H18   O49   S    
C113  C114  A    
C6    O32   S    
C63   H49   S    
H17   O48   S    
C64   C94   A    
C59   O27   S    
C124  O6    A    
Cr3   O34   S    
C114  O44   S    
C32   C33   S    
C10   H66   S    
C109  C110  A    
C90   C91   A    
N4    N5    A    
C127  H31   S    
Cr6   O11   S    
C8    H61   S    
C1    C52   S    
C103  C104  A    
C56   C61   S    
H46   O30   S    
C92   H19   S    
C89   C90   A    
Cr4   O50   S    
C55   O29   S    
Cr6   O2    S    
C110  O43   S    
C85   C125  S    
C79   H104  S    
C43   N10   A    
Cr4   O5    S    
Cr3   O16   S    
C62   C63   A    
C62   C67   A    
C12   H73   S    
C53   H93   S    
H40   O24   S    
C121  O52   A    
C116  C117  T    
C69   C71   A    
C98   O40   S    
C32   H8    S    
C15   H76   S    
C44   N8    A    
C97   C108  A    
C48   C51   A    
C73   C78   S    
C7    H58   S    
C66   O31   S    
C29   H112  S    
C8    H62   S    
C18   H84   S    
C52   C54   A    
C14   H75   S    
C78   N5    A    
C22   O40   S    
C75   C119  A    
C58   O18   A    
C65   H71   S    
Cr6   O9    S    
C20   H90   S    
C125  O8    A    
Cr1   O17   S    
C90   C101  S    
Cr2   O14   S    
C52   C59   A    
C24   C94   S    
C72   O35   S    
C99   C100  S    
C6    H55   S    
C33   C34   S    
C1    O4    A    
C33   H10   S    
C80   O33   S    
C40   C41   A    
C12   C14   S    
C31   H4    S    
N6    N7    A    
C60   N3    A    
C94   C106  A    
C129  H36   S    
C2    C119  S    
C46   O1    A    
C64   H21   S    
C62   O30   S    
C43   N1    A    
C70   O23   A    
C86   O20   S    
H44   O28   S    
C28   H110  S    
C23   C25   S    
C79   C80   A    
C128  H34   S    
C22   H97   S    
C25   H100  S    
C127  H32   S    
C65   C66   A    
C27   C28   S    
C128  H33   S    
C74   O36   S    
C111  C115  A    
C58   C103  S    
C35   C97   A    
H41   O25   S    
C9    O35   S    
C24   O14   A    
