data_mof_unit_34064.cif
_audit_creation_date              2012-12-11T14:44:13-0500
_audit_creation_method            fapswitch 2.2
_symmetry_space_group_name_H-M    P1
_symmetry_Int_Tables_number       1
_space_group_crystal_system       triclinic
_cell_length_a                    18.97013
_cell_length_b                    10.892816
_cell_length_c                    18.9058
_cell_angle_alpha                 90.033348
_cell_angle_beta                  89.705566
_cell_angle_gamma                 89.982445
_cell_volume                      3906.60683225

loop_
_atom_site_label
_atom_site_type_symbol
_atom_type_description
_atom_site_fract_x
_atom_site_fract_y
_atom_site_fract_z
_atom_type_partial_charge
C1    C     C_R   0.727740 0.371525 0.143498 0.550447
C2    C     C_R   0.970335 0.995220 0.043237 -0.133794
C3    C     C_R   0.992210 0.774504 0.039064 0.022274
C4    C     C_R   0.514397 0.054342 0.032764 -0.148164
C5    C     C_R   0.510609 0.057482 0.960323 -0.155432
C6    C     C_R   0.014367 0.554336 0.032774 -0.148086
C7    C     C_R   0.010582 0.557474 0.960333 -0.155550
C8    C     C_3   0.593503 0.745326 0.459483 -0.025138
C9    C     C_3   0.546562 0.687660 0.403578 -0.361510
C10   C     C_3   0.380604 0.722449 0.571802 -0.014992
C11   C     C_3   0.439245 0.694976 0.624060 -0.355593
C12   C     C_3   0.119280 0.222722 0.428215 -0.015074
C13   C     C_R   0.481486 0.502807 0.970707 -0.141076
C14   C     C_3   0.060710 0.195244 0.375871 -0.354606
C15   C     C_3   0.906479 0.245038 0.540380 -0.025171
C16   C     C_3   0.953478 0.187343 0.596204 -0.362336
C17   C     C_R   0.470298 0.495205 0.043234 -0.133401
C18   C     C_R   0.702723 0.857501 0.039339 -0.140788
C19   C     C_R   0.307706 0.878862 0.961863 -0.136821
C20   C     C_R   0.202735 0.357475 0.039345 -0.140869
C21   C     C_R   0.807715 0.378900 0.961870 -0.136758
C22   C     C_R   0.705110 0.841622 0.966373 -0.135865
C23   C     C_R   0.302398 0.866424 0.034925 -0.147966
C24   C     C_R   0.205122 0.341596 0.966378 -0.135600
C25   C     C_R   0.269733 0.376706 0.854205 0.551217
C26   C     C_R   0.802402 0.366452 0.034929 -0.148041
C27   C     C_R   0.750044 0.915411 0.924960 0.028928
C28   C     C_R   0.238727 0.894976 0.068728 0.032409
C29   C     C_R   0.250044 0.415402 0.924961 0.028798
C30   C     C_R   0.738721 0.394957 0.068726 0.032527
C31   C     C_R   0.788644 0.009837 0.956233 -0.122831
C32   C     C_R   0.179635 0.928873 0.028591 -0.126946
C33   C     C_R   0.288634 0.509845 0.956232 -0.123077
C34   C     C_R   0.679623 0.428806 0.028583 -0.126860
C35   C     C_R   0.787405 0.023747 0.028533 -0.114625
C36   C     C_R   0.227743 0.871533 0.143500 0.549938
C37   C     C_R   0.184498 0.938679 0.956368 -0.139212
C38   C     C_R   0.287394 0.523756 0.028532 -0.114334
C39   C     C_R   0.684492 0.438627 0.956361 -0.139182
C40   C     C_R   0.745866 0.945954 0.070813 0.036117
C41   C     C_R   0.249064 0.918976 0.922760 0.029311
C42   C     C_R   0.245868 0.445948 0.070816 0.036430
C43   C     C_R   0.749067 0.418976 0.922761 0.029405
C44   C     C_R   0.499838 0.053505 0.463262 -0.105038
C45   C     C_R   0.496486 0.053098 0.535572 -0.104321
C46   C     C_R   0.003159 0.553150 0.464255 -0.104057
C47   C     C_R   0.769733 0.876707 0.854205 0.551714
C48   C     C_R   0.999804 0.553424 0.536565 -0.105243
C49   C     C_R   0.492148 0.163705 0.573085 0.027566
C50   C     C_R   0.506604 0.164235 0.426390 0.026239
C51   C     C_R   0.993301 0.664120 0.573582 0.026276
C52   C     C_R   0.007759 0.663811 0.426888 0.027543
C53   C     C_R   0.531931 0.155023 0.146320 0.534500
C54   C     C_R   0.468728 0.156223 0.853276 0.541017
C55   C     C_R   0.031928 0.655024 0.146323 0.536034
C56   C     C_R   0.968726 0.656223 0.853278 0.539498
C57   C     C_R   0.496189 0.275882 0.536705 -0.141903
C58   C     C_R   0.493811 0.396605 0.931348 -0.087642
C59   C     C_R   0.504232 0.276115 0.463300 -0.142062
C60   C     C_R   0.995875 0.776064 0.536817 -0.142018
C61   C     C_R   0.003919 0.775934 0.463411 -0.141944
C62   C     C_R   0.814674 0.940945 0.458059 -0.193166
C63   C     C_R   0.184702 0.940820 0.542230 -0.189167
C64   C     C_R   0.315280 0.440850 0.457791 -0.189411
C65   C     C_R   0.685313 0.440928 0.541959 -0.192950
C66   C     C_R   0.820042 0.931493 0.530165 -0.153215
C67   C     C_R   0.179431 0.930713 0.470081 -0.162182
C68   C     C_R   0.320572 0.430579 0.529929 -0.161866
C69   C     C_R   0.475643 0.382346 0.077378 -0.091733
C70   C     C_R   0.679963 0.431624 0.469844 -0.153567
C71   C     C_R   0.761339 0.898731 0.571196 -0.001448
C72   C     C_R   0.238226 0.897227 0.429140 -0.011844
C73   C     C_R   0.261781 0.397134 0.570855 -0.011072
C74   C     C_R   0.738670 0.398827 0.428799 -0.002178
C75   C     C_R   0.697843 0.868104 0.538678 -0.130191
C76   C     C_R   0.301558 0.865905 0.461960 -0.117565
C77   C     C_R   0.198439 0.365964 0.538016 -0.117610
C78   C     C_R   0.802157 0.368049 0.461298 -0.130186
C79   C     C_R   0.691847 0.873983 0.464628 0.263156
C80   C     C_R   0.993829 0.896601 0.931352 -0.087588
C81   C     C_R   0.307258 0.874624 0.535343 0.252553
C82   C     C_R   0.192722 0.374797 0.464637 0.252397
C83   C     C_R   0.808137 0.373808 0.535352 0.263243
C84   C     C_R   0.750090 0.919753 0.425169 0.045484
C85   C     C_R   0.249326 0.919859 0.575107 0.035602
C86   C     C_R   0.250654 0.420003 0.424902 0.035308
C87   C     C_R   0.749894 0.419618 0.574836 0.045832
C88   C     C_R   0.740206 0.974518 0.145521 0.543304
C89   C     C_R   0.258537 0.968313 0.852185 0.543380
C90   C     C_R   0.240208 0.474511 0.145523 0.542842
C91   C     C_R   0.975662 0.882361 0.077382 -0.091741
C92   C     C_R   0.758538 0.468318 0.852187 0.543943
C93   C     C_R   0.727631 0.374281 0.354341 0.557855
C94   C     C_R   0.272613 0.373493 0.645415 0.550721
C95   C     C_R   0.227396 0.873564 0.354577 0.553270
C96   C     C_R   0.772378 0.874212 0.645651 0.555239
C97   C     C_R   0.532408 0.157180 0.353949 0.546011
C98   C     C_R   0.467311 0.157042 0.645870 0.547960
C99   C     C_R   0.032667 0.657098 0.354120 0.548554
C100  C     C_R   0.967569 0.657123 0.646041 0.545447
C101  C     C_R   0.741111 0.970089 0.354376 0.564949
C102  C     C_R   0.981522 0.002812 0.970710 -0.140995
C103  C     C_R   0.258776 0.970066 0.645726 0.560157
C104  C     C_R   0.241215 0.470149 0.354286 0.562289
C105  C     C_R   0.758882 0.470010 0.645634 0.562845
C106  C     C_R   0.498037 0.167669 0.924884 0.000766
C107  C     C_R   0.506394 0.161538 0.073241 0.003061
C108  C     C_R   0.998028 0.667664 0.924891 0.000492
C109  C     C_R   0.006382 0.661539 0.073248 0.003314
C110  C     C_R   0.494779 0.279681 0.964072 0.031704
C111  C     C_R   0.492208 0.274499 0.039059 0.022174
C112  C     C_R   0.994781 0.779679 0.964077 0.031666
Cr1   Cr    Cr6+3 0.772000 0.169640 0.250110 1.003274
Cr2   Cr    Cr6+3 0.383330 0.010620 0.749160 1.028758
Cr3   Cr    Cr6+3 0.116670 0.510620 0.250840 1.030811
Cr4   Cr    Cr6+3 0.883330 0.510620 0.749160 1.041399
Cr5   Cr    Cr6+3 0.228000 0.169640 0.749890 1.005636
Cr6   Cr    Cr6+3 0.272000 0.669640 0.250110 1.004827
Cr7   Cr    Cr6+3 0.728000 0.669640 0.749890 1.004106
Cr8   Cr    Cr6+3 0.614960 0.323350 0.249260 1.001926
Cr9   Cr    Cr6+3 0.385040 0.323350 0.750740 0.999017
Cr10  Cr    Cr6+3 0.114960 0.823350 0.249260 0.998961
Cr11  Cr    Cr6+3 0.885040 0.823350 0.750740 1.001836
Cr12  Cr    Cr6+3 0.616670 0.010620 0.250840 1.043650
H1    H     H_    0.525833 0.966335 0.056802 0.141293
H2    H     H_    0.128624 0.948788 0.446543 0.136320
H3    H     H_    0.371392 0.448518 0.553470 0.136696
H4    H     H_    0.629133 0.449945 0.446376 0.140554
H5    H     H_    0.653493 0.840278 0.571129 0.106288
H6    H     H_    0.346451 0.835274 0.430964 0.121312
H7    H     H_    0.153549 0.335379 0.568994 0.121183
H8    H     H_    0.846508 0.340186 0.428826 0.106387
H9    H     H_    0.505314 0.408581 0.875804 0.130881
H10   H     H_    0.465428 0.380379 0.133662 0.131841
H11   H     H_    0.005331 0.908568 0.875807 0.131162
H12   H     H_    0.514802 0.971098 0.932126 0.133953
H13   H     H_    0.965446 0.880403 0.133666 0.131795
H14   H     H_    0.980111 0.091275 0.944689 0.100468
H15   H     H_    0.958653 0.077364 0.073353 0.106174
H16   H     H_    0.480061 0.591270 0.944687 0.099734
H17   H     H_    0.458601 0.577342 0.073350 0.106771
H18   H     H_    0.668440 0.799869 0.071070 0.120581
H19   H     H_    0.358396 0.863568 0.936726 0.128734
H20   H     H_    0.168462 0.299830 0.071079 0.119502
H21   H     H_    0.858412 0.363647 0.936739 0.129147
H22   H     H_    0.675018 0.767528 0.943082 0.133879
H23   H     H_    0.025788 0.466326 0.056814 0.141101
H24   H     H_    0.347785 0.836362 0.064840 0.113768
H25   H     H_    0.175040 0.267488 0.943089 0.133936
H26   H     H_    0.847793 0.336425 0.064850 0.113695
H27   H     H_    0.823025 0.068600 0.925251 0.129130
H28   H     H_    0.128799 0.946982 0.052704 0.154068
H29   H     H_    0.323005 0.568620 0.925246 0.128246
H30   H     H_    0.628780 0.446871 0.052692 0.154242
H31   H     H_    0.818724 0.096854 0.051133 0.135391
H32   H     H_    0.138665 0.969205 0.927361 0.130476
H33   H     H_    0.318705 0.596876 0.051131 0.135365
H34   H     H_    0.014765 0.471085 0.932140 0.134163
H35   H     H_    0.638656 0.469122 0.927348 0.130493
H36   H     H_    0.500808 0.965573 0.436662 0.164862
H37   H     H_    0.493870 0.964797 0.561650 0.169698
H38   H     H_    0.005605 0.464877 0.438066 0.169212
H39   H     H_    0.998656 0.465451 0.563051 0.165255
H40   H     H_    0.492182 0.362414 0.564661 0.108866
H41   H     H_    0.509805 0.362712 0.435773 0.111011
H42   H     H_    0.990475 0.862645 0.564460 0.110934
H43   H     H_    0.008097 0.862493 0.435571 0.108937
H44   H     H_    0.559474 0.775603 0.504111 0.117016
H45   H     H_    0.860487 0.971726 0.428516 0.130412
H46   H     H_    0.630854 0.673647 0.478138 0.132556
H47   H     H_    0.579214 0.654318 0.358571 0.167750
H48   H     H_    0.517397 0.608831 0.426762 0.073462
H49   H     H_    0.507907 0.755989 0.383901 0.150487
H50   H     H_    0.395840 0.684505 0.519236 0.118647
H51   H     H_    0.331971 0.675412 0.591293 0.140594
H52   H     H_    0.424154 0.728652 0.677499 0.159920
H53   H     H_    0.448534 0.594433 0.626709 0.094314
H54   H     H_    0.488769 0.740887 0.607342 0.127867
H55   H     H_    0.103927 0.185014 0.480775 0.118450
H56   H     H_    0.138899 0.971896 0.571720 0.132676
H57   H     H_    0.167909 0.175448 0.408832 0.141172
H58   H     H_    0.075921 0.228660 0.322437 0.161430
H59   H     H_    0.051349 0.094721 0.373271 0.094651
H60   H     H_    0.011192 0.241387 0.392469 0.127690
H61   H     H_    0.940473 0.275337 0.495759 0.117054
H62   H     H_    0.869136 0.173382 0.521685 0.132532
H63   H     H_    0.920869 0.153983 0.641206 0.166592
H64   H     H_    0.982655 0.108525 0.572933 0.073519
H65   H     H_    0.992124 0.255667 0.615906 0.150258
H66   H     H_    0.361078 0.471904 0.428324 0.132855
H67   H     H_    0.639495 0.471734 0.571523 0.130249
H68   H     H_    0.870884 0.949695 0.553638 0.140902
O1    O     O_R   0.787540 0.042690 0.170470 -0.533680
O2    O     O_R   0.454130 0.051100 0.669160 -0.504902
O3    O     O_R   0.045870 0.551100 0.330840 -0.504247
O4    O     O_R   0.954130 0.551100 0.669160 -0.503578
O5    O     O_R   0.681340 0.959300 0.325510 -0.440076
O6    O     O_R   0.318660 0.959300 0.674490 -0.449543
O7    O     O_R   0.181340 0.459300 0.325510 -0.448232
O8    O     O_R   0.818660 0.459300 0.674490 -0.441484
O9    O     O_3   0.667880 0.167870 0.250070 -0.249288
O10   O     O_3   0.332120 0.167870 0.749930 -0.242723
O11   O     O_3   0.167880 0.667870 0.250070 -0.246709
O12   O     O_R   0.212460 0.042690 0.829530 -0.530189
O13   O     O_3   0.832120 0.667870 0.749930 -0.245244
O14   O     O_R   0.765660 0.292160 0.175050 -0.507249
O15   O     O_R   0.234340 0.292160 0.824950 -0.505974
O16   O     O_R   0.265660 0.792160 0.175050 -0.506788
O17   O     O_R   0.734340 0.792160 0.824950 -0.506413
O18   O     O_R   0.670190 0.408980 0.168550 -0.526864
O19   O     O_R   0.329810 0.408980 0.831450 -0.520852
O20   O     O_R   0.170190 0.908980 0.168550 -0.527877
O21   O     O_R   0.829810 0.908980 0.831450 -0.520053
O22   O     O_R   0.556580 0.251450 0.175160 -0.512705
O23   O     O_R   0.287540 0.542690 0.170470 -0.533305
O24   O     O_R   0.443420 0.251450 0.824840 -0.509971
O25   O     O_R   0.056580 0.751450 0.175160 -0.512097
O26   O     O_R   0.943420 0.751450 0.824840 -0.510596
O27   O     O_R   0.545920 0.049510 0.170320 -0.526757
O28   O     O_R   0.454080 0.049510 0.829680 -0.527009
O29   O     O_R   0.045920 0.549510 0.170320 -0.527382
O30   O     O_R   0.954080 0.549510 0.829680 -0.526410
O31   O     O_R   0.681390 0.957840 0.176710 -0.506752
O32   O     O_R   0.318610 0.957840 0.823290 -0.511849
O33   O     O_R   0.181390 0.457840 0.176710 -0.509153
O34   O     O_R   0.712460 0.542690 0.829530 -0.530692
O35   O     O_R   0.818610 0.457840 0.823290 -0.509518
O36   O     O_R   0.787500 0.044280 0.330990 -0.541088
O37   O     O_R   0.212500 0.044280 0.669010 -0.539542
O38   O     O_R   0.287500 0.544280 0.330990 -0.538240
O39   O     O_R   0.712500 0.544280 0.669010 -0.542369
O40   O     O_R   0.765610 0.293630 0.323860 -0.504134
O41   O     O_R   0.234390 0.293630 0.676140 -0.504053
O42   O     O_R   0.265610 0.793630 0.323860 -0.502553
O43   O     O_R   0.734390 0.793630 0.676140 -0.505594
O44   O     O_R   0.670140 0.410570 0.329080 -0.526963
O45   O     O_R   0.556540 0.252920 0.323970 -0.512194
O46   O     O_R   0.329860 0.410570 0.670920 -0.533614
O47   O     O_R   0.170140 0.910570 0.329080 -0.530838
O48   O     O_R   0.829860 0.910570 0.670920 -0.529773
O49   O     O_3   0.628763 0.847921 0.430191 -0.537800
O50   O     O_3   0.371275 0.850715 0.567094 -0.550905
O51   O     O_3   0.128699 0.350978 0.432871 -0.550805
O52   O     O_3   0.871201 0.347609 0.569787 -0.538018
O53   O     O_R   0.443460 0.252920 0.676030 -0.512584
O54   O     O_R   0.056540 0.752920 0.323970 -0.511743
O55   O     O_R   0.943460 0.752920 0.676030 -0.513029
O56   O     O_R   0.545870 0.051100 0.330840 -0.502868

loop_
_geom_bond_atom_site_label_1
_geom_bond_atom_site_label_2
_ccdc_geom_bond_type
C53   O27   A    
C5    H12   S    
C83   C87   A    
C21   C26   A    
C17   C69   A    
C69   H10   S    
C84   C101  S    
Cr10  O25   S    
C99   O3    A    
C58   C110  A    
C20   H20   S    
C90   O33   A    
C41   C89   S    
Cr6   O11   S    
C10   O50   S    
C72   C76   A    
C86   C104  S    
C89   O32   A    
C56   O26   A    
C14   H59   S    
C82   O51   S    
C55   O25   A    
C7    H34   S    
C54   O24   A    
C15   H61   S    
C98   O2    A    
C11   H52   S    
C53   O22   A    
C80   H11   S    
C4    H1    S    
C101  O36   A    
C50   C59   A    
C105  O39   A    
C3    C91   A    
C35   H31   S    
Cr9   O10   S    
C38   C42   A    
C52   C61   A    
C77   H7    S    
C79   C84   A    
Cr4   O8    S    
C33   H29   S    
C57   C59   A    
C55   O29   A    
Cr5   O41   S    
C2    C102  A    
C27   C47   S    
C65   C70   A    
C29   C33   A    
C10   H51   S    
C49   C57   A    
Cr11  O13   S    
C17   H17   S    
C67   C72   A    
C102  H14   S    
C101  O5    A    
C25   O19   A    
C18   C40   A    
C24   C29   A    
C56   C108  S    
C78   H8    S    
C8    H44   S    
C49   C98   S    
C91   H13   S    
C72   C95   S    
C76   H6    S    
C78   C83   A    
C94   O46   A    
C48   C51   A    
C65   H67   S    
C22   H22   S    
C92   O35   A    
C8    O49   S    
C8    C9    S    
Cr3   O11   S    
C70   C74   A    
Cr9   O19   S    
Cr2   O10   S    
C9    H49   S    
Cr6   O23   S    
Cr7   O13   S    
C95   O42   A    
Cr1   O9    S    
Cr5   O12   S    
Cr4   O13   S    
C59   H41   S    
Cr7   O39   S    
Cr8   O45   S    
Cr10  O54   S    
C12   O51   S    
C34   H30   S    
Cr12  O27   S    
C92   O34   A    
C93   O44   A    
C21   C43   A    
C63   C85   A    
Cr8   O18   S    
Cr8   O9    S    
C96   O48   A    
C74   C93   S    
C107  C111  A    
C73   C94   S    
C97   O56   A    
C45   H37   S    
C64   C86   A    
C90   O23   A    
C14   H58   S    
C8    H46   S    
C65   C87   A    
C63   C67   A    
C5    C106  A    
C100  O4    A    
C58   H9    S    
C25   C29   S    
C4    C107  A    
C46   C48   A    
Cr7   O17   S    
C75   H5    S    
C30   C34   A    
Cr4   O35   S    
C27   C31   A    
C34   C39   A    
C13   H16   S    
C20   C24   A    
C26   H26   S    
C62   C66   A    
C98   O53   A    
C24   H25   S    
C67   H2    S    
Cr2   O28   S    
C48   H39   S    
C54   C106  S    
C19   C23   A    
Cr1   O36   S    
C39   C43   A    
C71   C96   S    
C68   C73   A    
C82   C86   A    
Cr3   O7    S    
C83   O52   S    
C60   H42   S    
C63   H56   S    
C110  C111  A    
C66   H68   S    
C60   C61   A    
C42   C90   S    
C103  O6    A    
C21   H21   S    
C81   O50   S    
Cr12  O56   S    
Cr6   O16   S    
Cr9   O24   S    
C66   C71   A    
C31   H27   S    
C53   C107  S    
C14   H60   S    
C12   H57   S    
C87   C105  S    
Cr12  O31   S    
C28   C32   A    
C3    C112  A    
C32   H28   S    
C70   H4    S    
C80   C112  A    
Cr4   O30   S    
C45   C49   A    
C88   O31   A    
C19   C41   A    
C11   H54   S    
C95   O47   A    
C32   C37   A    
C99   O54   A    
C1    O14   A    
C68   H3    S    
C89   O12   A    
C36   O20   A    
C11   H53   S    
C93   O40   A    
Cr7   O43   S    
Cr11  O26   S    
C37   H32   S    
C26   C30   A    
Cr10  O47   S    
Cr6   O38   S    
C22   C27   A    
Cr11  O21   S    
C74   C78   A    
C44   H36   S    
C104  O7    A    
Cr10  O20   S    
C9    H47   S    
Cr10  O11   S    
C23   C28   A    
C2    H15   S    
Cr5   O10   S    
C64   C68   A    
C44   C45   A    
Cr1   O40   S    
Cr11  O48   S    
C106  C110  A    
C36   O16   A    
C44   C50   A    
C51   C100  S    
C62   H45   S    
C62   C84   A    
C15   O52   S    
C50   C97   S    
C19   H19   S    
Cr2   O2    S    
C39   H35   S    
C1    O18   A    
C18   C22   A    
Cr8   O22   S    
Cr1   O1    S    
C88   O1    A    
Cr3   O29   S    
Cr3   O33   S    
C43   C92   S    
C38   H33   S    
C12   C14   S    
C4    C5    A    
Cr5   O15   S    
C16   H63   S    
C85   C103  S    
C76   C81   A    
C20   C42   A    
C103  O37   A    
C94   O41   A    
C54   O28   A    
C6    C7    A    
C13   C58   A    
Cr9   O53   S    
Cr11  O55   S    
C97   O45   A    
C23   H24   S    
Cr12  O9    S    
C52   C99   S    
C33   C38   A    
C13   C17   A    
C15   H62   S    
Cr3   O3    S    
Cr2   O32   S    
Cr1   O14   S    
C40   C88   S    
C47   O17   A    
C35   C40   A    
Cr6   O42   S    
C100  O55   A    
Cr8   O44   S    
C46   C52   A    
C56   O30   A    
C6    H23   S    
C69   C111  A    
C57   H40   S    
C77   C82   A    
C3    C109  A    
Cr2   O6    S    
Cr12  O5    S    
Cr5   O37   S    
C1    C30   S    
C6    C109  A    
C96   O43   A    
Cr9   O46   S    
C47   O21   A    
C31   C35   A    
C79   O49   S    
C37   C41   A    
C2    C91   A    
C81   C85   A    
C105  O8    A    
C10   C11   S    
Cr4   O4    S    
C108  C112  A    
C12   H55   S    
C64   H66   S    
C28   C36   S    
C104  O38   A    
C46   H38   S    
C80   C102  A    
C10   H50   S    
C73   C77   A    
C7    C108  A    
C9    H48   S    
C51   C60   A    
C16   H64   S    
C61   H43   S    
C25   O15   A    
C75   C79   A    
C16   H65   S    
C55   C109  S    
C15   C16   S    
Cr7   O34   S    
C18   H18   S    
C71   C75   A    
