data_mof_unit_57452.cif
_audit_creation_date              2012-12-10T18:21:19-0500
_audit_creation_method            fapswitch 2.2
_symmetry_space_group_name_H-M    P1
_symmetry_Int_Tables_number       1
_space_group_crystal_system       triclinic
_cell_length_a                    9.481326
_cell_length_b                    10.671665
_cell_length_c                    17.395825
_cell_angle_alpha                 89.9134
_cell_angle_beta                  87.283506
_cell_angle_gamma                 90.229158
_cell_volume                      1758.14174866

loop_
_atom_site_label
_atom_site_type_symbol
_atom_type_description
_atom_site_fract_x
_atom_site_fract_y
_atom_site_fract_z
_atom_type_partial_charge
C1    C     C_R   0.500111 0.740090 0.500124 0.855151
C2    C     C_R   0.499822 0.259889 0.500421 0.854975
C3    C     C_3   0.364212 0.957544 0.504765 -0.300441
C4    C     C_3   0.635546 0.042348 0.496673 -0.303923
C5    C     C_3   0.432880 0.041190 0.441171 0.434332
C6    C     C_3   0.566805 0.958642 0.560284 0.432834
C7    C     C_3   0.500067 0.123370 0.501423 -0.135770
C8    C     C_3   0.499700 0.876568 0.499907 -0.136289
C9    C     C_3   0.433802 0.039964 0.565836 0.078415
C10   C     C_3   0.565914 0.960052 0.435564 0.078542
C11   C     C_3   0.954736 0.492447 0.430004 -0.198014
C12   C     C_3   0.045270 0.507570 0.569967 -0.199641
C13   C     C_3   0.050979 0.398747 0.469418 0.096861
C14   C     C_3   0.949114 0.601263 0.530494 0.102956
C15   C     C_3   0.053186 0.592205 0.461604 0.509760
C16   C     C_3   0.946871 0.407720 0.538341 0.508198
C17   C     C_R   0.482858 0.501689 0.649597 0.845087
C18   C     C_R   0.517099 0.498709 0.350462 0.845413
C19   C     C_R   0.480463 0.513441 0.733903 -0.127348
C20   C     C_R   0.519140 0.487814 0.266272 -0.125867
C21   C     C_R   0.577192 0.598825 0.764865 0.350295
C22   C     C_R   0.424819 0.400753 0.235297 0.327719
C23   C     C_R   0.601350 0.597294 0.844657 0.094979
C24   C     C_R   0.394103 0.406471 0.156737 0.092809
C25   C     C_R   0.524367 0.511236 0.891827 0.056862
C26   C     C_R   0.472067 0.490570 0.108656 0.066893
C27   C     C_R   0.420784 0.434656 0.861471 -0.208466
C28   C     C_R   0.577437 0.566208 0.138411 -0.213429
C29   C     C_R   0.395704 0.435523 0.783241 0.065615
C30   C     C_R   0.602563 0.566430 0.216741 0.067469
C31   C     C_2   0.551313 0.499188 0.973686 -0.212557
C32   C     C_2   0.445022 0.501100 0.026665 -0.194730
Cu1   Cu    Cu3+1 0.356850 0.500010 0.499980 0.987704
Cu2   Cu    Cu3+1 0.643150 0.499990 0.500020 0.985784
H1    H     H_    0.913509 0.487434 0.371599 0.157254
H2    H     H_    0.086500 0.512761 0.628347 0.157068
H3    H     H_    0.337059 0.509219 0.009128 0.153840
H4    H     H_    0.659852 0.492745 0.990722 0.165860
H5    H     H_    0.361357 0.370314 0.899038 0.159407
H6    H     H_    0.637054 0.629919 0.100523 0.154473
H7    H     H_    0.253411 0.924162 0.505524 0.181154
H8    H     H_    0.746347 0.075675 0.495962 0.180991
N1    N     N_3   0.141720 0.500030 0.499940 -0.207858
N2    N     N_3   0.858280 0.499970 0.500060 -0.207998
O1    O     O_R   0.379130 0.683150 0.499960 -0.543003
O2    O     O_R   0.620870 0.316850 0.500040 -0.542611
O3    O     O_R   0.620910 0.683140 0.500000 -0.607816
O4    O     O_R   0.379090 0.316860 0.500000 -0.607161
O5    O     O_R   0.365090 0.500030 0.613580 -0.609641
O6    O     O_R   0.634910 0.499970 0.386420 -0.609990
O7    O     O_R   0.606870 0.500020 0.613610 -0.529994
O8    O     O_R   0.393130 0.499980 0.386390 -0.527495
O9    O     O_3   0.641248 0.684959 0.715000 -0.719476
H9    H     H_    0.726273 0.721114 0.736883 0.340447
O10   O     O_3   0.365331 0.310563 0.283691 -0.725714
H10   H     H_    0.352887 0.232574 0.254022 0.345807
O11   O     O_3   0.115105 0.692264 0.420280 -0.720246
H11   H     H_    0.035757 0.736834 0.397321 0.287722
O12   O     O_3   0.885040 0.307645 0.579680 -0.720756
H12   H     H_    0.964581 0.262384 0.601972 0.288031
C33   C     C_3   0.716330 0.653871 0.243616 -0.405737
C34   C     C_3   0.863063 0.606765 0.218105 -0.817978
H13   H     H_    0.944747 0.666533 0.243643 0.238750
H14   H     H_    0.877276 0.508538 0.237324 0.251895
H15   H     H_    0.878239 0.610869 0.154452 0.243580
H16   H     H_    0.700884 0.748649 0.218912 0.201265
H17   H     H_    0.712338 0.665745 0.306605 0.207998
C35   C     C_3   0.280925 0.349118 0.756313 -0.404440
C36   C     C_3   0.134815 0.398155 0.781475 -0.818764
H18   H     H_    0.122441 0.496567 0.762195 0.251827
H19   H     H_    0.052293 0.339495 0.755810 0.239990
H20   H     H_    0.119129 0.394367 0.845113 0.245803
H21   H     H_    0.285136 0.336396 0.693399 0.208374
H22   H     H_    0.294734 0.254325 0.781337 0.201184
C37   C     C_3   0.276869 0.326045 0.125391 -0.410375
C38   C     C_3   0.336656 0.211653 0.082693 -0.844730
H23   H     H_    0.248604 0.153792 0.061964 0.240527
H24   H     H_    0.405202 0.240696 0.032239 0.261538
H25   H     H_    0.399215 0.153576 0.121591 0.246495
H26   H     H_    0.200690 0.294451 0.171942 0.213060
H27   H     H_    0.211508 0.381451 0.086658 0.191406
C39   C     C_3   0.703874 0.688787 0.879918 -0.417023
C40   C     C_3   0.855534 0.640641 0.872011 -0.863557
H28   H     H_    0.864811 0.550397 0.903187 0.250938
H29   H     H_    0.889289 0.626069 0.810733 0.251193
H30   H     H_    0.927860 0.709858 0.897160 0.245484
H31   H     H_    0.696170 0.783379 0.853849 0.203431
H32   H     H_    0.676487 0.704980 0.941840 0.205739
O13   O     O_3   0.361918 0.087336 0.378662 -0.731103
H33   H     H_    0.325282 0.012416 0.352414 0.318860
O14   O     O_3   0.637229 0.912089 0.622932 -0.715712
H34   H     H_    0.674459 0.986811 0.649129 0.320987
C41   C     C_3   0.360981 0.088548 0.639821 -0.421356
C42   C     C_3   0.315623 0.982099 0.694257 -0.778335
H35   H     H_    0.247187 0.914665 0.664961 0.254915
H36   H     H_    0.409149 0.931988 0.714661 0.287012
H37   H     H_    0.255387 0.020827 0.745023 0.223200
H38   H     H_    0.435217 0.151364 0.668952 0.188006
H39   H     H_    0.266421 0.142761 0.624734 0.197460
C43   C     C_3   0.638511 0.912002 0.361398 -0.417670
C44   C     C_3   0.683212 0.018812 0.307077 -0.787567
H40   H     H_    0.589369 0.068360 0.286602 0.277629
H41   H     H_    0.750983 0.086650 0.336488 0.256685
H42   H     H_    0.743914 0.980536 0.256336 0.224595
H43   H     H_    0.733324 0.857925 0.376228 0.197810
H44   H     H_    0.564191 0.849245 0.332296 0.186865
C45   C     C_3   0.109242 0.277198 0.434879 -0.283925
C46   C     C_3   0.000280 0.209634 0.388329 -0.869028
H45   H     H_    0.979050 0.263920 0.335622 0.246621
H46   H     H_    0.040612 0.115821 0.370935 0.258261
H47   H     H_    0.900484 0.197949 0.423333 0.265522
H48   H     H_    0.201883 0.299422 0.396476 0.304563
H49   H     H_    0.141532 0.214563 0.481908 0.206198
C47   C     C_3   0.891425 0.723607 0.564063 -0.295074
C48   C     C_3   0.999101 0.789849 0.612137 -0.882423
H50   H     H_    0.016722 0.735441 0.665286 0.242489
H51   H     H_    0.100663 0.800012 0.578551 0.269724
H52   H     H_    0.959627 0.884254 0.628821 0.259227
H53   H     H_    0.861961 0.786467 0.516517 0.206321
H54   H     H_    0.796921 0.702561 0.601062 0.296892

loop_
_geom_bond_atom_site_label_1
_geom_bond_atom_site_label_2
_ccdc_geom_bond_type
C25   C31   S    
O10   H10   S    
C26   C32   S    
C41   C42   S    
C23   C39   S    
C27   C29   A    
C1    C8    S    
Cu1   O1    S    
C45   H48   S    
C2    C7    S    
C38   H25   S    
C13   C45   S    
C17   O7    A    
C6    C9    S    
C47   C48   S    
C18   O8    A    
C20   C30   A    
O9    H9    S    
C2    O2    A    
Cu1   O8    S    
Cu2   O7    S    
C44   H40   S    
C19   C21   A    
C38   H24   S    
C12   N1    S    
C36   H18   S    
C28   H6    S    
Cu1   O5    S    
C39   H31   S    
C46   H45   S    
C36   H19   S    
C45   H49   S    
C34   H14   S    
C11   C15   S    
C33   H16   S    
C12   C16   S    
C27   H5    S    
C35   C36   S    
C48   H51   S    
C45   C46   S    
Cu2   O2    S    
C12   H2    S    
C37   H26   S    
C41   H39   S    
C47   H53   S    
O12   H12   S    
C44   H41   S    
C15   O11   S    
C42   H35   S    
C4    C7    S    
Cu2   O6    S    
Cu1   N1    S    
Cu2   N2    S    
C38   H23   S    
C4    C6    S    
C3    C8    S    
C17   O5    A    
O14   H34   S    
C5    C7    S    
C37   H27   S    
C6    C8    S    
C42   H37   S    
C2    O4    A    
C35   H21   S    
C14   C47   S    
C16   O12   S    
C36   H20   S    
C42   H36   S    
C37   C38   S    
C34   H13   S    
C3    C9    S    
C29   C35   S    
C33   H17   S    
C40   H28   S    
C48   H52   S    
Cu1   Cu2   S    
C43   H43   S    
C11   N2    S    
C32   H3    S    
C10   C43   S    
C40   H29   S    
C12   C14   S    
C44   H42   S    
C21   C23   A    
C22   C24   A    
C30   C33   S    
C20   C22   A    
C4    C10   S    
C19   C29   A    
C9    C41   S    
C13   N1    S    
C18   O6    A    
C14   N2    S    
C7    C9    S    
C16   N2    S    
C3    H7    S    
C34   H15   S    
C26   C28   A    
C31   C32   D    
C1    O3    A    
C24   C26   A    
C3    C5    S    
C46   H47   S    
C24   C37   S    
C22   O10   S    
C25   C27   A    
C43   H44   S    
C31   H4    S    
C11   H1    S    
C15   N1    S    
C5    C10   S    
C21   O9    S    
C11   C13   S    
C1    O1    A    
O11   H11   S    
C4    H8    S    
C39   H32   S    
C28   C30   A    
C43   C44   S    
C17   C19   S    
C46   H46   S    
C18   C20   S    
C23   C25   A    
C33   C34   S    
C5    O13   S    
C40   H30   S    
C8    C10   S    
C39   C40   S    
C13   C16   S    
Cu1   O4    S    
C14   C15   S    
Cu2   O3    S    
C48   H50   S    
O13   H33   S    
C35   H22   S    
C41   H38   S    
C47   H54   S    
C6    O14   S    
