data_mof_unit_10338.cif
_audit_creation_date              2012-12-10T21:42:28-0500
_audit_creation_method            fapswitch 2.2
_symmetry_space_group_name_H-M    P1
_symmetry_Int_Tables_number       1
_space_group_crystal_system       triclinic
_cell_length_a                    11.088752
_cell_length_b                    16.165088
_cell_length_c                    16.859985
_cell_angle_alpha                 88.872625
_cell_angle_beta                  94.823572
_cell_angle_gamma                 94.46041
_cell_volume                      3002.07661219

loop_
_atom_site_label
_atom_site_type_symbol
_atom_type_description
_atom_site_fract_x
_atom_site_fract_y
_atom_site_fract_z
_atom_type_partial_charge
C1    C     C_R   0.492775 0.489631 0.653252 0.996968
C2    C     C_R   0.507226 0.510369 0.346748 0.996969
C3    C     C_R   0.127318 0.498457 0.502570 -0.061808
C4    C     C_R   0.872682 0.501542 0.497432 -0.061808
C5    C     C_R   0.052348 0.423846 0.491611 0.040719
C6    C     C_R   0.947652 0.576154 0.508391 0.040720
C7    C     C_R   0.489973 0.486112 0.740954 -0.146143
C8    C     C_R   0.510033 0.513888 0.259047 -0.146147
C9    C     C_R   0.472432 0.559843 0.781170 0.271575
C10   C     C_R   0.527582 0.440158 0.218832 0.271576
C11   C     C_R   0.510665 0.567825 0.861962 -0.185918
C12   C     C_R   0.489358 0.432175 0.138038 -0.185920
C13   C     C_R   0.547998 0.497726 0.905242 0.242395
C14   C     C_R   0.452023 0.502272 0.094757 0.242393
C15   C     C_R   0.558412 0.422920 0.867332 0.311125
C16   C     C_R   0.441601 0.577077 0.132666 0.311130
C17   C     C_R   0.522175 0.414811 0.786118 -0.203875
C18   C     C_R   0.477831 0.585188 0.213881 -0.203877
C19   C     C_R   0.454608 0.759803 0.449948 0.493254
C20   C     C_R   0.545391 0.240197 0.550052 0.493253
C21   C     C_R   0.472497 0.847683 0.443425 -0.211110
C22   C     C_R   0.527502 0.152317 0.556574 -0.211109
C23   C     C_R   0.740388 0.501025 0.499138 0.952196
C24   C     C_R   0.259612 0.498975 0.500863 0.952197
C25   C     C_R   0.531672 0.892860 0.508543 0.200996
C26   C     C_R   0.468327 0.107140 0.491456 0.200999
C27   C     C_R   0.578797 0.848212 0.575290 -0.180827
C28   C     C_R   0.421202 0.151788 0.424710 -0.180827
C29   C     C_R   0.573581 0.759946 0.573598 -0.017423
C30   C     C_R   0.426419 0.240054 0.426401 -0.017423
C31   C     C_R   0.848484 0.790711 0.455140 -0.148202
C32   C     C_R   0.151515 0.209288 0.544859 -0.148201
C33   C     C_R   0.863841 0.705277 0.449768 0.303059
C34   C     C_R   0.136159 0.294722 0.550232 0.303054
C35   C     C_R   0.900172 0.659154 0.517899 -0.090666
C36   C     C_R   0.099828 0.340846 0.482102 -0.090668
C37   C     C_R   0.921696 0.698201 0.592233 0.422730
C38   C     C_R   0.078303 0.301800 0.407767 0.422743
C39   C     C_R   0.912396 0.784389 0.598293 -0.155976
C40   C     C_R   0.087604 0.215612 0.401707 -0.155972
C41   C     C_R   0.877665 0.831539 0.529099 -0.198313
C42   C     C_R   0.122334 0.168461 0.470900 -0.198314
C43   C     C_R   0.073909 0.574515 0.511785 -0.052015
C44   C     C_R   0.926091 0.425484 0.488218 -0.052012
N1    N     N_2   0.551615 0.496970 0.988692 -0.066324
N2    N     N_2   0.448408 0.503027 0.011307 -0.066324
N3    N     N_R   0.515300 0.716920 0.509720 -0.121304
N4    N     N_R   0.484700 0.283080 0.490280 -0.121303
N5    N     N_2   0.547827 0.982202 0.507966 -0.137139
N6    N     N_2   0.452172 0.017798 0.492034 -0.137139
O1    O     O_R   0.494530 0.422540 0.612660 -0.574515
O2    O     O_R   0.505470 0.577460 0.387340 -0.574514
O3    O     O_R   0.504350 0.561840 0.618900 -0.555541
O4    O     O_R   0.495650 0.438160 0.381100 -0.555543
O5    O     O_R   0.678330 0.430350 0.496870 -0.585508
O6    O     O_R   0.321670 0.569650 0.503130 -0.585510
O7    O     O_R   0.688150 0.569660 0.503110 -0.577003
O8    O     O_R   0.311850 0.430340 0.496890 -0.577003
Zn1   Zn    Zn3+2 0.493440 0.406980 0.495830 1.115117
Zn2   Zn    Zn3+2 0.506560 0.593020 0.504170 1.115118
C45   C     C_2   0.882403 0.923916 0.532256 0.568514
H1    H     H_    0.820221 0.958787 0.494650 0.160720
O9    O     O_2   0.958379 0.962923 0.576357 -0.559529
C46   C     C_2   0.117596 0.076085 0.467742 0.568513
H2    H     H_    0.179778 0.041213 0.505347 0.160720
O10   O     O_2   0.041620 0.037078 0.423641 -0.559529
C47   C     C_2   0.506518 0.329907 0.753561 0.650565
H3    H     H_    0.572496 0.285335 0.770727 0.153597
O11   O     O_2   0.415640 0.306979 0.711468 -0.507727
C48   C     C_2   0.493479 0.670092 0.246438 0.650566
H4    H     H_    0.427496 0.714661 0.229271 0.153595
O12   O     O_2   0.584354 0.693024 0.288532 -0.507727
Cl1   Cl    Cl    0.657748 0.294454 0.613009 -0.568973
Cl2   Cl    Cl    0.342250 0.705546 0.386992 -0.568969
C49   C     C_2   0.558034 0.107847 0.632865 0.656632
H5    H     H_    0.510396 0.048366 0.644852 0.109077
O13   O     O_2   0.634072 0.136320 0.683588 -0.480525
C50   C     C_2   0.441964 0.892152 0.367134 0.656636
H6    H     H_    0.489602 0.951633 0.355147 0.109078
O14   O     O_2   0.365926 0.863679 0.316412 -0.480524
C51   C     C_2   0.634455 0.893779 0.646906 0.333649
H7    H     H_    0.621655 0.869563 0.706177 0.094151
O15   O     O_2   0.696780 0.958753 0.640660 -0.544687
C52   C     C_2   0.365544 0.106222 0.353093 0.333651
H8    H     H_    0.378341 0.130439 0.293823 0.094149
O16   O     O_2   0.303220 0.041247 0.359339 -0.544688
C53   C     C_2   0.629940 0.715293 0.642682 0.480684
H9    H     H_    0.621029 0.734599 0.702873 0.056788
O17   O     O_2   0.690463 0.657312 0.633725 -0.534882
C54   C     C_2   0.370063 0.284708 0.357317 0.480679
H10   H     H_    0.378979 0.265404 0.297126 0.056795
O18   O     O_2   0.309536 0.342687 0.366273 -0.534883
C55   C     C_2   0.812367 0.836780 0.380830 0.550182
H11   H     H_    0.850024 0.823066 0.325661 0.158718
O19   O     O_2   0.736324 0.887495 0.379300 -0.613083
C56   C     C_2   0.187632 0.163219 0.619169 0.550181
H12   H     H_    0.149974 0.176932 0.674338 0.158719
O20   O     O_2   0.263674 0.112503 0.620698 -0.613084
Cl3   Cl    Cl    0.844751 0.655432 0.356325 -0.514680
Cl4   Cl    Cl    0.155247 0.344566 0.643676 -0.514678
Cl5   Cl    Cl    0.959445 0.636339 0.677758 -0.402589
Cl6   Cl    Cl    0.040553 0.363663 0.322244 -0.402585
C57   C     C_2   0.937169 0.825060 0.677063 0.598430
H13   H     H_    0.885042 0.875574 0.692153 0.103927
O21   O     O_2   0.018736 0.804708 0.724899 -0.439651
C58   C     C_2   0.062832 0.174942 0.322936 0.598432
H14   H     H_    0.114958 0.124428 0.307846 0.103925
O22   O     O_2   0.981265 0.195295 0.275099 -0.439652
C59   C     C_2   0.146682 0.655479 0.525561 0.524327
H15   H     H_    0.137345 0.705701 0.482375 0.090256
O23   O     O_2   0.209639 0.668036 0.587687 -0.441398
C60   C     C_2   0.853319 0.344520 0.474447 0.524321
H16   H     H_    0.862657 0.294301 0.517635 0.090264
O24   O     O_2   0.790364 0.331958 0.412320 -0.441401
Cl7   Cl    Cl    0.609477 0.360613 0.266641 -0.511852
Cl8   Cl    Cl    0.390536 0.639388 0.733365 -0.511852
C61   C     C_2   0.484959 0.350126 0.099096 0.587594
H17   H     H_    0.544134 0.303082 0.121317 0.139649
O25   O     O_2   0.411006 0.332931 0.042910 -0.484648
C62   C     C_2   0.515074 0.649874 0.900905 0.587598
H18   H     H_    0.455909 0.696924 0.878682 0.139641
O26   O     O_2   0.589024 0.667064 0.957094 -0.484649
Cl9   Cl    Cl    0.611721 0.338009 0.924252 -0.493769
Cl10  Cl    Cl    0.388293 0.661988 0.075743 -0.493769

loop_
_geom_bond_atom_site_label_1
_geom_bond_atom_site_label_2
_ccdc_geom_bond_type
C18   C48   S    
C13   N1    S    
C53   H9    S    
C55   H11   S    
O5    Zn1   S    
C28   C52   S    
C41   C45   S    
C24   O6    A    
C30   C54   S    
C60   O24   D    
C51   H7    S    
C39   C41   A    
N1    N2    D    
C3    C43   A    
C15   Cl9   S    
C29   N3    A    
C30   N4    A    
C35   C37   A    
C52   O16   D    
C26   N6    S    
C50   O14   D    
C27   C29   A    
C58   H14   S    
C5    C36   S    
C6    C35   S    
C23   O7    A    
C45   O9    D    
C1    O3    A    
O2    Zn2   S    
C59   O23   D    
N3    Zn2   S    
C7    C17   A    
C56   O20   D    
C21   C50   S    
C34   Cl4   S    
C31   C33   A    
C48   H4    S    
C9    C11   A    
C40   C42   A    
C55   O19   D    
C38   C40   A    
C3    C24   S    
C22   C49   S    
C11   C62   S    
C10   C12   A    
C60   H16   S    
C51   O15   D    
O3    Zn2   S    
C62   O26   D    
O4    Zn1   S    
C37   C39   A    
C17   C47   S    
C47   H3    S    
C27   C51   S    
C52   H8    S    
C4    C6    A    
C2    O4    A    
C4    C23   S    
C50   H6    S    
O7    Zn2   S    
C4    C44   A    
O8    Zn1   S    
C31   C55   S    
C8    C18   A    
O6    Zn2   S    
C14   N2    S    
C46   O10   D    
C33   Cl3   S    
C49   H5    S    
C49   O13   D    
C54   O18   D    
C56   H12   S    
C57   O21   D    
C16   C18   A    
C23   O5    A    
C1    O1    A    
C20   N4    A    
C2    O2    A    
C44   C60   S    
C8    C10   A    
C32   C56   S    
C5    C44   A    
C12   C14   A    
C6    C43   A    
C13   C15   A    
C14   C16   A    
O1    Zn1   S    
C36   C38   A    
C42   C46   S    
C62   H18   S    
N4    Zn1   S    
C40   C58   S    
C15   C17   A    
C21   C25   A    
C31   C41   A    
C19   C21   A    
C1    C7    S    
C9    Cl8   S    
C19   Cl2   S    
C2    C8    S    
C20   C22   A    
C3    C5    A    
C39   C57   S    
C25   C27   A    
C26   C28   A    
C46   H2    S    
C61   O25   D    
C16   Cl10  S    
C38   Cl6   S    
C61   H17   S    
C37   Cl5   S    
C11   C13   A    
C54   H10   S    
C58   O22   D    
C28   C30   A    
C33   C35   A    
C20   Cl1   S    
C34   C36   A    
C45   H1    S    
C25   N5    S    
C29   C53   S    
C12   C61   S    
C7    C9    A    
C24   O8    A    
N5    N6    D    
C22   C26   A    
C19   N3    A    
C57   H13   S    
C53   O17   D    
C32   C42   A    
C48   O12   D    
C43   C59   S    
C47   O11   D    
C59   H15   S    
C10   Cl7   S    
C32   C34   A    
