data_mof_unit_34151.cif
_audit_creation_date              2012-12-10T19:46:52-0500
_audit_creation_method            fapswitch 2.2
_symmetry_space_group_name_H-M    P1
_symmetry_Int_Tables_number       1
_space_group_crystal_system       triclinic
_cell_length_a                    10.905216
_cell_length_b                    10.906039
_cell_length_c                    13.115518
_cell_angle_alpha                 90.531692
_cell_angle_beta                  90.308349
_cell_angle_gamma                 90.155159
_cell_volume                      1559.76842834

loop_
_atom_site_label
_atom_site_type_symbol
_atom_type_description
_atom_site_fract_x
_atom_site_fract_y
_atom_site_fract_z
_atom_type_partial_charge
C1    C     C_R   0.492699 0.259600 0.499225 0.826895
C2    C     C_R   0.507301 0.740400 0.500775 0.826889
C3    C     C_R   0.872933 0.492626 0.501498 -0.103194
C4    C     C_R   0.127067 0.507380 0.498502 -0.103195
C5    C     C_R   0.940405 0.462367 0.589942 0.031834
C6    C     C_R   0.059594 0.537639 0.410057 0.031840
C7    C     C_R   0.293151 0.221280 0.201601 -0.207796
C8    C     C_R   0.706838 0.778724 0.798408 -0.207788
C9    C     C_R   0.327156 0.173601 0.296175 -0.060009
C10   C     C_R   0.672838 0.826401 0.703833 -0.059957
C11   C     C_R   0.440564 0.114416 0.307870 0.065166
C12   C     C_R   0.559430 0.885584 0.692131 0.065176
C13   C     C_R   0.518708 0.102682 0.223520 -0.199054
C14   C     C_R   0.481280 0.897317 0.776477 -0.199087
C15   C     C_R   0.484466 0.150927 0.129128 0.705187
C16   C     C_R   0.515517 0.849074 0.870872 0.705190
C17   C     C_R   0.371668 0.210074 0.118202 -0.176652
C18   C     C_R   0.628315 0.789930 0.881804 -0.176649
C19   C     C_R   0.485082 0.932454 0.410062 -0.195609
C20   C     C_R   0.514921 0.067546 0.589938 -0.195586
C21   C     C_R   0.508228 0.873039 0.502142 -0.133691
C22   C     C_R   0.491773 0.126961 0.497859 -0.133689
C23   C     C_R   0.259631 0.506643 0.499528 0.826507
C24   C     C_R   0.740369 0.493359 0.500472 0.826513
C25   C     C_R   0.525435 0.941152 0.593256 0.026342
C26   C     C_R   0.474565 0.058848 0.406744 0.026335
C27   C     C_1   0.500059 0.500078 0.173562 0.156255
C28   C     C_1   0.499941 0.499922 0.826438 0.156249
C29   C     C_1   0.500042 0.500056 0.050683 -0.056781
C30   C     C_1   0.499957 0.499944 0.949317 -0.056786
C31   C     C_R   0.230917 0.735913 0.221852 0.665802
C32   C     C_R   0.769110 0.264045 0.778125 0.665795
C33   C     C_R   0.180401 0.693755 0.312991 -0.212114
C34   C     C_R   0.819629 0.306219 0.686992 -0.212138
C35   C     C_R   0.116750 0.581545 0.314720 0.052713
C36   C     C_R   0.883249 0.418445 0.685273 0.052712
C37   C     C_R   0.103386 0.513111 0.224091 -0.159159
C38   C     C_R   0.896579 0.486881 0.775902 -0.159132
C39   C     C_R   0.155478 0.554713 0.133562 -0.263849
C40   C     C_R   0.844484 0.445263 0.866425 -0.263854
C41   C     C_R   0.219112 0.666046 0.132419 -0.164408
C42   C     C_R   0.780882 0.333913 0.867559 -0.164402
C43   C     C_R   0.932890 0.528522 0.412580 -0.237566
C44   C     C_R   0.067109 0.471486 0.587420 -0.237560
Cu1   Cu    Cu3+1 0.499990 0.499990 0.592680 0.982740
Cu2   Cu    Cu3+1 0.500010 0.500010 0.407320 0.982745
H1    H     H_    0.258651 0.698432 0.062059 0.197864
H2    H     H_    0.741342 0.301513 0.937914 0.197874
H3    H     H_    0.605909 0.056230 0.231068 0.150428
H4    H     H_    0.394079 0.943768 0.768926 0.150430
H5    H     H_    0.471759 0.879864 0.340366 0.219461
H6    H     H_    0.528246 0.120137 0.659635 0.219444
H7    H     H_    0.189905 0.748616 0.381871 0.133738
H8    H     H_    0.810151 0.251359 0.618111 0.133746
H9    H     H_    0.052903 0.427473 0.223799 0.140182
H10   H     H_    0.947037 0.572532 0.776201 0.140175
H11   H     H_    0.145874 0.500989 0.064158 0.164743
H12   H     H_    0.854061 0.498987 0.935830 0.164742
H13   H     H_    0.880599 0.553218 0.345251 0.164412
H14   H     H_    0.119400 0.446789 0.654749 0.164413
H15   H     H_    0.344936 0.247120 0.045121 0.156787
H16   H     H_    0.655043 0.752886 0.954886 0.156789
H17   H     H_    0.205527 0.266067 0.192708 0.154179
H18   H     H_    0.794462 0.733939 0.807306 0.154167
H19   H     H_    0.265046 0.181992 0.360024 0.122095
H20   H     H_    0.734952 0.818010 0.639986 0.122092
N1    N     N_1   0.500030 0.500030 0.268070 -0.137352
N2    N     N_1   0.499970 0.499970 0.731930 -0.137353
O1    O     O_R   0.499980 0.319630 0.578260 -0.577737
O2    O     O_R   0.500020 0.680370 0.421740 -0.577730
O3    O     O_R   0.500000 0.319650 0.421740 -0.577775
O4    O     O_R   0.500000 0.680350 0.578260 -0.577781
O5    O     O_R   0.319630 0.500000 0.578260 -0.585162
O6    O     O_R   0.680370 0.500000 0.421740 -0.585164
O7    O     O_R   0.319650 0.500020 0.421740 -0.572724
O8    O     O_R   0.680350 0.499980 0.578260 -0.572721
F1    F     F_    0.560369 0.139731 0.048042 -0.649679
F2    F     F_    0.439608 0.860270 0.951954 -0.649659
F3    F     F_    0.289957 0.845336 0.219739 -0.673043
F4    F     F_    0.710103 0.154605 0.780230 -0.673059

loop_
_geom_bond_atom_site_label_1
_geom_bond_atom_site_label_2
_ccdc_geom_bond_type
C27   C29   S    
C39   C41   A    
C15   F1    S    
Cu1   Cu2   S    
C3    C43   A    
C1    O3    A    
Cu1   O8    S    
C28   N2    T    
C23   O5    A    
C20   C25   A    
C39   H11   S    
C5    C36   S    
C6    C35   S    
Cu1   O5    S    
C19   C26   A    
C17   H15   S    
C7    C17   A    
C31   C33   A    
C16   F2    S    
C43   H13   S    
C40   C42   A    
C1    C22   S    
Cu1   O4    S    
C3    C24   S    
C2    C21   S    
C2    O4    A    
C15   C17   A    
Cu2   O7    S    
C10   H20   S    
C33   H7    S    
C40   H12   S    
Cu1   O1    S    
C4    C6    A    
C23   O7    A    
C4    C23   S    
C24   O8    A    
C4    C44   A    
C11   C26   S    
C1    O1    A    
C32   C34   A    
C29   C30   T    
C32   F4    S    
Cu1   N2    S    
C8    C18   A    
C41   H1    S    
C16   C18   A    
C42   H2    S    
C9    C11   A    
C7    H17   S    
Cu2   O3    S    
C10   C12   A    
C8    H18   S    
C13   H3    S    
C8    C10   A    
C5    C44   A    
C20   C22   A    
C34   H8    S    
C6    C43   A    
C13   C15   A    
C14   C16   A    
Cu2   O6    S    
C35   C37   A    
C7    C9    A    
C21   C25   A    
C31   C41   A    
C19   C21   A    
C18   H16   S    
C12   C14   A    
C3    C5    A    
C31   F3    S    
C12   C25   S    
C36   C38   A    
Cu2   N1    S    
C37   C39   A    
C38   C40   A    
C11   C13   A    
C24   O6    A    
C14   H4    S    
C44   H14   S    
C28   C30   S    
C33   C35   A    
C34   C36   A    
C9    H19   S    
Cu2   O2    S    
C27   N1    T    
C37   H9    S    
C19   H5    S    
C38   H10   S    
C20   H6    S    
C22   C26   A    
C32   C42   A    
C2    O2    A    
