data_mof_unit_24884.cif
_audit_creation_date              2012-12-10T16:48:38-0500
_audit_creation_method            fapswitch 2.2
_symmetry_space_group_name_H-M    P1
_symmetry_Int_Tables_number       1
_space_group_crystal_system       triclinic
_cell_length_a                    7.945622
_cell_length_b                    8.566293
_cell_length_c                    10.65841
_cell_angle_alpha                 91.31861
_cell_angle_beta                  98.661792
_cell_angle_gamma                 92.328439
_cell_volume                      716.281592793

loop_
_atom_site_label
_atom_site_type_symbol
_atom_type_description
_atom_site_fract_x
_atom_site_fract_y
_atom_site_fract_z
_atom_type_partial_charge
C1    C     C_R   0.543856 0.793678 0.500000 0.960926
C2    C     C_2   0.432837 0.043006 0.503136 -0.387039
C3    C     C_3   0.247423 0.596583 0.064323 -0.411725
C4    C     C_3   0.324475 0.756449 0.037988 -0.856188
C5    C     C_3   0.785817 0.472544 0.942380 -0.408057
C6    C     C_3   0.866654 0.313741 0.955288 -0.878384
C7    C     C_3   0.976986 0.345542 0.372404 -0.139536
C8    C     C_3   0.931605 0.178880 0.405738 -0.860391
C9    C     C_3   0.013915 0.679802 0.598848 -0.145194
C10   C     C_3   0.141960 0.724152 0.716277 -0.895045
C11   C     C_R   0.456818 0.206206 0.503335 0.952077
C12   C     C_R   0.570332 0.487104 0.736173 0.849492
C13   C     C_R   0.427916 0.502623 0.264062 0.878278
C14   C     C_2   0.605249 0.455204 0.871541 0.015788
C15   C     C_2   0.383930 0.493204 0.127226 -0.001944
C16   C     C_2   0.470921 0.409535 0.927453 -0.165744
C17   C     C_2   0.480906 0.404491 0.063890 -0.218178
C18   C     C_2   0.568259 0.956694 0.507743 -0.406374
H1    H     H_    0.581323 0.337605 0.114978 0.167078
H2    H     H_    0.787118 0.229719 0.001388 0.258176
H3    H     H_    0.881552 0.265490 0.860128 0.269039
H4    H     H_    0.994079 0.326478 0.014452 0.237544
H5    H     H_    0.864871 0.550574 0.890464 0.202699
H6    H     H_    0.787690 0.528478 0.037713 0.214897
H7    H     H_    0.948530 0.165987 0.510309 0.262323
H8    H     H_    0.799438 0.145777 0.361364 0.258867
H9    H     H_    0.015601 0.096413 0.365841 0.213074
H10   H     H_    0.903067 0.372659 0.279088 0.151168
H11   H     H_    0.108133 0.347245 0.359164 0.228794
H12   H     H_    0.344644 0.390910 0.872706 0.164127
H13   H     H_    0.164409 0.620727 0.775617 0.268942
H14   H     H_    0.263450 0.772960 0.692563 0.292490
H15   H     H_    0.089009 0.815720 0.772593 0.212452
H16   H     H_    0.003221 0.779310 0.533467 0.168178
H17   H     H_    0.895898 0.659887 0.636956 0.229718
H18   H     H_    0.697814 0.005012 0.518621 0.177772
H19   H     H_    0.303055 0.994147 0.496015 0.181202
H20   H     H_    0.392669 0.812550 0.127364 0.253459
H21   H     H_    0.414916 0.744662 0.968708 0.268003
H22   H     H_    0.221556 0.833070 0.998209 0.244885
H23   H     H_    0.179105 0.540890 0.975652 0.206842
H24   H     H_    0.149199 0.613588 0.126854 0.214372
N1    N     N_2   0.940600 0.458860 0.467170 -0.031229
N2    N     N_2   0.059400 0.541140 0.532830 -0.020639
O1    O     O_R   0.391630 0.738350 0.508060 -0.606261
O2    O     O_R   0.608370 0.261650 0.491940 -0.602384
O3    O     O_R   0.674540 0.711990 0.487010 -0.657005
O4    O     O_R   0.325460 0.288010 0.512990 -0.632811
O5    O     O_R   0.411370 0.508250 0.688780 -0.619691
O6    O     O_R   0.588630 0.491750 0.311220 -0.616969
O7    O     O_R   0.694270 0.481880 0.667740 -0.628137
O8    O     O_R   0.305730 0.518120 0.332260 -0.653615
Zn1   Zn    Zn3+2 0.311100 0.517600 0.514050 0.919795
Zn2   Zn    Zn3+2 0.688900 0.482400 0.485950 0.920085

loop_
_geom_bond_atom_site_label_1
_geom_bond_atom_site_label_2
_ccdc_geom_bond_type
N1    N2    D    
C3    H24   S    
C15   C17   D    
C7    H11   S    
C7    N1    S    
C2    C18   D    
C13   O8    A    
C6    H2    S    
C9    C10   S    
N1    Zn2   S    
C5    H5    S    
C4    H21   S    
O7    Zn2   S    
O2    Zn2   S    
C12   O5    A    
C11   O4    A    
O1    Zn1   S    
C7    C8    S    
C8    H7    S    
C2    H19   S    
C1    O1    A    
C5    C14   S    
O6    Zn2   S    
C5    H6    S    
O3    Zn2   S    
O5    Zn1   S    
C2    C11   S    
N2    Zn1   S    
C17   H1    S    
C12   C14   S    
C9    H16   S    
C11   O2    A    
C10   H15   S    
C13   C15   S    
O4    Zn1   S    
C14   C16   D    
C16   H12   S    
C13   O6    A    
C6    H4    S    
C10   H14   S    
C12   O7    A    
C8    H8    S    
O8    Zn1   S    
C9    H17   S    
C4    H22   S    
C5    C6    S    
C8    H9    S    
C1    C18   S    
C1    O3    A    
C3    C15   S    
C6    H3    S    
C18   H18   S    
C10   H13   S    
C3    H23   S    
C7    H10   S    
C3    C4    S    
C4    H20   S    
C16   C17   S    
C9    N2    S    
