data_mof_unit_19363.cif
_audit_creation_date              2012-12-11T16:07:32-0500
_audit_creation_method            fapswitch 2.2
_symmetry_space_group_name_H-M    P1
_symmetry_Int_Tables_number       1
_space_group_crystal_system       triclinic
_cell_length_a                    6.926129
_cell_length_b                    14.378271
_cell_length_c                    15.899677
_cell_angle_alpha                 90.239504
_cell_angle_beta                  90.046152
_cell_angle_gamma                 90.028423
_cell_volume                      1583.36686896

loop_
_atom_site_label
_atom_site_type_symbol
_atom_type_description
_atom_site_fract_x
_atom_site_fract_y
_atom_site_fract_z
_atom_type_partial_charge
O1    O     O_R   0.494320 0.415010 0.412140 -0.539252
O2    O     O_R   0.824010 0.404260 0.587250 -0.542925
O3    O     O_R   0.994320 0.584990 0.587860 -0.535648
C1    C     C_R   0.654796 0.381842 0.616414 0.655771
O4    O     O_R   0.824040 0.403870 0.412760 -0.543328
O5    O     O_R   0.994350 0.584590 0.412130 -0.540659
C2    C     C_R   0.655193 0.381523 0.383453 0.665842
O6    O     O_R   0.494300 0.415410 0.587870 -0.540325
O7    O     O_3   0.660800 0.559290 0.500000 -0.364556
V1    V     V_3+5 0.935650 0.489000 0.500000 1.371572
O8    O     O_R   0.324060 0.595740 0.412750 -0.542808
C3    C     C_R   0.154826 0.618032 0.383409 0.652025
O9    O     O_R   0.324040 0.596130 0.587240 -0.541184
C4    C     C_R   0.155290 0.618437 0.616321 0.678817
V2    V     V_3+5 0.435660 0.511000 0.500000 1.375360
O10   O     O_3   0.160640 0.440710 0.500000 -0.368220
C5    C     C_3   0.055103 0.668396 0.773600 -0.141990
C6    C     C_3   0.229327 0.716959 0.816521 -0.140904
H1    H     H_    0.308410 0.690580 0.872290 0.098414
H2    H     H_    0.990721 0.601123 0.793085 0.095402
C7    C     C_3   0.121449 0.810395 0.811857 -0.006147
C8    C     C_3   0.947035 0.762630 0.769727 -0.114234
C9    C     C_3   0.037079 0.781850 0.682310 -0.143185
C10   C     C_3   0.211302 0.830410 0.725226 -0.144216
C11   C     C_3   0.319373 0.736178 0.729101 -0.114948
C12   C     C_3   0.144962 0.688417 0.686969 -0.006605
H3    H     H_    0.793413 0.773779 0.786857 0.105082
H4    H     H_    0.957986 0.808242 0.626549 0.093817
H5    H     H_    0.275683 0.897673 0.705726 0.090763
H6    H     H_    0.472995 0.725033 0.711969 0.104900
C13   C     C_3   0.219289 0.854385 0.265448 -0.321687
H7    H     H_    0.367269 0.878707 0.249371 0.133822
H8    H     H_    0.135905 0.916374 0.286517 0.115246
C14   C     C_3   0.231780 0.783001 0.338478 -0.322799
H9    H     H_    0.154377 0.810818 0.394482 0.117108
H10   H     H_    0.385617 0.773460 0.356770 0.136687
H11   H     H_    0.389402 0.745088 0.141759 0.140570
H12   H     H_    0.407666 0.640115 0.249345 0.136149
C15   C     C_3   0.240903 0.723765 0.160198 -0.316616
C16   C     C_3   0.917094 0.776767 0.212921 -0.316053
C17   C     C_3   0.121581 0.810571 0.186643 0.118828
H13   H     H_    0.842934 0.743886 0.158222 0.136982
H14   H     H_    0.827565 0.837075 0.233277 0.130728
C18   C     C_3   0.142830 0.688163 0.311993 0.116918
C19   C     C_3   0.253358 0.652438 0.233277 -0.322317
C20   C     C_3   0.929354 0.705855 0.285483 -0.305948
H15   H     H_    0.845352 0.732603 0.340127 0.135702
H16   H     H_    0.860853 0.639404 0.265101 0.132171
H17   H     H_    0.173330 0.690170 0.104283 0.121655
H18   H     H_    0.191782 0.584685 0.212326 0.122862
C21   C     C_3   0.429679 0.295055 0.715000 -0.305597
H19   H     H_    0.364338 0.361860 0.736252 0.132366
H20   H     H_    0.342778 0.269429 0.660702 0.135849
C22   C     C_3   0.417444 0.223623 0.787090 -0.318406
H21   H     H_    0.324962 0.164243 0.766844 0.133328
H22   H     H_    0.346570 0.256577 0.842514 0.135056
H23   H     H_    0.699238 0.413482 0.787351 0.122555
H24   H     H_    0.680595 0.307341 0.894527 0.134076
C23   C     C_3   0.757514 0.345425 0.765546 -0.325564
C24   C     C_3   0.727386 0.216040 0.659549 -0.326376
C25   C     C_3   0.642826 0.311279 0.687331 0.118779
H25   H     H_    0.880866 0.224553 0.640373 0.135530
H26   H     H_    0.646982 0.189376 0.603818 0.114949
C26   C     C_3   0.621607 0.187975 0.811786 0.112420
C27   C     C_3   0.745021 0.273585 0.838129 -0.315883
C28   C     C_3   0.714900 0.144104 0.732104 -0.316959
H27   H     H_    0.628492 0.082997 0.711090 0.117213
H28   H     H_    0.862525 0.118487 0.747120 0.134224
H29   H     H_    0.911682 0.356592 0.748620 0.136953
H30   H     H_    0.893338 0.250969 0.855592 0.144338
C29   C     C_3   0.542002 0.354350 0.234286 -0.288858
H31   H     H_    0.394264 0.377715 0.252026 0.096751
C30   C     C_3   0.526972 0.282666 0.160794 0.235120
H32   H     H_    0.370394 0.270442 0.147818 0.062687
H33   H     H_    0.381253 0.243495 0.358333 0.144457
H34   H     H_    0.363756 0.137508 0.250808 0.137547
C31   C     C_3   0.529946 0.223577 0.338836 -0.339842
C32   C     C_3   0.849423 0.279754 0.283825 -0.322843
C33   C     C_3   0.644635 0.311359 0.311893 0.064077
H35   H     H_    0.927494 0.247953 0.337756 0.136415
H36   H     H_    0.935223 0.340949 0.262948 0.139042
C34   C     C_3   0.623311 0.188721 0.186153 0.075483
C35   C     C_3   0.518046 0.151899 0.265607 -0.407709
C36   C     C_3   0.837230 0.208414 0.211231 -0.281752
H37   H     H_    0.919003 0.235245 0.156192 0.168008
H38   H     H_    0.600887 0.190940 0.394164 0.129056
H39   H     H_    0.583994 0.085030 0.285783 0.138230
O11   O     O_R   0.771990 0.083520 0.910980 -0.537528
O12   O     O_R   0.442180 0.095020 0.086060 -0.549567
O13   O     O_R   0.271950 0.914280 0.086680 -0.539581
C37   C     C_R   0.611408 0.117493 0.115315 0.658652
O14   O     O_R   0.442270 0.094630 0.911580 -0.545001
O15   O     O_R   0.272040 0.913890 0.910940 -0.535777
C38   C     C_R   0.611113 0.117271 0.882597 0.655342
O16   O     O_R   0.771900 0.083910 0.086710 -0.536488
O17   O     O_3   0.605520 0.939610 0.998840 -0.364291
V3    V     V_3+5 0.330640 0.009880 0.998810 1.371821
O18   O     O_R   0.942330 0.902710 0.911540 -0.541508
C39   C     C_R   0.111096 0.880401 0.882485 0.678178
O19   O     O_R   0.942240 0.903100 0.086030 -0.544105
C40   C     C_R   0.111077 0.880764 0.115311 0.650879
V4    V     V_3+5 0.830640 0.987830 0.998780 1.383767
O20   O     O_3   0.105630 0.058150 0.998800 -0.367264
H40   H     H_    0.622228 0.417388 0.213692 0.147718
O21   O     O_3   0.615493 0.319557 0.088666 -0.657427
H41   H     H_    0.555055 0.288644 0.039303 0.260066
H42   H     H_    0.908603 0.142702 0.231138 0.120751

loop_
_geom_bond_atom_site_label_1
_geom_bond_atom_site_label_2
_ccdc_geom_bond_type
C28   H28   S    
C29   H40   S    
O17   V4    S    
C6    C7    S    
C30   H32   S    
C35   H39   S    
C21   C25   S    
C1    O6    A    
C5    H2    S    
C29   C33   S    
C15   C17   S    
C16   C20   S    
C24   H26   S    
C5    C12   S    
C2    C33   S    
C14   H9    S    
O5    C3    A    
C7    C39   S    
C32   H35   S    
H23   C23   S    
C31   C35   S    
C27   H30   S    
C36   H42   S    
C24   H25   S    
C6    H1    S    
C9    C12   S    
C10   H5    S    
H12   C19   S    
C22   H21   S    
O8    V2    S    
C16   H14   S    
C9    C10   S    
C13   H8    S    
C10   C11   S    
O1    V2    S    
O12   C37   A    
O7    V1    S    
O15   C39   A    
O13   V3    S    
O16   V4    S    
C15   C19   S    
C16   H13   S    
C28   H27   S    
C24   C28   S    
O9    C4    A    
C6    C11   S    
H34   C35   S    
O19   V4    S    
C18   C20   S    
O14   V3    S    
C20   H16   S    
C31   C33   S    
C22   H22   S    
C23   C25   S    
C21   H19   S    
C14   C18   S    
C36   H37   S    
O4    C2    A    
C32   C33   S    
C11   C12   S    
O18   V4    S    
C1    C25   S    
C34   C37   S    
O12   V3    S    
C24   C25   S    
C21   H20   S    
C26   C28   S    
O2    C1    A    
O13   C40   A    
H24   C27   S    
C30   O21   S    
C13   H7    S    
O17   V3    S    
O14   C38   A    
C5    C6    S    
C13   C14   S    
C9    H4    S    
C4    C12   S    
H33   C31   S    
V3    O20   S    
O3    C4    A    
C23   H29   S    
C16   C17   S    
C15   H17   S    
C31   H38   S    
O18   C39   A    
O6    V2    S    
C34   C36   S    
C8    H3    S    
O9    V2    S    
O2    V1    S    
O15   V3    S    
C30   C34   S    
C18   C19   S    
C29   C30   S    
C11   H6    S    
C20   H15   S    
C13   C17   S    
O1    C2    A    
O5    V1    S    
O11   V4    S    
O8    C3    A    
O21   H41   S    
C5    C8    S    
C21   C22   S    
C26   C27   S    
O7    V2    S    
C26   C38   S    
C29   H31   S    
C3    C18   S    
O3    V1    S    
V1    O10   S    
C23   C27   S    
C32   H36   S    
C22   C26   S    
C19   H18   S    
O19   C40   A    
C17   C40   S    
C14   H10   S    
V4    O20   S    
C37   O16   A    
C32   C36   S    
O4    V1    S    
H11   C15   S    
C34   C35   S    
C7    C10   S    
O11   C38   A    
C8    C9    S    
C7    C8    S    
V2    O10   S    
