data_mof_unit_20114.cif
_audit_creation_date              2012-12-10T19:32:48-0500
_audit_creation_method            fapswitch 2.2
_symmetry_space_group_name_H-M    P1
_symmetry_Int_Tables_number       1
_space_group_crystal_system       triclinic
_cell_length_a                    10.939061
_cell_length_b                    17.683278
_cell_length_c                    16.594247
_cell_angle_alpha                 88.991901
_cell_angle_beta                  89.020652
_cell_angle_gamma                 93.642239
_cell_volume                      3202.45269237

loop_
_atom_site_label
_atom_site_type_symbol
_atom_type_description
_atom_site_fract_x
_atom_site_fract_y
_atom_site_fract_z
_atom_type_partial_charge
C1    C     C_R   0.498928 0.355359 0.500523 0.789998
C2    C     C_R   0.500127 0.644476 0.499523 0.807530
C3    C     C_R   0.871396 0.500167 0.499940 -0.218549
C4    C     C_R   0.127778 0.496706 0.498444 -0.197654
C5    C     C_R   0.928012 0.449959 0.552234 0.036124
C6    C     C_R   0.069719 0.541841 0.441466 0.020055
C7    C     C_R   0.422028 0.840581 0.556103 -0.250515
C8    C     C_R   0.535907 0.155914 0.433910 -0.255487
C9    C     C_R   0.426927 0.762093 0.556976 -0.164800
C10   C     C_R   0.541306 0.234648 0.434791 -0.128902
C11   C     C_R   0.498442 0.727158 0.499377 -0.042478
C12   C     C_R   0.493729 0.272184 0.500870 -0.041542
C13   C     C_R   0.568840 0.771632 0.442858 -0.346525
C14   C     C_R   0.438348 0.229836 0.565603 -0.261581
C15   C     C_R   0.568728 0.851194 0.443915 0.476776
C16   C     C_R   0.433037 0.149803 0.565528 0.506622
C17   C     C_R   0.491241 0.884796 0.499116 0.045918
C18   C     C_R   0.481824 0.113844 0.498603 0.065448
C19   C     C_1   0.485100 0.965332 0.498622 0.018414
C20   C     C_1   0.482305 0.032991 0.497971 0.013092
C21   C     C_R   0.555501 0.563873 0.826809 0.234830
C22   C     C_R   0.439719 0.437796 0.172199 0.292507
C23   C     C_R   0.261881 0.498246 0.500037 0.800088
C24   C     C_R   0.737836 0.501066 0.499669 0.819832
C25   C     C_R   0.562732 0.558840 0.740161 0.495194
C26   C     C_R   0.445447 0.438830 0.258296 0.496675
C27   C     C_R   0.443017 0.441476 0.747820 0.404588
C28   C     C_R   0.551325 0.560655 0.252383 0.341141
C29   C     C_R   0.451081 0.441511 0.833159 -0.357321
C30   C     C_R   0.540626 0.561626 0.167009 -0.310213
C31   C     C_R   0.504275 0.502710 0.873471 -0.075436
C32   C     C_R   0.489333 0.500207 0.125935 -0.065934
C33   C     C_1   0.500916 0.502601 0.962655 0.049785
C34   C     C_1   0.496011 0.501141 0.036676 0.045356
C35   C     C_R   0.229085 0.668555 0.277179 0.364401
C36   C     C_R   0.738008 0.283569 0.650415 0.412703
C37   C     C_R   0.188300 0.642665 0.354882 0.123319
C38   C     C_R   0.801680 0.329243 0.590805 0.090955
C39   C     C_R   0.130113 0.569141 0.364296 -0.010847
C40   C     C_R   0.856057 0.400643 0.611874 -0.038283
C41   C     C_R   0.109054 0.523648 0.296342 0.372841
C42   C     C_R   0.848524 0.424921 0.691848 0.432387
C43   C     C_R   0.157494 0.548376 0.220841 -0.473682
C44   C     C_R   0.770982 0.383840 0.747394 -0.458383
C45   C     C_R   0.212505 0.621283 0.210376 0.328912
C46   C     C_R   0.714919 0.312787 0.727402 0.337497
C47   C     C_R   0.943776 0.548080 0.447136 0.243087
C48   C     C_R   0.055469 0.448124 0.551126 0.249165
Cu1   Cu    Cu3+1 0.499990 0.499980 0.580420 0.973454
Cu2   Cu    Cu3+1 0.500010 0.500020 0.419580 0.943122
H1    H     H_    0.411829 0.394767 0.869670 0.183580
H2    H     H_    0.577440 0.609228 0.130599 0.186871
H3    H     H_    0.149058 0.512092 0.169156 0.158998
H4    H     H_    0.753686 0.408532 0.805232 0.155163
H5    H     H_    0.364092 0.866824 0.599717 0.160824
H6    H     H_    0.574751 0.127717 0.382924 0.163689
H7    H     H_    0.372400 0.728465 0.601257 0.144532
H8    H     H_    0.584244 0.266269 0.384234 0.182929
H9    H     H_    0.623424 0.744593 0.398295 0.155047
H10   H     H_    0.398279 0.259107 0.614989 0.162147
N1    N     N_R   0.499970 0.499970 0.701220 -0.259208
N2    N     N_R   0.500030 0.500030 0.298780 -0.267565
O1    O     O_R   0.499990 0.391240 0.567930 -0.589389
O2    O     O_R   0.500010 0.608760 0.432070 -0.598323
O3    O     O_R   0.500000 0.391270 0.432120 -0.533968
O4    O     O_R   0.500000 0.608730 0.567880 -0.523933
O5    O     O_R   0.319640 0.499990 0.567910 -0.610052
O6    O     O_R   0.680360 0.500010 0.432090 -0.611466
O7    O     O_R   0.319650 0.500020 0.432090 -0.592294
O8    O     O_R   0.680350 0.499980 0.567910 -0.538971
O9    O     O_3   0.255148 0.645426 0.134819 -0.568491
C49   C     C_3   0.156040 0.670437 0.090406 0.111608
H11   H     H_    0.121084 0.722138 0.117751 0.161124
H12   H     H_    0.079825 0.625662 0.087403 0.124527
C50   C     C_3   0.199735 0.689937 0.004644 -0.820100
H13   H     H_    0.231449 0.638496 0.975379 0.238386
H14   H     H_    0.123382 0.711427 0.969412 0.198885
H15   H     H_    0.276397 0.734228 0.005049 0.253795
O10   O     O_3   0.627632 0.273359 0.776835 -0.569316
C51   C     C_3   0.656306 0.277368 0.859380 0.051332
H16   H     H_    0.630114 0.332138 0.884179 0.167028
H17   H     H_    0.755411 0.270070 0.869529 0.128383
C52   C     C_3   0.582325 0.214280 0.905198 -0.822150
H18   H     H_    0.606089 0.158275 0.882429 0.239712
H19   H     H_    0.602821 0.217072 0.970426 0.218664
H20   H     H_    0.482833 0.220490 0.897211 0.242885
O11   O     O_3   0.635923 0.897332 0.388365 -0.592539
C53   C     C_3   0.760162 0.879785 0.386141 0.046218
H21   H     H_    0.772699 0.833771 0.342746 0.140503
H22   H     H_    0.793736 0.862700 0.446550 0.137061
C54   C     C_3   0.838373 0.949409 0.357058 -0.782177
H23   H     H_    0.827940 0.996694 0.399336 0.242813
H24   H     H_    0.936227 0.936156 0.354138 0.200350
H25   H     H_    0.809717 0.967214 0.296072 0.250150
O12   O     O_3   0.374924 0.104295 0.626010 -0.608199
C55   C     C_3   0.391746 0.134080 0.703729 0.060087
H26   H     H_    0.319631 0.173613 0.716656 0.153160
H27   H     H_    0.483912 0.163364 0.710732 0.225881
C56   C     C_3   0.378751 0.069574 0.765675 -0.815359
H28   H     H_    0.450549 0.029054 0.754861 0.244576
H29   H     H_    0.389069 0.092430 0.827249 0.207083
H30   H     H_    0.287073 0.039248 0.761461 0.252590
O13   O     O_3   0.599510 0.627962 0.866116 -0.596367
C57   C     C_3   0.508102 0.680848 0.865493 0.065452
H31   H     H_    0.419337 0.655343 0.890481 0.147438
H32   H     H_    0.494295 0.702469 0.803077 0.153574
C58   C     C_3   0.548140 0.747456 0.917646 -0.794326
H33   H     H_    0.636150 0.774753 0.894133 0.240507
H34   H     H_    0.477461 0.789835 0.916978 0.197634
H35   H     H_    0.560137 0.727586 0.980740 0.253650
O14   O     O_3   0.404466 0.370277 0.135250 -0.552173
C59   C     C_3   0.292786 0.376127 0.094290 0.069408
H36   H     H_    0.283132 0.432379 0.064841 0.133924
H37   H     H_    0.214058 0.365025 0.136663 0.135254
C60   C     C_3   0.283583 0.316131 0.029745 -0.805692
H38   H     H_    0.279952 0.258706 0.058238 0.249377
H39   H     H_    0.199362 0.322026 0.994338 0.190825
H40   H     H_    0.364681 0.322642 0.988574 0.246080
O15   O     O_3   0.624251 0.615440 0.692993 -0.559442
C61   C     C_3   0.739081 0.640650 0.724208 0.132692
H41   H     H_    0.781067 0.596888 0.761920 0.183821
H42   H     H_    0.728324 0.692117 0.760372 0.172847
C62   C     C_3   0.827081 0.663239 0.654899 -0.790980
H43   H     H_    0.788176 0.707606 0.616642 0.231518
H44   H     H_    0.915992 0.685901 0.678782 0.196022
H45   H     H_    0.843426 0.613227 0.617901 0.281165
O16   O     O_3   0.413201 0.371725 0.299400 -0.552900
C63   C     C_3   0.284786 0.361261 0.309815 0.151739
H46   H     H_    0.232769 0.392765 0.265001 0.138802
H47   H     H_    0.258172 0.379621 0.370711 0.181784
C64   C     C_3   0.246315 0.277406 0.304205 -0.813754
H48   H     H_    0.271741 0.256320 0.243948 0.267288
H49   H     H_    0.292266 0.244753 0.351404 0.249413
H50   H     H_    0.145539 0.268628 0.313292 0.201856
N3    N     N_2   0.376168 0.380211 0.710336 -0.380901
H51   H     H_    0.340118 0.395091 0.656675 0.292797
C65   C     C_3   0.292603 0.329958 0.758324 -0.801341
H52   H     H_    0.237880 0.291948 0.718442 0.221024
H53   H     H_    0.227856 0.363066 0.793443 0.222971
H54   H     H_    0.344592 0.293744 0.798944 0.257043
N4    N     N_2   0.619143 0.621879 0.289620 -0.421307
H55   H     H_    0.656789 0.606756 0.342750 0.306920
C66   C     C_3   0.702885 0.671805 0.241231 -0.822710
H56   H     H_    0.753741 0.712233 0.280361 0.229573
H57   H     H_    0.652227 0.706458 0.198435 0.236212
H58   H     H_    0.770282 0.638499 0.208651 0.236504
O17   O     O_3   0.273625 0.742880 0.265284 -0.576275
C67   C     C_3   0.402217 0.745114 0.258353 0.104348
H59   H     H_    0.432074 0.713288 0.205091 0.185163
H60   H     H_    0.441684 0.721071 0.313646 0.190545
C68   C     C_3   0.451448 0.827018 0.247436 -0.754843
H61   H     H_    0.420743 0.861098 0.298675 0.265298
H62   H     H_    0.553125 0.829910 0.244785 0.220446
H63   H     H_    0.417299 0.851140 0.190467 0.239619
O18   O     O_3   0.690753 0.211953 0.630576 -0.554204
C69   C     C_3   0.753832 0.156893 0.673289 0.056863
H64   H     H_    0.723908 0.153700 0.737638 0.176005
H65   H     H_    0.855061 0.169223 0.670028 0.117078
C70   C     C_3   0.725427 0.079435 0.637147 -0.799485
H66   H     H_    0.750057 0.080783 0.571936 0.248403
H67   H     H_    0.778848 0.036585 0.668127 0.198475
H68   H     H_    0.626526 0.062498 0.644992 0.259789
N5    N     N_2   0.208905 0.689692 0.423041 -0.407517
H69   H     H_    0.206835 0.662923 0.478781 0.232908
C71   C     C_3   0.156265 0.762897 0.422108 -0.566742
H70   H     H_    0.231051 0.808243 0.416825 0.246031
H71   H     H_    0.104621 0.770613 0.479265 0.180333
H72   H     H_    0.092303 0.768851 0.371329 0.234670
N6    N     N_2   0.804833 0.304640 0.509337 -0.399570
H73   H     H_    0.814225 0.346382 0.465242 0.243051
C72   C     C_3   0.871178 0.238250 0.492305 -0.597302
H74   H     H_    0.933457 0.249692 0.439310 0.188771
H75   H     H_    0.805128 0.190528 0.477612 0.246127
H76   H     H_    0.927331 0.221593 0.544029 0.219621
O19   O     O_3   0.043378 0.454043 0.306891 -0.594597
C73   C     C_3   0.951583 0.443723 0.248372 0.053970
H77   H     H_    0.991201 0.419868 0.192924 0.135921
H78   H     H_    0.908448 0.497528 0.232893 0.140791
C74   C     C_3   0.851085 0.387630 0.281234 -0.779811
H79   H     H_    0.806963 0.411188 0.335106 0.254921
H80   H     H_    0.780482 0.376931 0.234782 0.209978
H81   H     H_    0.890150 0.333220 0.298141 0.239799
O20   O     O_3   0.909698 0.492843 0.712081 -0.581679
C75   C     C_3   0.984440 0.482494 0.779586 0.049207
H82   H     H_    0.026273 0.426541 0.779767 0.131211
H83   H     H_    0.929699 0.487552 0.836075 0.145895
C76   C     C_3   0.088335 0.543961 0.778062 -0.816148
H84   H     H_    0.050600 0.600745 0.780340 0.244133
H85   H     H_    0.147802 0.536605 0.830861 0.198813
H86   H     H_    0.144531 0.540274 0.722027 0.252429
N7    N     N_2   0.893064 0.604510 0.398837 -0.426093
H87   H     H_    0.843519 0.585012 0.350719 0.264120
C77   C     C_3   0.853475 0.669537 0.441319 -0.739993
H88   H     H_    0.852281 0.718544 0.399153 0.212276
H89   H     H_    0.918492 0.685660 0.489658 0.240431
H90   H     H_    0.760831 0.657029 0.468144 0.221296
N8    N     N_2   0.107235 0.390631 0.597394 -0.435773
H91   H     H_    0.148911 0.408160 0.649313 0.261967
C78   C     C_3   0.157291 0.329723 0.552854 -0.719656
H92   H     H_    0.148312 0.276676 0.589678 0.223989
H93   H     H_    0.254911 0.343704 0.537870 0.207891
H94   H     H_    0.107850 0.319917 0.495728 0.243122

loop_
_geom_bond_atom_site_label_1
_geom_bond_atom_site_label_2
_ccdc_geom_bond_type
C66   H58   S    
C38   C40   A    
O11   C53   S    
C71   H70   S    
Cu1   O1    S    
C27   C29   A    
Cu2   O2    S    
N6    H73   S    
C23   O7    A    
O12   C55   S    
C67   C68   S    
C7    H5    S    
C72   H76   S    
C72   H74   S    
C64   H50   S    
C63   H46   S    
C8    H6    S    
C59   H37   S    
C24   O8    A    
N3    H51   S    
C39   C41   A    
C65   H53   S    
C22   C32   A    
C52   H18   S    
C69   H64   S    
C10   H8    S    
Cu2   O7    S    
C67   H60   S    
N4    C66   S    
C4    C48   A    
C46   O10   S    
C62   H44   S    
C45   O9    S    
C60   H38   S    
C55   C56   S    
C25   O15   S    
C75   H82   S    
C66   H57   S    
C68   H63   S    
C23   O5    A    
N8    C78   S    
C57   H31   S    
C76   H86   S    
C21   C25   A    
C27   N1    A    
C43   H3    S    
C73   C74   S    
O17   C67   S    
C61   H42   S    
C28   C30   A    
C7    C17   A    
C55   H27   S    
C78   H94   S    
C1    O3    A    
C68   H61   S    
C70   H67   S    
C36   C46   A    
C41   C43   A    
C18   C20   S    
C61   C62   S    
C37   N5    S    
C74   H81   S    
C77   H90   S    
C40   C42   A    
C41   O19   S    
C78   H92   S    
C71   H71   S    
N3    C65   S    
C22   O14   S    
N6    C72   S    
C3    C24   S    
C1    C12   S    
C42   C44   A    
C49   C50   S    
C2    C11   S    
C1    O1    A    
C57   H32   S    
C59   H36   S    
C5    C48   A    
C44   C46   A    
C37   C39   A    
C65   H54   S    
Cu1   N1    S    
C6    C47   A    
N7    H87   S    
C62   H43   S    
C67   H59   S    
C2    O2    A    
C4    C6    A    
Cu1   O4    S    
C54   H23   S    
C4    C23   S    
C77   H89   S    
C51   H16   S    
C62   H45   S    
C35   O17   S    
C60   H39   S    
C8    C18   A    
C74   H79   S    
C32   C34   S    
C50   H13   S    
N7    C77   S    
O20   C75   S    
C44   H4    S    
C54   H24   S    
C21   C31   A    
C70   H66   S    
C53   C54   S    
C58   H33   S    
C60   H40   S    
C55   H26   S    
C56   H30   S    
C31   C33   S    
C33   C34   T    
C70   H68   S    
C16   C18   A    
C25   N1    A    
C57   C58   S    
C43   C45   A    
C10   C12   A    
C49   H12   S    
C73   H77   S    
C52   H19   S    
C12   C14   A    
C77   H88   S    
C71   H72   S    
Cu2   O3    S    
Cu1   O8    S    
C9    C11   A    
C13   C15   A    
Cu2   N2    S    
C58   H35   S    
C14   C16   A    
C5    C40   S    
O16   C63   S    
C35   C45   A    
C63   C64   S    
C3    C5    A    
O18   C69   S    
C61   H41   S    
C35   C37   A    
C38   N6    S    
C15   O11   S    
C29   H1    S    
C15   C17   A    
C30   H2    S    
C16   O12   S    
Cu1   O5    S    
O14   C59   S    
C56   H29   S    
C69   C70   S    
C53   H22   S    
C49   H11   S    
C64   H49   S    
C64   H48   S    
C63   H47   S    
O15   C61   S    
C2    O4    A    
C13   H9    S    
C42   O20   S    
C72   H75   S    
C14   H10   S    
C65   H52   S    
C75   C76   S    
C48   N8    S    
C27   N3    S    
C19   C20   T    
C69   H65   S    
C26   N2    A    
O9    C49   S    
C29   C31   A    
O19   C73   S    
C56   H28   S    
C36   C38   A    
C30   C32   A    
C11   C13   A    
C58   H34   S    
C3    C47   A    
C51   C52   S    
C17   C19   S    
C51   H17   S    
C75   H83   S    
C9    H7    S    
C26   O16   S    
C68   H62   S    
C47   N7    S    
N8    H91   S    
C50   H15   S    
C76   H85   S    
N5    H69   S    
C24   O6    A    
O10   C51   S    
C21   O13   S    
C7    C9    A    
C76   H84   S    
C52   H20   S    
C53   H21   S    
C8    C10   A    
Cu1   Cu2   S    
C22   C26   A    
C50   H14   S    
O13   C57   S    
C78   H93   S    
C6    C39   S    
N5    C71   S    
C28   N4    S    
C74   H80   S    
N4    H55   S    
Cu2   O6    S    
C59   C60   S    
C66   H56   S    
C36   O18   S    
C73   H78   S    
C54   H25   S    
C28   N2    A    
