data_mof_unit_59093.cif
_audit_creation_date              2012-12-11T20:21:47-0500
_audit_creation_method            fapswitch 2.2
_symmetry_space_group_name_H-M    P1
_symmetry_Int_Tables_number       1
_space_group_crystal_system       triclinic
_cell_length_a                    8.233149
_cell_length_b                    17.432675
_cell_length_c                    26.971779
_cell_angle_alpha                 99.757895
_cell_angle_beta                  92.713606
_cell_angle_gamma                 81.440942
_cell_volume                      3771.68030946

loop_
_atom_site_label
_atom_site_type_symbol
_atom_type_description
_atom_site_fract_x
_atom_site_fract_y
_atom_site_fract_z
_atom_type_partial_charge
Ba1   Ba    Ba6+2 0.860160 0.462360 0.521850 1.644905
Ba2   Ba    Ba6+2 0.329680 0.537570 0.478140 1.642357
C1    C     C_3   0.672930 0.188316 0.650767 0.525915
C2    C     C_3   0.661718 0.266884 0.632266 0.394209
C3    C     C_3   0.490230 0.660812 0.634051 0.283570
C4    C     C_3   0.455944 0.691688 0.689345 -0.365097
C5    C     C_3   0.033083 0.703978 0.345943 0.352373
C6    C     C_3   0.045380 0.725226 0.293996 0.525855
C7    C     C_3   0.488424 0.746235 0.369932 0.334265
C8    C     C_3   0.441677 0.824241 0.351184 -0.321790
C9    C     C_R   0.025177 0.440817 0.175947 0.599817
C10   C     C_R   0.893219 0.573456 0.179027 0.573409
C11   C     C_2   0.751985 0.548175 0.273890 -0.076709
C12   C     C_3   0.159209 0.270835 0.649353 0.266875
C13   C     C_3   0.732854 0.575429 0.329655 -0.046175
C14   C     C_1   0.984269 0.485895 0.342015 0.036467
C15   C     C_2   0.025063 0.482261 0.294085 -0.112346
C16   C     C_2   0.900645 0.512607 0.256182 0.180183
C17   C     C_R   0.018287 0.503325 0.100761 -0.079234
C18   C     C_R   0.066391 0.437711 0.124928 -0.037138
C19   C     C_R   0.154037 0.370066 0.097454 -0.057490
C20   C     C_R   0.930643 0.571334 0.128199 -0.030992
C21   C     C_2   0.844945 0.525576 0.360872 -0.295099
C22   C     C_2   0.354743 0.480170 0.639672 -0.280547
C23   C     C_3   0.109575 0.247298 0.697688 -0.307364
C24   C     C_R   0.190086 0.430858 0.970720 0.019645
C25   C     C_R   0.041777 0.565418 0.973794 0.020725
C26   C     C_R   0.135694 0.497321 0.946846 0.051194
C27   C     C_R   0.285164 0.365096 0.942155 -0.097003
C28   C     C_R   0.323576 0.364349 0.892224 -0.054826
C29   C     C_R   0.269833 0.429137 0.868168 -0.039376
C30   C     C_R   0.175701 0.495781 0.895424 -0.076796
C31   C     C_R   0.121790 0.561035 0.871267 -0.032150
C32   C     C_R   0.164136 0.559396 0.820805 0.587547
C33   C     C_R   0.308602 0.428607 0.817404 0.587630
C34   C     C_3   0.218696 0.298596 0.411479 0.310008
C35   C     C_2   0.458697 0.479544 0.728059 -0.062148
C36   C     C_3   0.501933 0.486870 0.675020 -0.064832
C37   C     C_1   0.209049 0.513434 0.656342 0.059439
C38   C     C_2   0.168550 0.512541 0.703397 -0.098937
C39   C     C_2   0.299359 0.493512 0.742218 0.203502
C40   C     C_R   0.148462 0.432362 0.021988 0.019632
C41   C     C_R   0.057505 0.501091 0.049169 0.051347
C42   C     C_R   0.005322 0.567797 0.025404 0.019768
C43   C     C_R   0.194287 0.367346 0.047403 -0.097115
C44   C     C_R   0.882501 0.636830 0.104507 -0.049520
C45   C     C_3   0.244292 0.209585 0.396702 -0.363569
C46   C     C_R   0.986942 0.629099 0.947828 -0.098393
C47   C     C_R   0.026666 0.626948 0.898011 -0.059830
C48   C     C_R   0.918798 0.635278 0.054549 -0.101280
C49   C     C_2   0.446671 0.279005 0.514414 -0.254546
C50   C     C_3   0.373579 0.227204 0.544345 -0.042748
C51   C     C_2   0.419048 0.141267 0.525542 -0.099946
C52   C     C_2   0.551375 0.115507 0.496311 0.001597
C53   C     C_2   0.634977 0.174353 0.476655 -0.127840
C54   C     C_1   0.573799 0.250080 0.485210 0.059481
C55   C     C_R   0.789883 0.862744 0.472818 -0.109047
C56   C     C_3   0.929558 0.709647 0.608215 0.393128
C57   C     C_R   0.845535 0.782095 0.465221 0.035125
C58   C     C_R   0.617004 0.760206 0.511806 0.044385
C59   C     C_R   0.561553 0.840834 0.520027 -0.117643
C60   C     C_R   0.645224 0.892492 0.499604 0.009643
C61   C     C_2   0.614057 0.030349 0.482953 -0.075237
C62   C     C_2   0.587390 0.977596 0.511763 -0.075727
C63   C     C_R   0.753417 0.730679 0.482075 -0.254236
C64   C     C_3   0.860738 0.783494 0.644404 -0.288890
C65   C     C_3   0.693432 0.363230 0.368787 0.300998
C66   C     C_3   0.691435 0.343871 0.311643 -0.351859
H1    H     H_    0.751473 0.259693 0.601546 -0.000411
H2    H     H_    0.334224 0.191515 0.366003 0.126495
H3    H     H_    0.291447 0.181591 0.429446 0.072600
H4    H     H_    0.125793 0.188920 0.383716 0.136739
H5    H     H_    0.828284 0.675005 0.596166 0.052532
H6    H     H_    0.814239 0.767266 0.678769 0.113353
H7    H     H_    0.758639 0.817858 0.625573 0.093238
H8    H     H_    0.958700 0.821063 0.655959 0.106577
H9    H     H_    0.816150 0.377269 0.382076 0.007840
H10   H     H_    0.598977 0.414973 0.380134 0.073949
H11   H     H_    0.645804 0.142073 0.618793 -0.071139
H12   H     H_    0.789090 0.294088 0.299038 0.136949
H13   H     H_    0.713188 0.395596 0.295378 0.068405
H14   H     H_    0.570060 0.327603 0.297677 0.135851
H15   H     H_    0.535348 0.283052 0.618095 -0.106297
H16   H     H_    0.377745 0.639328 0.616101 0.052525
H17   H     H_    0.593233 0.611423 0.631139 0.027662
H18   H     H_    0.358101 0.743412 0.692900 0.146930
H19   H     H_    0.413874 0.645791 0.707402 0.076632
H20   H     H_    0.569161 0.709272 0.709232 0.113533
H21   H     H_    0.799426 0.171353 0.665657 0.020484
H22   H     H_    0.181468 0.275110 0.729974 0.145992
H23   H     H_    0.111204 0.646524 0.347292 -0.005830
H24   H     H_    0.903000 0.698810 0.351847 -0.059426
H25   H     H_    0.168557 0.740783 0.288843 0.053916
H26   H     H_    0.027268 0.673900 0.265122 0.008572
H27   H     H_    0.624795 0.734550 0.372073 -0.038203
H28   H     H_    0.439106 0.752007 0.408237 0.076857
H29   H     H_    0.494682 0.871242 0.377082 0.075628
H30   H     H_    0.306257 0.840212 0.349714 0.151565
H31   H     H_    0.127491 0.335855 0.652202 0.058775
H32   H     H_    0.490557 0.820031 0.313013 0.156741
H33   H     H_    0.149596 0.459154 0.282532 0.134168
H34   H     H_    0.192669 0.318352 0.114697 0.125386
H35   H     H_    0.556755 0.469218 0.755548 0.102517
H36   H     H_    0.396779 0.312273 0.872441 0.132574
H37   H     H_    0.333584 0.312787 0.957269 0.072977
H38   H     H_    0.260972 0.312588 0.029632 0.072717
H39   H     H_    0.654026 0.567771 0.248623 0.124365
H40   H     H_    0.815834 0.690409 0.124694 0.138616
H41   H     H_    0.911289 0.682011 0.964606 0.072198
H42   H     H_    0.294306 0.254179 0.646427 0.065818
H43   H     H_    0.981658 0.677745 0.880386 0.123933
H44   H     H_    0.041840 0.529045 0.714710 0.129503
H45   H     H_    0.878086 0.689021 0.040277 0.074356
H46   H     H_    0.824945 0.536197 0.401083 0.080594
H47   H     H_    0.369295 0.451670 0.600798 0.073340
H48   H     H_    0.518670 0.996707 0.546041 0.078569
H49   H     H_    0.744031 0.154259 0.454257 0.090837
H50   H     H_    0.864351 0.901866 0.460555 0.078800
H51   H     H_    0.685777 0.011465 0.449202 0.083587
H52   H     H_    0.348953 0.101218 0.538850 0.076625
H53   H     H_    0.976900 0.267707 0.704271 0.141942
H54   H     H_    0.456215 0.863471 0.543497 0.079182
H55   H     H_    0.409926 0.341994 0.523743 0.072677
H56   H     H_    0.797758 0.668275 0.476739 0.062901
H57   H     H_    0.134542 0.182111 0.695279 0.134595
H58   H     H_    0.338197 0.318702 0.422158 -0.000301
H59   H     H_    0.135897 0.314601 0.444012 0.082510
N1    N     N_R   0.940097 0.508581 0.202980 -0.424893
N2    N     N_R   0.256443 0.493576 0.794225 -0.427419
O1    O     O_2   0.906370 0.542040 0.619810 -0.483342
O2    O     O_3   0.660479 0.297707 0.388134 -0.631056
O3    O     O_3   0.077267 0.231587 0.607760 -0.602126
O4    O     O_2   0.283330 0.457940 0.380160 -0.458477
O5    O     O_3   0.051340 0.457960 0.440360 -0.498952
O6    O     O_3   0.503130 0.601610 0.416130 -0.476934
O7    O     O_3   0.150819 0.331930 0.370196 -0.622838
O8    O     O_3   0.616890 0.595000 0.528820 -0.483139
O9    O     O_3   0.087820 0.642040 0.442240 -0.493349
O10   O     O_2   0.182777 0.781033 0.476626 -0.480790
O11   O     O_3   0.088027 0.762724 0.382166 -0.598622
O12   O     O_3   0.138370 0.541980 0.559630 -0.484329
O13   O     O_3   0.572820 0.404940 0.471170 -0.494793
O14   O     O_2   0.345130 0.693150 0.532000 -0.456421
O15   O     O_3   0.533108 0.721954 0.611878 -0.653226
O16   O     O_2   0.409268 0.535128 0.324323 -0.498526
O17   O     O_3   0.421682 0.686457 0.337054 -0.604246
O18   O     O_2   0.063214 0.382616 0.195885 -0.593144
O19   O     O_2   0.387745 0.370026 0.793776 -0.563455
O20   O     O_2   0.819476 0.634014 0.202037 -0.582378
O21   O     O_2   0.120683 0.617238 0.800790 -0.600169
O22   O     O_3   0.686580 0.398330 0.583860 -0.485594
O23   O     O_2   0.844830 0.443197 0.669536 -0.489360
O24   O     O_3   0.056127 0.667586 0.633405 -0.638045
O25   O     O_3   0.695984 0.325319 0.672278 -0.580652
O26   O     O_2   0.844570 0.306830 0.467970 -0.457829
O27   O     O_3   0.101900 0.357890 0.557750 -0.482133
O28   O     O_2   0.048321 0.216835 0.509139 -0.480709
P1    P     P_3+3 0.071770 0.565500 0.613330 0.985623
P2    P     P_3+3 0.664870 0.318630 0.453960 0.985588
P3    P     P_3+3 0.149148 0.256530 0.553405 0.949127
P4    P     P_3+3 0.117940 0.434440 0.386660 0.994668
P5    P     P_3+3 0.051770 0.743104 0.441721 0.965089
P6    P     P_3+3 0.681262 0.414844 0.649914 0.986401
P7    P     P_3+3 0.531301 0.694129 0.546449 0.938964
P8    P     P_3+3 0.516661 0.596006 0.351207 0.945669
N3    N     N_3   0.994658 0.732972 0.564484 -0.529451
H60   H     H_    0.036904 0.681816 0.539597 0.206924
H61   H     H_    0.095292 0.762675 0.575853 0.207149
F1    F     F_    0.560853 0.193818 0.688466 -0.682088
F2    F     F_    0.927152 0.788290 0.287619 -0.672257

loop_
_geom_bond_atom_site_label_1
_geom_bond_atom_site_label_2
_ccdc_geom_bond_type
C25   C46   A    
C50   P3    S    
C2    O25   S    
C53   C54   D    
C66   H12   S    
C62   H48   S    
Ba1   O27   S    
C49   H55   S    
C17   C18   A    
C65   H9    S    
O13   P2    S    
C11   H39   S    
C1    H11   S    
C32   O21   D    
C51   H52   S    
C12   H31   S    
C38   H44   S    
C12   O3    S    
C51   C52   D    
C43   H38   S    
C23   H22   S    
Ba2   O5    S    
C13   P8    S    
C11   C16   D    
C66   H13   S    
Ba1   P2    S    
Ba1   P1    S    
C35   C36   S    
C49   C54   D    
C54   P2    S    
C3    C4    S    
C55   C57   A    
C52   C61   S    
C5    H24   S    
O11   P5    S    
C64   H6    S    
C10   C20   A    
C7    O17   S    
C22   C37   D    
C4    H20   S    
C34   C45   S    
C8    H30   S    
Ba1   Ba2   S    
C63   H56   S    
O24   P1    S    
Ba1   O26   S    
C15   H33   S    
C60   C62   S    
Ba1   O13   S    
C16   N1    S    
C25   C42   A    
C56   C64   S    
Ba1   O12   S    
C32   N2    Am   
C6    F2    S    
C14   C15   D    
C44   H40   S    
C22   C36   S    
C7    C8    S    
C33   N2    Am   
C47   H43   S    
C3    H17   S    
C13   C21   S    
C46   H41   S    
C64   H8    S    
O15   P7    S    
N3    H61   S    
Ba2   O14   S    
C27   H37   S    
C65   H10   S    
C34   O7    S    
Ba2   P4    S    
C2    H1    S    
C17   C41   A    
C31   C32   A    
C19   C43   A    
O7    P4    S    
C65   O2    S    
C9    C18   A    
Ba2   O4    S    
O26   P2    D    
C65   C66   S    
Ba2   O9    S    
O25   P6    S    
C26   C30   A    
C17   C20   A    
C6    H26   S    
Ba1   O1    S    
C37   C38   D    
C35   H35   S    
C3    H16   S    
C1    F1    S    
C3    O15   S    
O16   P8    D    
C55   C60   A    
C4    H19   S    
C49   C50   S    
C59   H54   S    
C40   C43   A    
C8    H29   S    
O2    P2    S    
C41   C42   A    
C45   H2    S    
C27   C28   A    
C56   O24   S    
C61   H51   S    
C29   C30   A    
O27   P3    S    
C28   C29   A    
C5    H23   S    
C15   C16   S    
O6    P8    S    
O9    P5    S    
O3    P3    S    
C8    H32   S    
C7    H28   S    
C45   H3    S    
C24   C27   A    
C19   H34   S    
C36   P6    S    
C20   C44   A    
O17   P8    S    
C58   C63   A    
O28   P3    D    
O22   P6    S    
C11   C13   S    
C37   P1    S    
N3    H60   S    
Ba2   O13   S    
C29   C33   A    
C34   H59   S    
C40   C41   A    
Ba1   O5    S    
O14   P7    D    
Ba1   O8    S    
C50   C51   S    
C24   C40   A    
C53   H49   S    
C42   C48   A    
C12   H42   S    
C7    H27   S    
C52   C53   S    
C46   C47   A    
Ba2   O8    S    
C10   O20   D    
O10   P5    D    
C34   H58   S    
C6    H25   S    
O4    P4    D    
O8    P7    S    
C10   N1    Am   
C14   P4    S    
C14   C21   D    
C44   C48   A    
C24   C26   A    
Ba2   O6    S    
C4    H18   S    
O5    P4    S    
O1    P1    D    
C1    H21   S    
C48   H45   S    
C66   H14   S    
C30   C31   A    
C9    N1    Am   
C57   P5    S    
C57   C63   A    
C21   H46   S    
C39   N2    S    
C9    O18   D    
C5    O11   S    
C2    H15   S    
C64   H7    S    
C23   H57   S    
C58   P7    S    
Ba1   O22   S    
C33   O19   D    
C12   C23   S    
C35   C39   D    
C59   C60   A    
C56   N3    S    
C45   H4    S    
O23   P6    D    
C5    C6    S    
C61   C62   D    
O12   P1    S    
C18   C19   A    
C22   H47   S    
C31   C47   A    
C28   H36   S    
C25   C26   A    
Ba2   O12   S    
C58   C59   A    
C38   C39   S    
C23   H53   S    
C1    C2    S    
C56   H5    S    
C55   H50   S    
