data_mof_unit_11516.cif
_audit_creation_date              2012-10-26T20:08:13-0400
_audit_creation_method            fapswitch 2.2
_symmetry_space_group_name_H-M    P1
_symmetry_Int_Tables_number       1
_space_group_crystal_system       triclinic
_cell_length_a                    10.859867
_cell_length_b                    10.825484
_cell_length_c                    9.511226
_cell_angle_alpha                 90.095652
_cell_angle_beta                  90.352412
_cell_angle_gamma                 90.604915
_cell_volume                      1118.08612164

loop_
_atom_site_label
_atom_site_type_symbol
_atom_type_description
_atom_site_fract_x
_atom_site_fract_y
_atom_site_fract_z
_atom_type_partial_charge
C1    C     C_R   0.500116 0.262065 0.499895 0.547918
C2    C     C_R   0.510177 0.064228 0.627309 -0.146263
C3    C     C_R   0.499767 0.871766 0.500113 0.021230
C4    C     C_R   0.500233 0.128234 0.499886 0.021230
C5    C     C_R   0.455864 0.400550 0.073810 0.008542
C6    C     C_R   0.544136 0.599450 0.926190 0.008543
C7    C     C_R   0.455674 0.400644 0.925149 0.006245
C8    C     C_R   0.544326 0.599356 0.074851 0.006247
C9    C     C_R   0.262188 0.501917 0.499236 0.550607
C10   C     C_R   0.737812 0.498082 0.500764 0.550606
C11   C     C_R   0.216523 0.769823 0.134769 -0.123522
C12   C     C_R   0.499884 0.737935 0.500105 0.547918
C13   C     C_R   0.783477 0.230189 0.865239 -0.123524
C14   C     C_R   0.158388 0.718789 0.251951 -0.091105
C15   C     C_R   0.841611 0.281218 0.748056 -0.091104
C16   C     C_R   0.120013 0.594492 0.251384 0.070418
C17   C     C_R   0.879988 0.405512 0.748618 0.070418
C18   C     C_R   0.141356 0.520454 0.130989 0.042787
C19   C     C_R   0.858649 0.479554 0.869008 0.042785
C20   C     C_R   0.199377 0.573668 0.013853 -0.088328
C21   C     C_R   0.800629 0.426345 0.986147 -0.088328
C22   C     C_R   0.236523 0.697517 0.015724 -0.116249
C23   C     C_R   0.871691 0.497168 0.502436 -0.005166
C24   C     C_R   0.763481 0.302497 0.984281 -0.116249
C25   C     C_R   0.933276 0.540593 0.383246 -0.162081
C26   C     C_R   0.066724 0.459404 0.616753 -0.162081
C27   C     C_3   0.107452 0.385198 0.124439 -0.401977
C28   C     C_3   0.892554 0.614808 0.875553 -0.401980
C29   C     C_R   0.128309 0.502831 0.497564 -0.005166
C30   C     C_R   0.939113 0.456104 0.620757 -0.033935
C31   C     C_R   0.060887 0.543895 0.379243 -0.033934
C32   C     C_R   0.490142 0.063542 0.372575 -0.146299
C33   C     C_R   0.509858 0.936458 0.627425 -0.146299
C34   C     C_R   0.489823 0.935772 0.372691 -0.146263
Cu1   Cu    Cu3+1 0.500000 0.500020 0.640660 0.932605
Cu2   Cu    Cu3+1 0.500000 0.499980 0.359340 0.932606
H1    H     H_    0.281562 0.737235 0.924932 0.112983
H2    H     H_    0.783904 0.481165 0.079209 0.119946
H3    H     H_    0.882006 0.574256 0.293193 0.123520
H4    H     H_    0.117993 0.425741 0.706805 0.123520
H5    H     H_    0.482107 0.111355 0.273035 0.112904
H6    H     H_    0.517893 0.888644 0.726965 0.112904
H7    H     H_    0.481509 0.887404 0.273218 0.119116
H8    H     H_    0.518491 0.112596 0.726782 0.119115
H9    H     H_    0.419912 0.320930 0.128886 0.098804
H10   H     H_    0.580088 0.679070 0.871114 0.098804
H11   H     H_    0.054046 0.353637 0.216797 0.141614
H12   H     H_    0.718444 0.262783 0.075074 0.112987
H13   H     H_    0.051497 0.366191 0.028815 0.131103
H14   H     H_    0.192436 0.329599 0.118654 0.117508
H15   H     H_    0.945957 0.646366 0.783193 0.141615
H16   H     H_    0.807571 0.670408 0.881339 0.117509
H17   H     H_    0.948512 0.633816 0.971174 0.131104
H18   H     H_    0.418947 0.321308 0.869291 0.102485
H19   H     H_    0.581053 0.678692 0.130709 0.102485
H20   H     H_    0.246187 0.865588 0.136334 0.098498
H21   H     H_    0.753812 0.134425 0.863677 0.098498
H22   H     H_    0.143799 0.775988 0.343803 0.099862
H23   H     H_    0.856197 0.224017 0.656206 0.099862
H24   H     H_    0.216103 0.518850 0.920788 0.119949
N1    N     N_R   0.500030 0.500030 0.852070 -0.218492
N2    N     N_R   0.499970 0.499970 0.147930 -0.218491
O1    O     O_R   0.499990 0.319660 0.618740 -0.511285
O2    O     O_R   0.500010 0.680340 0.381260 -0.511284
O3    O     O_R   0.499990 0.319630 0.381170 -0.518456
O4    O     O_R   0.500010 0.680370 0.618830 -0.518456
O5    O     O_R   0.319650 0.500020 0.618780 -0.515374
O6    O     O_R   0.680350 0.499980 0.381220 -0.515373
O7    O     O_R   0.319640 0.500000 0.381210 -0.480170
O8    O     O_R   0.680360 0.500000 0.618790 -0.480170

loop_
_geom_bond_atom_site_label_1
_geom_bond_atom_site_label_2
_ccdc_geom_bond_type
C25   C31   A    
C2    C4    A    
C32   H5    S    
C9    O5    A    
C19   C28   S    
C9    C29   S    
C10   C23   S    
C20   H24   S    
C5    C7    A    
C34   H7    S    
C11   C22   A    
C1    O3    A    
Cu1   Cu2   S    
C7    H18   S    
C27   H14   S    
Cu1   O5    S    
C28   H17   S    
C1    C4    S    
C9    O7    A    
Cu2   O6    S    
C29   C31   A    
Cu2   O2    S    
C25   H3    S    
C16   C31   S    
C2    H8    S    
C17   C30   S    
C28   H16   S    
C26   H4    S    
C4    C32   A    
C15   H23   S    
C26   C29   A    
Cu2   N2    S    
C33   H6    S    
C10   O8    A    
C6    N1    A    
C16   C18   A    
C13   C24   A    
C11   C14   A    
C20   C22   A    
C5    N2    A    
C26   C30   A    
C10   O6    A    
C23   C25   A    
C13   C15   A    
C14   H22   S    
C28   H15   S    
C14   C16   A    
C13   H21   S    
C11   H20   S    
C5    H9    S    
C24   H12   S    
C23   C30   A    
C1    O1    A    
Cu2   O7    S    
C2    C33   A    
C18   C20   A    
Cu1   N1    S    
C8    H19   S    
C21   C24   A    
C27   H11   S    
C15   C17   A    
C12   O2    A    
C3    C33   A    
Cu2   O3    S    
C21   H2    S    
C6    C8    A    
C3    C12   S    
C6    H10   S    
C3    C34   A    
C17   C19   A    
Cu1   O4    S    
C22   H1    S    
C12   O4    A    
Cu1   O1    S    
C7    N1    A    
C18   C27   S    
C27   H13   S    
Cu1   O8    S    
C8    N2    A    
C19   C21   A    
C32   C34   A    
