data_mof_unit_22814.cif
_audit_creation_date              2012-12-10T17:05:19-0500
_audit_creation_method            fapswitch 2.2
_symmetry_space_group_name_H-M    P1
_symmetry_Int_Tables_number       1
_space_group_crystal_system       triclinic
_cell_length_a                    10.022908
_cell_length_b                    10.663352
_cell_length_c                    15.315062
_cell_angle_alpha                 90.312745
_cell_angle_beta                  68.068592
_cell_angle_gamma                 91.299159
_cell_volume                      1517.98635547

loop_
_atom_site_label
_atom_site_type_symbol
_atom_type_description
_atom_site_fract_x
_atom_site_fract_y
_atom_site_fract_z
_atom_type_partial_charge
C1    C     C_R   0.503445 0.737682 0.497302 0.926272
C2    C     C_R   0.400597 0.422682 0.918120 0.094974
C3    C     C_R   0.256910 0.450163 0.975147 0.087388
C4    C     C_R   0.497692 0.387246 0.960685 0.039013
C5    C     C_R   0.454597 0.400416 0.059224 0.038241
C6    C     C_R   0.304454 0.404430 0.115700 0.150411
C7    C     C_R   0.208819 0.434269 0.072305 -0.268799
C8    C     C_R   0.636960 0.341643 0.908913 -0.186831
C9    C     C_R   0.735378 0.323580 0.952149 -0.194997
C10   C     C_R   0.702138 0.361888 0.044947 0.168282
C11   C     C_R   0.564033 0.408493 0.096292 0.090997
C12   C     C_R   0.409601 0.499241 0.676881 0.911997
C13   C     C_R   0.805203 0.358558 0.086786 -0.213035
C14   C     C_R   0.772910 0.406837 0.177362 -0.206738
C15   C     C_R   0.543405 0.473600 0.178991 -0.232691
C16   C     C_2   0.630194 0.070559 0.452351 -0.141933
C17   C     C_2   0.508183 0.132323 0.472537 -0.395825
C18   C     C_2   0.630312 0.935274 0.439334 0.184952
C19   C     C_2   0.511362 0.870804 0.494454 -0.389027
C20   C     C_2   0.089600 0.406445 0.470258 -0.133541
C21   C     C_2   0.943937 0.410896 0.463196 -0.146487
C22   C     C_R   0.501453 0.262501 0.494524 0.949550
C23   C     C_R   0.589674 0.496704 0.323460 0.844893
C24   C     C_R   0.351717 0.484878 0.779863 -0.139990
C25   C     C_R   0.641443 0.465804 0.223347 -0.056401
C26   C     C_R   0.161794 0.491889 0.934487 -0.232783
C27   C     C_R   0.207663 0.509850 0.837546 0.274054
C28   C     C_R   0.445526 0.441153 0.820927 -0.285780
H1    H     H_    0.095799 0.444963 0.114502 0.140474
H2    H     H_    0.909084 0.317340 0.050188 0.145162
H3    H     H_    0.729108 0.118293 0.448560 0.171882
H4    H     H_    0.411928 0.087490 0.468853 0.158993
H5    H     H_    0.417326 0.916364 0.543671 0.145607
H6    H     H_    0.149895 0.321303 0.447476 0.163882
H7    H     H_    0.095654 0.582152 0.514628 0.177637
H8    H     H_    0.913121 0.333825 0.427638 0.153529
H9    H     H_    0.877831 0.567125 0.538007 0.176373
H10   H     H_    0.450747 0.531914 0.209377 0.149758
H11   H     H_    0.848766 0.396569 0.211776 0.147675
H12   H     H_    0.840468 0.287259 0.911261 0.164377
H13   H     H_    0.052054 0.513636 0.978456 0.175447
H14   H     H_    0.555813 0.425957 0.775981 0.178763
H15   H     H_    0.670808 0.315739 0.835735 0.153513
N1    N     N_2   0.148330 0.498670 0.499030 -0.173136
N2    N     N_2   0.852680 0.498640 0.499000 -0.188950
O1    O     O_R   0.386950 0.680940 0.500010 -0.599570
O2    O     O_R   0.613110 0.680900 0.499990 -0.615871
O3    O     O_R   0.322330 0.500030 0.632270 -0.551876
O4    O     O_R   0.548480 0.499990 0.632240 -0.610741
O5    O     O_R   0.386890 0.319100 0.500010 -0.613413
O6    O     O_R   0.613050 0.319060 0.499990 -0.612733
O7    O     O_R   0.451520 0.500010 0.367760 -0.613310
O8    O     O_R   0.677670 0.499970 0.367730 -0.617889
Zn1   Zn    Zn3+2 0.349000 0.500030 0.500020 0.972673
Zn2   Zn    Zn3+2 0.651000 0.499970 0.499980 0.932592
C29   C     C_3   0.763358 0.872009 0.370377 -0.339460
C30   C     C_3   0.862146 0.959217 0.292973 -0.900085
H16   H     H_    0.799954 0.006932 0.256603 0.272456
H17   H     H_    0.915968 0.030306 0.322625 0.249396
H18   H     H_    0.947060 0.903407 0.240353 0.256589
H19   H     H_    0.826127 0.832363 0.409676 0.216329
H20   H     H_    0.729037 0.793856 0.334555 0.203682
Br1   Br    Br    0.068719 0.574121 0.791277 -0.527235
C31   C     C_3   0.238889 0.357498 0.217240 -0.411348
C32   C     C_3   0.281355 0.222846 0.226165 -0.841923
H21   H     H_    0.254457 0.160802 0.176280 0.263592
H22   H     H_    0.398136 0.217993 0.211753 0.266984
H23   H     H_    0.221405 0.187945 0.298823 0.232972
H24   H     H_    0.265167 0.418390 0.267238 0.215881
H25   H     H_    0.119407 0.357551 0.242756 0.195159

loop_
_geom_bond_atom_site_label_1
_geom_bond_atom_site_label_2
_ccdc_geom_bond_type
C18   C29   S    
C2    C4    A    
C9    H12   S    
C24   C27   A    
C15   H10   S    
C23   O8    A    
C6    C7    A    
C7    H1    S    
C31   H25   S    
C9    C10   A    
C12   C24   S    
O6    Zn2   S    
C17   C22   S    
C8    H15   S    
C4    C8    A    
C12   O3    A    
C32   H23   S    
C20   H6    S    
C31   C32   S    
O1    Zn1   S    
O8    Zn2   S    
C2    C3    A    
C23   O7    A    
C30   H16   S    
C21   H8    S    
O4    Zn2   S    
C31   H24   S    
C29   C30   S    
C16   H3    S    
O3    Zn1   S    
H7    N1    S    
C26   C27   A    
O5    Zn1   S    
C27   Br1   S    
C21   N2    D    
C28   H14   S    
C20   N1    D    
O7    Zn1   S    
C5    C11   A    
C3    C7    A    
C23   C25   S    
C14   C25   A    
C22   O6    A    
C5    C6    A    
C29   H20   S    
C1    O1    A    
C30   H17   S    
C12   O4    A    
C15   C25   A    
C10   C11   A    
H9    N2    S    
C22   O5    A    
C16   C17   D    
N1    Zn1   S    
C13   H2    S    
C18   C19   D    
C20   C21   S    
N2    Zn2   S    
O2    Zn2   S    
C32   H21   S    
C19   H5    S    
C6    C31   S    
C3    C26   A    
C17   H4    S    
C29   H19   S    
C4    C5    A    
C30   H18   S    
C2    C28   A    
C14   H11   S    
C13   C14   A    
C1    C19   S    
C11   C15   A    
C16   C18   S    
C1    O2    A    
C24   C28   A    
C26   H13   S    
C8    C9    A    
C32   H22   S    
C10   C13   A    
