data_mof_unit_6917.cif
_audit_creation_date              2012-12-10T17:07:07-0500
_audit_creation_method            fapswitch 2.2
_symmetry_space_group_name_H-M    P1
_symmetry_Int_Tables_number       1
_space_group_crystal_system       triclinic
_cell_length_a                    18.321832
_cell_length_b                    18.432709
_cell_length_c                    18.341921
_cell_angle_alpha                 120.28977
_cell_angle_beta                  120.19509
_cell_angle_gamma                 59.809252
_cell_volume                      4357.73449461

loop_
_atom_site_label
_atom_site_type_symbol
_atom_type_description
_atom_site_fract_x
_atom_site_fract_y
_atom_site_fract_z
_atom_type_partial_charge
C1    C     C_R   0.140300 0.860743 0.640885 0.847155
C2    C     C_R   0.526226 0.317705 0.579446 0.415699
C3    C     C_R   0.581181 0.266685 0.526791 -0.197868
C4    C     C_R   0.864100 0.140424 0.360272 0.813107
C5    C     C_R   0.672989 0.228280 0.565087 -0.121839
C6    C     C_R   0.831362 0.337927 0.436471 -0.140125
C7    C     C_R   0.791271 0.427982 0.478125 -0.136898
C8    C     C_R   0.708201 0.474696 0.430613 -0.178277
C9    C     C_R   0.670154 0.434485 0.339244 -0.153792
C10   C     C_R   0.714595 0.345407 0.293966 0.104780
C11   C     C_R   0.787905 0.293173 0.346167 0.094808
C12   C     C_R   0.826273 0.271342 0.934729 -0.176471
C13   C     C_R   0.813481 0.198749 0.306076 -0.104240
C14   C     C_R   0.781018 0.160234 0.212866 -0.217073
C15   C     C_R   0.722891 0.213532 0.159870 -0.213101
C16   C     C_R   0.140252 0.139811 0.641576 0.786454
C17   C     C_R   0.689129 0.306177 0.199113 -0.095466
C18   C     C_R   0.739164 0.861810 0.426385 0.293015
C19   C     C_R   0.740950 0.826908 0.480489 0.246495
C20   C     C_R   0.726182 0.744131 0.439262 -0.016707
C21   C     C_R   0.712897 0.699054 0.346977 -0.241222
C22   C     C_R   0.720290 0.730778 0.295772 0.038136
C23   C     C_R   0.787660 0.261050 0.842518 0.049289
C24   C     C_R   0.750054 0.804062 0.342148 -0.058058
C25   C     C_R   0.792124 0.815537 0.303642 -0.017868
C26   C     C_R   0.781287 0.771485 0.212482 -0.192883
C27   C     C_R   0.732335 0.714087 0.160763 -0.200896
C28   C     C_R   0.856445 0.863486 0.359779 0.868474
C29   C     C_R   0.701391 0.692420 0.200848 -0.044934
C30   C     C_R   0.109912 0.912995 0.805050 -0.136148
C31   C     C_R   0.092785 0.936039 0.881273 -0.114220
C32   C     C_R   0.145981 0.883281 0.935281 -0.136700
C33   C     C_R   0.216145 0.806598 0.912951 -0.143763
C34   C     C_R   0.842669 0.207437 0.788506 0.083962
C35   C     C_R   0.232625 0.779508 0.833799 0.099365
C36   C     C_R   0.178795 0.833483 0.778676 0.038042
C37   C     C_R   0.197049 0.807887 0.700533 -0.226271
C38   C     C_R   0.270332 0.731173 0.680006 0.417456
C39   C     C_R   0.322645 0.679910 0.735474 -0.254446
C40   C     C_R   0.141132 0.863763 0.360700 0.847771
C41   C     C_R   0.303473 0.701752 0.810013 -0.147831
C42   C     C_R   0.347251 0.795942 0.438177 0.498396
C43   C     C_R   0.423762 0.730593 0.470858 -0.118210
C44   C     C_R   0.455497 0.646909 0.412097 -0.235997
C45   C     C_R   0.695488 0.303650 0.803695 -0.100208
C46   C     C_R   0.416424 0.631377 0.320331 -0.151632
C47   C     C_R   0.338980 0.696656 0.286623 0.055377
C48   C     C_R   0.295056 0.771723 0.345528 -0.036811
C49   C     C_R   0.201244 0.814480 0.308013 -0.052412
C50   C     C_R   0.162633 0.799010 0.215697 -0.198701
C51   C     C_R   0.214619 0.740760 0.160923 -0.197791
C52   C     C_R   0.860584 0.139915 0.640138 0.803202
C53   C     C_R   0.303163 0.689343 0.195856 -0.054828
C54   C     C_R   0.280716 0.113420 0.809789 -0.142723
C55   C     C_R   0.348395 0.100561 0.888928 -0.118793
C56   C     C_R   0.656974 0.292169 0.711380 0.008542
C57   C     C_R   0.401521 0.154619 0.942832 -0.126305
C58   C     C_R   0.387376 0.221914 0.917973 -0.167416
C59   C     C_R   0.320418 0.235173 0.836970 0.095696
C60   C     C_R   0.266149 0.180018 0.781973 0.097318
C61   C     C_R   0.196667 0.195543 0.702642 -0.057783
C62   C     C_R   0.179100 0.266754 0.681145 -0.180623
C63   C     C_R   0.232088 0.320475 0.734721 -0.177903
C64   C     C_R   0.935339 0.167028 0.828548 -0.172620
C65   C     C_R   0.303740 0.304152 0.810961 -0.076347
C66   C     C_R   0.642893 0.637705 0.141228 0.803630
C67   C     C_R   0.712094 0.239150 0.657454 0.080449
C68   C     C_R   0.359841 0.360121 0.861699 0.797910
C69   C     C_R   0.636583 0.360475 0.140697 0.782315
C70   C     C_R   0.359797 0.641736 0.861837 0.838866
C71   C     C_R   0.359722 0.636771 0.139886 0.792398
C72   C     C_R   0.639327 0.360175 0.859823 0.786483
C73   C     C_R   0.972090 0.178187 0.919542 -0.184539
C74   C     C_R   0.917596 0.229041 0.972944 0.168689
C75   C     C_3   0.720097 0.703360 0.489317 -0.372557
C76   C     C_3   0.637074 0.759906 0.519310 -0.234413
C77   C     C_3   0.649087 0.743922 0.599274 -0.807972
C78   C     C_R   0.804381 0.196608 0.696298 -0.088114
C79   C     C_3   0.956329 0.239299 0.070904 -0.439737
C80   C     C_3   0.922377 0.190963 0.089085 -0.342334
C81   C     C_3   0.959661 0.202761 0.188370 -0.833885
C82   C     C_R   0.563813 0.330873 0.671138 -0.225305
H1    H     H_    0.552870 0.255512 0.455578 0.190012
H2    H     H_    0.721122 0.684475 0.089443 0.175472
H3    H     H_    0.069267 0.959324 0.768701 0.141806
H4    H     H_    0.038718 0.995798 0.899310 0.151486
H5    H     H_    0.133665 0.902554 0.995524 0.141446
H6    H     H_    0.257707 0.770204 0.959404 0.145709
H7    H     H_    0.378269 0.620738 0.719611 0.207332
H8    H     H_    0.092383 0.832925 0.185925 0.169254
H9    H     H_    0.461847 0.746257 0.541652 0.183134
H10   H     H_    0.043286 0.146419 0.948125 0.132911
H11   H     H_    0.514278 0.596491 0.437720 0.159450
H12   H     H_    0.897286 0.305376 0.475418 0.167904
H13   H     H_    0.445255 0.567301 0.276114 0.149738
H14   H     H_    0.185012 0.734970 0.090918 0.171676
H15   H     H_    0.125126 0.279617 0.621249 0.159273
H16   H     H_    0.239166 0.071899 0.772311 0.137114
H17   H     H_    0.358713 0.049293 0.909235 0.146240
H18   H     H_    0.453067 0.145299 0.004971 0.148377
H19   H     H_    0.428147 0.264246 0.964045 0.143798
H20   H     H_    0.218431 0.373908 0.715335 0.173821
H21   H     H_    0.786082 0.312325 0.978172 0.121523
H22   H     H_    0.519265 0.370141 0.710077 0.162221
H23   H     H_    0.823604 0.460850 0.547896 0.146245
H24   H     H_    0.712476 0.188434 0.521032 0.171324
H25   H     H_    0.801250 0.088544 0.180510 0.181196
H26   H     H_    0.572773 0.983046 0.461668 0.372657
H27   H     H_    0.900900 0.872739 0.615589 0.353943
H28   H     H_    0.653885 0.674734 0.580456 0.224060
H29   H     H_    0.710336 0.756206 0.655629 0.294503
H30   H     H_    0.590877 0.790600 0.622872 0.272081
H31   H     H_    0.622344 0.832026 0.538396 0.283785
H32   H     H_    0.577650 0.743463 0.462486 0.224972
H33   H     H_    0.715239 0.635801 0.446037 0.172419
H34   H     H_    0.674074 0.542829 0.463919 0.134445
H35   H     H_    0.783280 0.691753 0.545674 0.248371
H36   H     H_    0.432091 0.598311 0.604298 0.343165
H37   H     H_    0.438636 0.976709 0.572911 0.398077
H38   H     H_    0.034044 0.176180 0.211628 0.272040
H39   H     H_    0.936970 0.274398 0.228570 0.263872
H40   H     H_    0.935194 0.165869 0.199099 0.252729
H41   H     H_    0.847997 0.217520 0.067963 0.229435
H42   H     H_    0.943289 0.118635 0.049978 0.230433
H43   H     H_    0.030766 0.211758 0.092668 0.212101
H44   H     H_    0.937212 0.311438 0.111088 0.207390
H45   H     H_    0.604566 0.473265 0.306300 0.160529
H46   H     H_    0.423663 0.417577 0.459922 0.359228
H47   H     H_    0.703398 0.181735 0.087774 0.183429
H48   H     H_    0.810813 0.781164 0.180992 0.172116
H49   H     H_    0.704877 0.635210 0.318856 0.200776
H50   H     H_    0.980452 0.126767 0.790176 0.107696
O1    O     O_3   1.000000 0.000000 0.500000 -0.512096
O2    O     O_R   0.323460 0.615830 0.884170 -0.639502
O3    O     O_R   0.444880 0.615840 0.176480 -0.646483
O4    O     O_R   0.055060 0.884200 0.615800 -0.668664
O5    O     O_R   0.615800 0.444940 0.884180 -0.642387
O6    O     O_R   0.323440 0.615840 0.055040 -0.650189
O7    O     O_R   0.615780 0.323500 0.884180 -0.620417
O8    O     O_R   0.615760 0.323500 0.055050 -0.646984
O9    O     O_R   0.444910 0.615830 0.884180 -0.636201
O10   O     O_R   0.615780 0.615830 0.176490 -0.653932
O11   O     O_R   0.323430 0.444950 0.884170 -0.635799
O12   O     O_R   0.055100 0.176520 0.615800 -0.661790
O13   O     O_R   0.884210 0.176520 0.444920 -0.656447
O14   O     O_R   0.176540 0.055080 0.615800 -0.581599
O15   O     O_R   0.884190 0.884200 0.323480 -0.645746
O16   O     O_R   0.176540 0.884190 0.444930 -0.569480
O17   O     O_R   0.884180 0.055090 0.615790 -0.563923
O18   O     O_R   0.055100 0.884190 0.323490 -0.660860
O19   O     O_R   0.884190 0.176530 0.615790 -0.663327
O20   O     O_2   0.719190 0.034405 0.536382 -0.217002
O21   O     O_2   0.688392 0.003275 0.379542 -0.320081
O22   O     O_3   0.573708 0.000599 0.419340 -0.492003
O23   O     O_R   0.884180 0.884200 0.444920 -0.632400
O24   O     O_2   0.689390 0.960905 0.619990 -0.242272
O25   O     O_2   0.805903 0.826382 0.652242 -0.324672
O26   O     O_3   0.850147 0.925556 0.632255 -0.456837
O27   O     O_2   0.215455 0.696772 0.502807 -0.272413
O28   O     O_2   0.338399 0.757394 0.599272 -0.307197
O29   O     O_3   0.372489 0.591228 0.566288 -0.510550
O30   O     O_2   0.267417 0.972614 0.459451 -0.314434
O31   O     O_2   0.335382 0.928563 0.592393 -0.252535
O32   O     O_3   0.440415 0.916249 0.528486 -0.588074
O33   O     O_2   0.368281 0.295094 0.501048 -0.220221
O34   O     O_R   0.176510 0.884190 0.615800 -0.575292
O35   O     O_2   0.370507 0.446753 0.595897 -0.285948
O36   O     O_3   0.386025 0.382292 0.439175 -0.486442
O37   O     O_R   0.884210 0.055080 0.323480 -0.639939
O38   O     O_3   0.499970 0.500030 0.999970 -0.485663
O39   O     O_R   0.615800 0.615830 0.055050 -0.640798
O40   O     O_R   0.444880 0.323510 0.884180 -0.632779
O41   O     O_R   0.615760 0.444950 0.176490 -0.666196
S1    S     S_3+6 0.682583 0.977950 0.442069 0.079754
S2    S     S_3+6 0.770302 0.884607 0.598811 0.053797
S3    S     S_3+6 0.298221 0.695312 0.584486 0.052231
S4    S     S_3+6 0.343545 0.907486 0.505750 0.037830
S5    S     S_3+6 0.409579 0.362082 0.529794 0.070885
Zn1   Zn    Zn3+2 0.956630 0.130130 0.543370 0.956430
Zn2   Zn    Zn3+2 0.130140 0.956620 0.543380 1.099960
Zn3   Zn    Zn3+2 0.956630 0.956620 0.369870 1.002997
Zn4   Zn    Zn3+2 0.956610 0.956630 0.543370 1.030588
Zn5   Zn    Zn3+2 0.543340 0.369890 0.956600 0.982815
Zn6   Zn    Zn3+2 0.543340 0.543410 0.130100 0.945714
Zn7   Zn    Zn3+2 0.369830 0.543410 0.956590 0.981148
Zn8   Zn    Zn3+2 0.543370 0.543400 0.956600 0.982479

loop_
_geom_bond_atom_site_label_1
_geom_bond_atom_site_label_2
_ccdc_geom_bond_type
O10   Zn6   S    
C63   C65   A    
H36   O29   S    
C17   C69   S    
C23   C45   A    
C22   C29   A    
C12   C74   A    
O38   Zn5   S    
C27   C29   A    
O11   Zn7   S    
C73   C74   A    
C35   C36   A    
C75   H35   S    
C5    C67   A    
O23   Zn4   S    
C7    C8    A    
O24   S2    D    
C54   C60   A    
C25   C28   S    
C12   C23   A    
C26   C27   A    
C9    H45   S    
C18   C24   A    
C36   C37   A    
C16   O12   A    
C33   H6    S    
C71   O3    A    
C30   C31   A    
C10   C17   A    
C40   C49   S    
C68   O11   A    
C16   O14   A    
C18   C19   A    
C4    C13   S    
C77   H29   S    
C21   H49   S    
O30   S4    D    
C44   H11   S    
C46   C47   A    
O19   Zn1   S    
C50   H8    S    
C72   O7    A    
C46   H13   S    
C64   H50   S    
C45   C56   A    
C52   O17   A    
C6    H12   S    
C15   H47   S    
O31   S4    D    
C28   O23   A    
C76   H32   S    
C64   C73   A    
C7    H23   S    
O18   Zn3   S    
C1    O4    A    
C9    C10   A    
C26   H48   S    
C1    C37   S    
C51   H14   S    
C47   C53   A    
O20   S1    D    
O15   Zn3   S    
C69   O8    A    
C79   H43   S    
C59   C60   A    
O16   Zn2   S    
C31   H4    S    
C13   C14   A    
C45   C72   S    
O33   S5    D    
O28   S3    D    
O2    Zn7   S    
O38   Zn8   S    
C77   H28   S    
C67   C78   A    
C69   O41   A    
O3    Zn6   S    
C63   H20   S    
C52   C78   S    
H27   O26   S    
C44   C46   A    
C76   H31   S    
C71   O6    A    
C5    H24   S    
C72   O5    A    
O8    Zn5   S    
C4    O37   A    
C40   O16   A    
C40   O18   A    
C66   O39   A    
O6    Zn7   S    
C76   C77   S    
O41   Zn6   S    
C12   H21   S    
C39   C41   A    
C6    C11   A    
O29   S3    S    
O22   S1    S    
C8    C9    A    
C25   C26   A    
C57   H18   S    
O21   S1    D    
C43   H9    S    
C29   C66   S    
C20   C75   S    
C81   H39   S    
C60   C61   A    
C51   C53   A    
C77   H30   S    
C75   C76   S    
C37   C38   A    
C62   H15   S    
O26   S2    S    
C38   S3    S    
C47   C48   A    
C81   H38   S    
O12   Zn1   S    
C23   C34   A    
O13   Zn1   S    
C62   C63   A    
C34   C64   A    
C50   C51   A    
O14   Zn2   S    
C58   H19   S    
C42   C48   A    
C24   C25   A    
C30   H3    S    
O37   Zn3   S    
O25   S2    D    
C18   S1    S    
O1    Zn3   S    
C48   C49   A    
C79   H44   S    
C74   C79   S    
C55   C57   A    
C43   C44   A    
C3    H1    S    
O17   Zn4   S    
C22   C24   A    
C2    C82   A    
H26   O22   S    
C75   H33   S    
C16   C61   S    
C65   C68   S    
O4    Zn4   S    
C53   C71   S    
O7    Zn5   S    
C70   O2    A    
O5    Zn8   S    
C80   H42   S    
C15   C17   A    
C27   H2    S    
C54   C55   A    
C14   H25   S    
C70   O9    A    
O39   Zn8   S    
O38   Zn6   S    
C31   C32   A    
O1    Zn1   S    
C73   H10   S    
C80   C81   S    
C3    C5    A    
H37   O32   S    
O1    Zn2   S    
C56   C82   A    
C6    C7    A    
C66   O10   A    
C56   C67   A    
C2    S5    S    
C30   C36   A    
C81   H40   S    
O27   S3    D    
C32   C33   A    
C19   C20   A    
C2    C3    A    
C58   C59   A    
C34   C78   A    
C11   C13   A    
O40   Zn5   S    
C57   C58   A    
C38   C39   A    
C1    O34   A    
C52   O19   A    
O36   S5    S    
C4    O13   A    
O38   Zn7   S    
C33   C35   A    
C61   C62   A    
C35   C41   A    
C19   S2    S    
C10   C11   A    
C8    H34   S    
C79   C80   S    
O1    Zn4   S    
C32   H5    S    
O35   S5    D    
O34   Zn2   S    
C20   C21   A    
C49   C50   A    
C42   C43   A    
C55   H17   S    
H46   O36   S    
C82   H22   S    
C14   C15   A    
C54   H16   S    
O9    Zn8   S    
C42   S4    S    
C21   C22   A    
C39   H7    S    
C59   C65   A    
O32   S4    S    
C68   O40   A    
C41   C70   S    
C28   O15   A    
C80   H41   S    
