data_mof_unit_54087.cif
_audit_creation_date              2012-12-10T18:01:15-0500
_audit_creation_method            fapswitch 2.2
_symmetry_space_group_name_H-M    P1
_symmetry_Int_Tables_number       1
_space_group_crystal_system       triclinic
_cell_length_a                    9.484499
_cell_length_b                    10.829129
_cell_length_c                    17.322532
_cell_angle_alpha                 90.272169
_cell_angle_beta                  86.742816
_cell_angle_gamma                 90.017336
_cell_volume                      1776.28336234

loop_
_atom_site_label
_atom_site_type_symbol
_atom_type_description
_atom_site_fract_x
_atom_site_fract_y
_atom_site_fract_z
_atom_type_partial_charge
C1    C     C_R   0.500106 0.738001 0.499584 0.773439
C2    C     C_R   0.499959 0.261962 0.499902 0.789646
C3    C     C_R   0.628117 0.936136 0.500503 -0.193866
C4    C     C_R   0.372033 0.063727 0.498354 -0.198639
C5    C     C_R   0.628058 0.063856 0.500637 -0.190562
C6    C     C_R   0.372123 0.936014 0.498098 -0.186737
C7    C     C_R   0.500001 0.128138 0.499660 -0.017098
C8    C     C_R   0.500126 0.871763 0.499354 -0.016311
C9    C     C_R   0.920635 0.579034 0.546806 -0.033108
C10   C     C_R   0.079387 0.421194 0.452987 -0.031723
C11   C     C_R   0.069666 0.579088 0.546633 -0.034610
C12   C     C_R   0.930285 0.421071 0.453112 -0.040804
C13   C     C_R   0.482917 0.502460 0.650067 0.799399
C14   C     C_R   0.517435 0.497803 0.349571 0.794499
C15   C     C_R   0.481722 0.505371 0.734651 -0.075968
C16   C     C_R   0.520834 0.485775 0.264557 -0.090351
C17   C     C_R   0.592077 0.441942 0.768051 -0.259951
C18   C     C_R   0.392505 0.453894 0.232253 -0.259243
C19   C     C_R   0.616077 0.454368 0.846212 0.130523
C20   C     C_R   0.382601 0.438429 0.152982 0.125781
C21   C     C_R   0.522252 0.527447 0.892717 0.124784
C22   C     C_R   0.504719 0.454711 0.104476 0.130730
C23   C     C_R   0.410163 0.588948 0.860685 -0.223074
C24   C     C_R   0.633474 0.485582 0.135375 -0.216818
C25   C     C_R   0.389081 0.580636 0.781492 0.072815
C26   C     C_R   0.644194 0.501931 0.215044 0.074528
C27   C     C_2   0.535805 0.538389 0.975659 -0.247006
C28   C     C_2   0.499586 0.443041 0.020855 -0.256232
Cu1   Cu    Cu3+1 0.359340 0.499980 0.500000 0.936770
Cu2   Cu    Cu3+1 0.640660 0.500020 0.500000 0.931880
H1    H     H_    0.664209 0.385473 0.732144 0.158348
H2    H     H_    0.297207 0.440980 0.268890 0.162894
H3    H     H_    0.457977 0.358748 0.996419 0.164563
H4    H     H_    0.566615 0.626405 0.999994 0.161405
H5    H     H_    0.340644 0.645977 0.897745 0.139419
H6    H     H_    0.726110 0.497681 0.096465 0.138384
H7    H     H_    0.728189 0.888102 0.501381 0.148200
H8    H     H_    0.271940 0.111723 0.497542 0.148666
H9    H     H_    0.728103 0.111971 0.501582 0.147356
H10   H     H_    0.272079 0.887883 0.497203 0.151900
H11   H     H_    0.860406 0.642310 0.584237 0.118006
H12   H     H_    0.139690 0.358235 0.415367 0.112490
H13   H     H_    0.122264 0.642584 0.583540 0.116834
H14   H     H_    0.877717 0.357881 0.415671 0.114051
N1    N     N_R   0.147930 0.499970 0.499980 -0.152776
N2    N     N_R   0.852070 0.500030 0.500020 -0.154194
O1    O     O_R   0.381260 0.680340 0.500000 -0.585645
O2    O     O_R   0.618740 0.319660 0.500000 -0.589829
O3    O     O_R   0.618830 0.680370 0.500010 -0.589892
O4    O     O_R   0.381170 0.319630 0.499990 -0.588166
O5    O     O_R   0.367440 0.500000 0.613600 -0.581851
O6    O     O_R   0.632560 0.500000 0.386400 -0.582113
O7    O     O_R   0.605010 0.500030 0.613600 -0.586074
O8    O     O_R   0.394990 0.499970 0.386400 -0.586509
C29   C     C_3   0.787557 0.537014 0.243205 -0.393435
C30   C     C_3   0.791816 0.673087 0.268319 -0.311875
C31   C     C_3   0.931886 0.704491 0.302988 -0.834545
H15   H     H_    0.945446 0.648786 0.355703 0.266283
H16   H     H_    0.021422 0.685990 0.260344 0.243709
H17   H     H_    0.933132 0.803790 0.319212 0.233812
H18   H     H_    0.778563 0.732750 0.217178 0.204423
H19   H     H_    0.704564 0.694589 0.311718 0.226994
H20   H     H_    0.817257 0.474122 0.289892 0.212143
H21   H     H_    0.871165 0.523355 0.196239 0.172823
C32   C     C_3   0.276174 0.661481 0.749484 -0.418578
C33   C     C_3   0.341679 0.778680 0.713097 -0.319227
C34   C     C_3   0.228774 0.870464 0.691195 -0.857930
H22   H     H_    0.280258 0.954564 0.666350 0.252463
H23   H     H_    0.161239 0.829682 0.647531 0.240786
H24   H     H_    0.161691 0.897831 0.743102 0.248117
H25   H     H_    0.409695 0.824404 0.754968 0.215954
H26   H     H_    0.408694 0.754388 0.660664 0.212406
H27   H     H_    0.214751 0.609557 0.707623 0.209641
H28   H     H_    0.198290 0.689101 0.796888 0.189625
C35   C     C_3   0.238883 0.410857 0.122619 -0.427034
C36   C     C_3   0.196407 0.276249 0.138026 -0.345254
C37   C     C_3   0.051258 0.248221 0.108378 -0.865714
H29   H     H_    0.970046 0.309893 0.136714 0.249122
H30   H     H_    0.052871 0.260923 0.044773 0.254041
H31   H     H_    0.022244 0.150988 0.121723 0.242970
H32   H     H_    0.275638 0.213682 0.108643 0.219122
H33   H     H_    0.193296 0.257547 0.201150 0.214164
H34   H     H_    0.159266 0.473611 0.151607 0.189741
H35   H     H_    0.236487 0.429626 0.059763 0.207003
C38   C     C_3   0.746851 0.394819 0.876344 -0.414224
C39   C     C_3   0.879964 0.466677 0.849049 -0.343700
C40   C     C_3   0.011737 0.413856 0.883307 -0.865688
H36   H     H_    0.024988 0.314957 0.867219 0.256993
H37   H     H_    0.106311 0.465480 0.860671 0.247639
H38   H     H_    0.003755 0.423075 0.947284 0.249106
H39   H     H_    0.893986 0.462829 0.784921 0.219142
H40   H     H_    0.868656 0.565099 0.866965 0.217802
H41   H     H_    0.741708 0.390468 0.940358 0.215272
H42   H     H_    0.754704 0.297830 0.855149 0.187744

loop_
_geom_bond_atom_site_label_1
_geom_bond_atom_site_label_2
_ccdc_geom_bond_type
C29   C30   S    
C10   H12   S    
C1    C8    S    
C2    C7    S    
C40   H36   S    
C26   C29   S    
C37   H29   S    
C24   H6    S    
Cu1   O1    S    
Cu2   O2    S    
C19   C21   A    
C24   C26   A    
C39   H39   S    
C35   H35   S    
C15   C25   A    
Cu1   O8    S    
C32   H27   S    
C30   C31   S    
C2    O4    A    
C13   O5    A    
C38   H41   S    
C14   O6    A    
C29   H20   S    
C11   H13   S    
C14   C16   S    
C18   C20   A    
C33   C34   S    
C21   C27   S    
C9    N2    A    
C22   C28   S    
C4    C7    A    
C13   O7    A    
Cu1   O4    S    
C37   H30   S    
C27   H4    S    
C16   C26   A    
Cu2   O7    S    
C33   H26   S    
C34   H22   S    
C6    H10   S    
C25   C32   S    
C36   C37   S    
C4    C6    A    
C3    C8    A    
C36   H33   S    
C5    C7    A    
C39   C40   S    
C1    O1    A    
C31   H17   S    
C6    C8    A    
C3    C5    A    
C38   C39   S    
C32   H28   S    
C20   C35   S    
Cu1   N1    S    
C34   H23   S    
C35   C36   S    
Cu1   Cu2   S    
C38   H42   S    
C33   H25   S    
C29   H21   S    
C10   N1    A    
C9    C11   A    
C10   C12   A    
C12   N2    A    
C14   O8    A    
Cu2   O3    S    
C20   C22   A    
C28   H3    S    
C23   H5    S    
C13   C15   S    
C17   H1    S    
C30   H19   S    
C11   N1    A    
C18   H2    S    
Cu1   O5    S    
C37   H31   S    
C15   C17   A    
C5    H9    S    
Cu2   O6    S    
Cu2   N2    S    
C4    H8    S    
C19   C38   S    
C36   H32   S    
C9    H11   S    
C34   H24   S    
C2    O2    A    
C21   C23   A    
C12   H14   S    
C39   H40   S    
C35   H34   S    
C31   H15   S    
C17   C19   A    
C22   C24   A    
C23   C25   A    
C31   H16   S    
C3    H7    S    
C16   C18   A    
C32   C33   S    
C40   H38   S    
C27   C28   D    
C40   H37   S    
C30   H18   S    
C1    O3    A    
