data_mof_unit_11067.cif
_audit_creation_date              2012-12-11T15:14:52-0500
_audit_creation_method            fapswitch 2.2
_symmetry_space_group_name_H-M    P1
_symmetry_Int_Tables_number       1
_space_group_crystal_system       triclinic
_cell_length_a                    11.317403
_cell_length_b                    11.230782
_cell_length_c                    18.420659
_cell_angle_alpha                 90.0411
_cell_angle_beta                  90.369703
_cell_angle_gamma                 120.522837
_cell_volume                      2016.81753401

loop_
_atom_site_label
_atom_site_type_symbol
_atom_type_description
_atom_site_fract_x
_atom_site_fract_y
_atom_site_fract_z
_atom_type_partial_charge
C1    C     C_R   0.540557 0.421565 0.637645 0.549003
C2    C     C_R   0.449670 0.524377 0.357486 0.532266
C3    C     C_R   0.480697 0.932812 0.144744 0.529465
C4    C     C_R   0.072833 0.548357 0.356634 0.534242
C5    C     C_3   0.389699 0.968523 0.481906 -0.138240
C6    C     C_3   0.620328 0.525945 0.043799 -0.194994
C7    C     C_3   0.990182 0.390945 0.475628 -0.149619
C8    C     C_3   0.503130 0.096396 0.037929 -0.177522
C9    C     C_3   0.600813 0.596464 0.479487 -0.140107
C10   C     C_3   0.914343 0.434970 0.044247 -0.157454
C11   C     C_3   0.973788 0.390122 0.981483 -0.171479
C12   C     C_R   0.892461 0.461739 0.862057 0.530216
C13   C     C_3   0.497067 0.563678 0.541220 -0.164015
C14   C     C_3   0.405398 0.000037 0.977822 -0.132310
C15   C     C_3   0.090417 0.478294 0.537112 -0.190879
C16   C     C_3   0.595385 0.594221 0.977425 -0.127441
C17   C     C_3   0.386277 0.878290 0.545967 -0.164574
C18   C     C_3   0.525502 0.093458 0.512015 -0.115946
C19   C     C_3   0.551425 0.385598 0.002657 -0.166973
C20   C     C_3   0.876343 0.411928 0.508115 -0.125295
C21   C     C_3   0.629591 0.129633 0.990991 -0.160693
C22   C     C_3   0.614260 0.470665 0.501594 -0.123468
C23   C     C_R   0.543324 0.059595 0.647075 0.530403
C24   C     C_3   0.899466 0.536091 0.992849 -0.147885
C25   C     C_3   0.121102 0.507981 0.000311 -0.157392
C26   C     C_3   0.376726 0.467294 0.489722 -0.139392
C27   C     C_3   0.411530 0.874839 0.010047 -0.099954
C28   C     C_3   0.138656 0.610858 0.491220 -0.135043
C29   C     C_3   0.454188 0.559673 0.008811 -0.107405
C30   C     C_3   0.473241 0.833092 0.501380 -0.166796
C31   C     C_3   0.516731 0.000420 0.575120 0.039009
C32   C     C_3   0.523853 0.453587 0.937871 0.034961
C33   C     C_3   0.978558 0.499594 0.569303 0.027576
C34   C     C_R   0.542337 0.425033 0.862664 0.543372
C35   C     C_3   0.530687 0.032462 0.932073 0.045694
C36   C     C_3   0.512504 0.441394 0.562444 0.014510
C37   C     C_3   0.958268 0.490619 0.931499 0.054036
C38   C     C_3   0.060588 0.549821 0.062984 0.048455
C39   C     C_3   0.481837 0.499379 0.428912 0.055560
C40   C     C_3   0.505629 0.973867 0.069806 0.047743
C41   C     C_3   0.036207 0.522803 0.431710 0.044990
C42   C     C_3   0.482030 0.491168 0.073735 0.054038
C43   C     C_3   0.477516 0.924644 0.438434 0.028568
C44   C     C_3   0.603463 0.955069 0.532358 0.174368
C45   C     C_R   0.933619 0.480046 0.644319 0.527630
C46   C     C_3   0.385393 0.418374 0.969531 0.177786
C47   C     C_3   0.026479 0.631258 0.524201 0.170650
C48   C     C_3   0.540618 0.913904 0.964577 0.165591
C49   C     C_3   0.392892 0.345284 0.511621 0.168724
C50   C     C_3   0.102093 0.606739 0.949054 0.158246
C51   C     C_3   0.044562 0.650002 0.012200 0.166907
C52   C     C_3   0.493206 0.375606 0.450087 0.172464
C53   C     C_3   0.632647 0.008431 0.024716 0.182141
C54   C     C_3   0.928521 0.546976 0.463467 0.163732
C55   C     C_3   0.412994 0.351907 0.034476 0.183671
C56   C     C_R   0.549731 0.071802 0.856663 0.535494
C57   C     C_3   0.610436 0.044708 0.469044 0.185691
C58   C     C_3   0.845981 0.057324 0.571391 -0.270081
C59   C     C_3   0.218440 0.379213 0.866517 -0.261650
C60   C     C_3   0.936837 0.784413 0.559416 -0.267871
C61   C     C_3   0.505320 0.754438 0.863849 -0.317791
C62   C     C_3   0.172460 0.148213 0.475313 -0.329540
C63   C     C_3   0.188662 0.673427 0.818864 -0.272327
C64   C     C_3   0.980968 0.807625 0.070430 -0.286245
C65   C     C_3   0.457575 0.265125 0.323651 -0.309143
C66   C     C_3   0.835798 0.107647 0.107228 -0.266857
C67   C     C_R   0.455333 0.517645 0.146210 0.533371
C68   C     C_3   0.783251 0.528093 0.356997 -0.317405
C69   C     C_3   0.304369 0.171453 0.133516 -0.284912
C70   C     C_3   0.738888 0.189136 0.361913 -0.281990
C71   C     C_R   0.457650 0.881217 0.362148 0.548178
C72   C     C_R   0.114705 0.575235 0.137288 0.553629
Cr1   Cr    Cr6+3 0.769930 0.543130 0.750000 0.965466
Cr2   Cr    Cr6+3 0.773200 0.230070 0.750000 0.964669
Cr3   Cr    Cr6+3 0.456870 0.226800 0.750000 0.983004
Cr4   Cr    Cr6+3 0.543130 0.769930 0.250000 0.979990
Cr5   Cr    Cr6+3 0.230070 0.773200 0.250000 0.970873
Cr6   Cr    Cr6+3 0.226800 0.456870 0.250000 0.961228
H1    H     H_    0.546173 0.198751 0.523378 0.121305
H2    H     H_    0.235836 0.681365 0.466226 0.112700
H3    H     H_    0.423266 0.637511 0.014748 0.124683
H4    H     H_    0.449316 0.729749 0.485815 0.104474
H5    H     H_    0.294992 0.963970 0.461518 0.155731
H6    H     H_    0.711712 0.567140 0.079692 0.113514
H7    H     H_    0.983814 0.297265 0.452492 0.134670
H8    H     H_    0.504559 0.171226 0.076504 0.132657
H9    H     H_    0.684344 0.700667 0.463626 0.149719
H10   H     H_    0.836837 0.368182 0.084731 0.112898
H11   H     H_    0.945676 0.283518 0.965592 0.124190
H12   H     H_    0.611521 0.337411 0.993147 0.097514
H13   H     H_    0.496601 0.635022 0.582753 0.127970
H14   H     H_    0.319681 0.009203 0.955285 0.113120
H15   H     H_    0.153589 0.451219 0.571994 0.119569
H16   H     H_    0.681177 0.689811 0.954395 0.151853
H17   H     H_    0.305907 0.809421 0.584145 0.117576
H18   H     H_    0.680382 0.868878 0.605900 0.252724
H19   H     H_    0.894986 0.050431 0.622413 0.127744
H20   H     H_    0.841477 0.153644 0.572936 0.201205
H21   H     H_    0.910301 0.062359 0.525516 0.115626
H22   H     H_    0.168265 0.282321 0.968423 0.246464
H23   H     H_    0.772486 0.325196 0.518395 0.123478
H24   H     H_    0.180872 0.291763 0.827562 0.167863
H25   H     H_    0.307945 0.470579 0.842961 0.162670
H26   H     H_    0.133928 0.399091 0.873801 0.146539
H27   H     H_    0.109504 0.790473 0.600605 0.255182
H28   H     H_    0.962166 0.869636 0.598453 0.125749
H29   H     H_    0.844107 0.690632 0.578884 0.195194
H30   H     H_    0.914773 0.815682 0.506575 0.137698
H31   H     H_    0.689909 0.895992 0.908915 0.253121
H32   H     H_    0.549326 0.694465 0.840942 0.168193
H33   H     H_    0.504688 0.821162 0.819961 0.161297
H34   H     H_    0.717790 0.228114 0.974784 0.109319
H35   H     H_    0.402555 0.681120 0.884115 0.191893
H36   H     H_    0.240845 0.204614 0.580553 0.274143
H37   H     H_    0.118166 0.206614 0.472150 0.127369
H38   H     H_    0.099504 0.039701 0.489871 0.145015
H39   H     H_    0.213029 0.148094 0.420973 0.162255
H40   H     H_    0.217942 0.802680 0.903176 0.248993
H41   H     H_    0.290080 0.728459 0.793343 0.103426
H42   H     H_    0.132113 0.716272 0.790261 0.185072
H43   H     H_    0.143523 0.562461 0.807213 0.165095
H44   H     H_    0.106374 0.851901 0.983497 0.228959
H45   H     H_    0.705011 0.474276 0.522038 0.125368
H46   H     H_    0.895358 0.793171 0.034585 0.121239
H47   H     H_    0.031177 0.913857 0.093265 0.137369
H48   H     H_    0.938716 0.733231 0.115764 0.183471
H49   H     H_    0.420325 0.173456 0.420648 0.269194
H50   H     H_    0.476571 0.188619 0.296360 0.127021
H51   H     H_    0.524465 0.365646 0.297263 0.152366
H52   H     H_    0.347272 0.225940 0.313328 0.168974
H53   H     H_    0.813500 0.000702 0.011008 0.229310
H54   H     H_    0.930460 0.194646 0.084153 0.133234
H55   H     H_    0.867028 0.055651 0.147799 0.148173
H56   H     H_    0.819426 0.558384 0.977369 0.115778
H57   H     H_    0.777648 0.148989 0.135426 0.153047
H58   H     H_    0.925902 0.707850 0.407817 0.271598
H59   H     H_    0.716480 0.568439 0.339902 0.160708
H60   H     H_    0.721262 0.419000 0.370750 0.187992
H61   H     H_    0.847683 0.538700 0.309923 0.161656
H62   H     H_    0.255547 0.142045 0.021788 0.250327
H63   H     H_    0.286164 0.064739 0.131835 0.157317
H64   H     H_    0.218952 0.167507 0.164723 0.161887
H65   H     H_    0.403511 0.239334 0.161727 0.139957
H66   H     H_    0.791798 0.071567 0.425099 0.258707
H67   H     H_    0.206573 0.492936 0.011886 0.126400
H68   H     H_    0.761922 0.141627 0.315333 0.161340
H69   H     H_    0.822376 0.297388 0.362677 0.138805
H70   H     H_    0.640414 0.182913 0.352458 0.182835
H71   H     H_    0.281156 0.465183 0.476059 0.119167
H72   H     H_    0.326672 0.771874 0.024606 0.123096
N1    N     N_2   0.711373 0.935969 0.562620 -0.524927
N2    N     N_2   0.862241 0.604819 0.419683 -0.526308
N3    N     N_2   0.303379 0.218570 0.060424 -0.519543
N4    N     N_2   0.737974 0.122654 0.429269 -0.524339
N5    N     N_2   0.250697 0.338978 0.934878 -0.515609
N6    N     N_2   0.052273 0.762999 0.553461 -0.516912
N7    N     N_2   0.588381 0.836852 0.923516 -0.533279
N8    N     N_2   0.279954 0.209374 0.529640 -0.512211
N9    N     N_2   0.199511 0.704472 0.896217 -0.535072
N10   N     N_2   0.079896 0.790976 0.028932 -0.504914
N11   N     N_2   0.485095 0.268817 0.401055 -0.551446
N12   N     N_2   0.754730 0.009269 0.050817 -0.491703
O1    O     O_R   0.913270 0.574260 0.668550 -0.538653
O2    O     O_R   0.574260 0.913270 0.331450 -0.523435
O3    O     O_R   0.086730 0.660990 0.168550 -0.513064
O4    O     O_R   0.339010 0.425740 0.331450 -0.538760
O5    O     O_R   0.640160 0.530400 0.673300 -0.515286
O6    O     O_R   0.890240 0.359840 0.826700 -0.526135
O7    O     O_R   0.469600 0.109760 0.673300 -0.513659
O8    O     O_R   0.640160 0.530400 0.826700 -0.529211
O9    O     O_R   0.890240 0.359840 0.673300 -0.514588
O10   O     O_R   0.469600 0.109760 0.826700 -0.524863
O11   O     O_R   0.530400 0.640160 0.173300 -0.503097
O12   O     O_R   0.660990 0.086730 0.831450 -0.531240
O13   O     O_R   0.359840 0.890240 0.326700 -0.522135
O14   O     O_R   0.109760 0.469600 0.173300 -0.513204
O15   O     O_R   0.530400 0.640160 0.326700 -0.533915
O16   O     O_R   0.359840 0.890240 0.173300 -0.521905
O17   O     O_R   0.109760 0.469600 0.326700 -0.522159
O18   O     O_3   0.666667 0.333333 0.750000 -0.307342
O19   O     O_3   0.333333 0.666667 0.250000 -0.299850
O20   O     O_R   0.425740 0.339010 0.668550 -0.523612
O21   O     O_R   0.913270 0.574260 0.831450 -0.530691
O22   O     O_R   0.660990 0.086730 0.668550 -0.522258
O23   O     O_R   0.425740 0.339010 0.831450 -0.499368
O24   O     O_R   0.574260 0.913270 0.168550 -0.500382
O25   O     O_R   0.086730 0.660990 0.331450 -0.529483
O26   O     O_R   0.339010 0.425740 0.168550 -0.525131

loop_
_geom_bond_atom_site_label_1
_geom_bond_atom_site_label_2
_ccdc_geom_bond_type
C27   C48   S    
C28   C47   S    
C63   H42   S    
C29   C42   S    
C33   C45   S    
C72   O3    A    
C51   N10   S    
C68   H60   S    
C58   H20   S    
C63   N9    S    
Cr1   O5    S    
H31   N7    S    
Cr2   O6    S    
C65   H52   S    
C68   H59   S    
C60   H28   S    
C22   H45   S    
C67   O26   A    
C62   H38   S    
C6    C19   S    
C10   H10   S    
C59   H26   S    
C4    O25   A    
Cr4   O11   S    
C3    O16   A    
Cr2   O12   S    
Cr1   O21   S    
C53   N12   S    
C12   O21   A    
C5    C17   S    
C47   N6    S    
C1    O5    A    
C24   H56   S    
H44   N10   S    
C28   C41   S    
C9    C39   S    
C66   N12   S    
C12   C37   S    
C11   C37   S    
C9    C13   S    
C25   C50   S    
H36   N8    S    
C62   H39   S    
C63   H43   S    
Cr1   O18   S    
C2    C39   S    
C35   C48   S    
C18   H1    S    
C46   C55   S    
Cr3   O7    S    
Cr5   O19   S    
C62   N8    S    
C16   C32   S    
C17   H17   S    
C2    O15   A    
C14   C27   S    
C2    O4    A    
C60   H30   S    
C52   N11   S    
C30   C43   S    
C24   C51   S    
C7    C15   S    
C39   C52   S    
C5    C43   S    
Cr5   O13   S    
C4    C41   S    
C13   H13   S    
Cr6   O14   S    
C17   C30   S    
C30   C44   S    
H40   N9    S    
Cr3   O23   S    
C58   H19   S    
C19   C32   S    
C45   O9    A    
H58   N2    S    
C17   C31   S    
C24   C37   S    
C66   H54   S    
C48   C53   S    
C38   C72   S    
Cr6   O4    S    
C44   N1    S    
C6    H6    S    
C71   O2    A    
Cr6   O17   S    
C65   H50   S    
C13   C36   S    
C20   C54   S    
Cr4   O15   S    
C31   C44   S    
C26   C49   S    
C14   C35   S    
C59   N5    S    
C9    C22   S    
C54   N2    S    
C38   C51   S    
H53   N12   S    
C10   C24   S    
C69   H64   S    
C64   H46   S    
H18   N1    S    
C69   N3    S    
C18   C31   S    
C56   O12   A    
C23   C31   S    
C30   H4    S    
C34   O23   A    
C60   N6    S    
C29   H3    S    
C68   N2    S    
C61   N7    S    
C25   C38   S    
C66   H55   S    
C63   H41   S    
C26   C39   S    
C11   H11   S    
C18   C57   S    
C23   O7    A    
C44   C57   S    
Cr5   O3    S    
C49   C52   S    
C64   N10   S    
C50   C51   S    
Cr2   O18   S    
C61   H32   S    
Cr3   O18   S    
C14   H14   S    
Cr2   O9    S    
C60   H29   S    
C47   C54   S    
C70   H68   S    
C20   C33   S    
H22   N5    S    
C3    C40   S    
C64   H47   S    
C27   H72   S    
C64   H48   S    
C20   H23   S    
C61   H35   S    
C42   C67   S    
C33   C47   S    
C8    C14   S    
C13   C26   S    
Cr4   O2    S    
Cr6   O26   S    
C15   H15   S    
C4    O17   A    
Cr4   O19   S    
C61   H33   S    
C3    O24   A    
C21   H34   S    
Cr4   O24   S    
C58   N1    S    
C22   C52   S    
C57   N4    S    
C19   C55   S    
C55   N3    S    
H66   N4    S    
C49   N8    S    
C43   C71   S    
C27   C40   S    
C35   C56   S    
C70   N4    S    
C59   H24   S    
C32   C46   S    
C26   H71   S    
C58   H21   S    
C15   C33   S    
C8    C21   S    
C12   O6    A    
C65   H51   S    
C1    O20   A    
C40   C53   S    
C5    C18   S    
C50   N9    S    
C69   H65   S    
C22   C36   S    
C48   N7    S    
H62   N3    S    
C70   H70   S    
C16   H16   S    
Cr5   O16   S    
C29   C46   S    
C10   C38   S    
Cr6   O19   S    
C59   H25   S    
C21   C35   S    
C16   C29   S    
C23   O22   A    
Cr1   O1    S    
C19   H12   S    
C9    H9    S    
C21   C53   S    
C37   C50   S    
C15   C28   S    
C7    H7    S    
C67   O11   A    
C42   C55   S    
C5    H5    S    
C71   O13   A    
C8    H8    S    
C7    C41   S    
C45   O1    A    
C28   H2    S    
C72   O14   A    
C41   C54   S    
Cr5   O25   S    
C10   C11   S    
C43   C57   S    
C6    C16   S    
C66   H57   S    
C46   N5    S    
C62   H37   S    
H27   N6    S    
Cr2   O22   S    
H49   N11   S    
C7    C20   S    
C6    C42   S    
C65   N11   S    
Cr3   O10   S    
C11   C25   S    
C68   H61   S    
C25   H67   S    
C70   H69   S    
C8    C40   S    
C34   O8    A    
Cr3   O20   S    
C69   H63   S    
Cr1   O8    S    
C56   O10   A    
C36   C49   S    
C1    C36   S    
C32   C34   S    
