data_mof_unit_65078.cif
_audit_creation_date              2012-12-10T18:50:53-0500
_audit_creation_method            fapswitch 2.2
_symmetry_space_group_name_H-M    P1
_symmetry_Int_Tables_number       1
_space_group_crystal_system       triclinic
_cell_length_a                    17.324996
_cell_length_b                    18.182685
_cell_length_c                    19.406552
_cell_angle_alpha                 90.489344
_cell_angle_beta                  90.532435
_cell_angle_gamma                 86.433157
_cell_volume                      6101.05409079

loop_
_atom_site_label
_atom_site_type_symbol
_atom_type_description
_atom_site_fract_x
_atom_site_fract_y
_atom_site_fract_z
_atom_type_partial_charge
C1    C     C_R   0.500288 0.500217 0.632371 0.834762
C2    C     C_R   0.500829 0.499702 0.367858 0.782117
C3    C     C_R   0.556515 0.533910 0.254144 0.394112
C4    C     C_R   0.536933 0.444592 0.746366 0.396423
C5    C     C_R   0.549478 0.535596 0.182472 -0.094334
C6    C     C_R   0.531627 0.446449 0.818561 -0.208731
C7    C     C_R   0.487536 0.503999 0.148655 0.041728
C8    C     C_R   0.486604 0.502584 0.851960 0.095434
C9    C     C_R   0.433064 0.468588 0.187280 -0.189358
C10   C     C_R   0.448848 0.558707 0.812946 -0.189649
C11   C     C_R   0.439655 0.465839 0.258703 -0.227350
C12   C     C_R   0.455060 0.558246 0.741537 -0.269068
C13   C     C_R   0.500146 0.499218 0.292693 -0.120872
C14   C     C_R   0.497997 0.501008 0.707825 -0.061348
C15   C     C_R   0.467502 0.440965 0.036695 -0.298766
C16   C     C_R   0.491742 0.569107 0.963850 -0.302331
C17   C     C_R   0.465185 0.439293 0.964662 0.267759
C18   C     C_R   0.490409 0.571617 0.035875 0.265905
C19   C     C_R   0.480291 0.503429 0.927795 0.050708
C20   C     C_R   0.480988 0.506171 0.072770 0.050500
C21   C     C_R   0.445458 0.284663 0.537990 -0.013438
C22   C     C_R   0.442136 0.720164 0.463204 -0.004451
C23   C     C_R   0.650093 0.490747 0.501219 0.824651
C24   C     C_R   0.349933 0.509231 0.498363 0.806463
C25   C     C_R   0.438065 0.208099 0.536830 0.361459
C26   C     C_R   0.434430 0.797770 0.460730 0.363498
C27   C     C_R   0.490948 0.162250 0.497616 -0.007804
C28   C     C_R   0.490719 0.839421 0.494242 -0.057467
C29   C     C_R   0.546435 0.196524 0.458855 -0.451346
C30   C     C_R   0.550428 0.800609 0.530214 -0.316837
C31   C     C_R   0.549954 0.274056 0.459880 0.616979
C32   C     C_R   0.553793 0.723572 0.534222 0.572190
C33   C     C_R   0.487951 0.040764 0.434256 -0.310506
C34   C     C_R   0.493660 0.960994 0.556520 -0.311101
C35   C     C_R   0.488714 0.963062 0.431687 0.263739
C36   C     C_R   0.496036 0.038334 0.559003 0.263570
C37   C     C_R   0.489681 0.922325 0.493582 0.060191
C38   C     C_R   0.491098 0.079394 0.497302 0.063661
C39   C     C_R   0.734531 0.486716 0.505989 -0.074868
C40   C     C_R   0.265615 0.513113 0.492114 -0.070536
C41   C     C_R   0.772915 0.551050 0.519541 -0.280520
C42   C     C_R   0.227769 0.448735 0.477309 -0.290494
C43   C     C_R   0.853623 0.548532 0.524963 0.436088
C44   C     C_R   0.147199 0.451076 0.470322 0.436540
C45   C     C_R   0.895840 0.480646 0.514908 0.110538
C46   C     C_R   0.104572 0.518808 0.479942 0.106999
C47   C     C_R   0.857389 0.416098 0.503769 -0.230807
C48   C     C_R   0.142563 0.583437 0.492101 -0.220726
C49   C     C_R   0.777129 0.419035 0.499131 -0.170755
C50   C     C_R   0.222703 0.580688 0.498340 -0.193760
C51   C     C_2   0.980422 0.475629 0.514762 -0.110938
C52   C     C_2   0.019991 0.523441 0.479295 -0.110258
Cu1   Cu    Cu3+1 0.500020 0.426640 0.500000 1.008113
Cu2   Cu    Cu3+1 0.499980 0.573360 0.500000 0.948683
H1    H     H_    0.740241 0.603235 0.526666 0.189211
H2    H     H_    0.260815 0.396666 0.470400 0.153032
H3    H     H_    0.459233 0.390781 0.064685 0.149124
H4    H     H_    0.502308 0.618753 0.935851 0.149739
H5    H     H_    0.405477 0.319426 0.568230 0.167806
H6    H     H_    0.399963 0.688912 0.436286 0.171874
H7    H     H_    0.587240 0.162947 0.428214 0.161395
H8    H     H_    0.594484 0.830386 0.556476 0.184134
H9    H     H_    0.485693 0.071268 0.386483 0.155919
H10   H     H_    0.496139 0.930577 0.604349 0.155900
H11   H     H_    0.250904 0.631171 0.508799 0.168086
H12   H     H_    0.748578 0.368589 0.489438 0.185308
H13   H     H_    0.990099 0.569166 0.452404 0.175693
H14   H     H_    0.010344 0.429937 0.541681 0.174129
H15   H     H_    0.889747 0.363633 0.496973 0.164819
H16   H     H_    0.109893 0.635782 0.498598 0.166862
H17   H     H_    0.593452 0.560801 0.152996 0.169070
H18   H     H_    0.563009 0.404392 0.848736 0.142714
H19   H     H_    0.384752 0.443956 0.162216 0.149753
H20   H     H_    0.413724 0.602470 0.837714 0.148122
H21   H     H_    0.396204 0.439308 0.287744 0.155531
H22   H     H_    0.424649 0.601767 0.712389 0.169185
N1    N     N_R   0.500010 0.316380 0.499980 -0.217525
N2    N     N_R   0.499990 0.683620 0.500020 -0.258750
O1    O     O_R   0.500030 0.438020 0.599820 -0.535742
O2    O     O_R   0.499970 0.561980 0.400180 -0.578229
O3    O     O_R   0.500000 0.561930 0.599810 -0.623418
O4    O     O_R   0.500000 0.438070 0.400190 -0.536885
O5    O     O_R   0.613620 0.430860 0.500010 -0.526779
O6    O     O_R   0.386380 0.569140 0.499990 -0.600898
O7    O     O_R   0.613580 0.554770 0.500010 -0.596656
O8    O     O_R   0.386420 0.445230 0.499990 -0.605197
N3    N     N_2   0.448076 0.372879 0.929848 -0.442969
H23   H     H_    0.463138 0.325676 0.957240 0.249196
C53   C     C_3   0.370291 0.372832 0.902088 -0.662227
H24   H     H_    0.363170 0.320596 0.873340 0.231938
H25   H     H_    0.358704 0.419271 0.865903 0.241964
H26   H     H_    0.327565 0.377285 0.944529 0.220817
N4    N     N_2   0.499043 0.639972 0.070652 -0.442529
H27   H     H_    0.529839 0.676690 0.043450 0.251936
C54   C     C_3   0.427909 0.674079 0.097833 -0.657428
H28   H     H_    0.440534 0.725060 0.126599 0.232176
H29   H     H_    0.400644 0.636532 0.133874 0.242993
H30   H     H_    0.386847 0.688782 0.055066 0.219674
O9    O     O_3   0.377611 0.181548 0.573017 -0.722953
H31   H     H_    0.368879 0.130907 0.557038 0.331682
O10   O     O_3   0.370553 0.829499 0.426781 -0.723032
H32   H     H_    0.363895 0.882250 0.439632 0.335108
O11   O     O_3   0.602686 0.308255 0.420402 -0.705257
H33   H     H_    0.634363 0.270323 0.394417 0.295073
O12   O     O_3   0.612677 0.691048 0.573465 -0.752328
H34   H     H_    0.597191 0.642685 0.588241 0.364032
N5    N     N_2   0.488788 0.926437 0.366571 -0.409844
H35   H     H_    0.461117 0.956935 0.328017 0.251688
C55   C     C_3   0.563925 0.895684 0.345333 -0.636912
H36   H     H_    0.558072 0.865512 0.295760 0.231077
H37   H     H_    0.588782 0.856255 0.384176 0.240973
H38   H     H_    0.603957 0.940395 0.338083 0.212736
N6    N     N_2   0.503554 0.074330 0.623939 -0.405190
H39   H     H_    0.479876 0.047106 0.664296 0.253783
C56   C     C_3   0.580940 0.095370 0.639788 -0.644420
H40   H     H_    0.580772 0.125868 0.689605 0.229411
H41   H     H_    0.601805 0.131943 0.599360 0.239589
H42   H     H_    0.621188 0.045547 0.644134 0.214771
O13   O     O_3   0.109380 0.388758 0.452800 -0.749210
H43   H     H_    0.147858 0.346366 0.447922 0.323253
O14   O     O_3   0.891972 0.610814 0.541525 -0.747647
H44   H     H_    0.853715 0.653305 0.546962 0.329802
O15   O     O_3   0.619652 0.565363 0.283542 -0.724689
H45   H     H_    0.625011 0.550900 0.332442 0.326065
O16   O     O_3   0.580919 0.389548 0.712818 -0.724154
H46   H     H_    0.603983 0.354600 0.747359 0.319338

loop_
_geom_bond_atom_site_label_1
_geom_bond_atom_site_label_2
_ccdc_geom_bond_type
N3    H23   S    
N4    H27   S    
C27   C29   A    
C34   C37   A    
N5    C55   S    
C54   H28   S    
Cu2   O6    S    
C54   H30   S    
O15   H45   S    
C39   C41   A    
Cu1   Cu2   S    
C6    H18   S    
O10   H32   S    
C9    H19   S    
C4    O16   S    
Cu1   O1    S    
C21   H5    S    
C55   H37   S    
C26   O10   S    
C22   H6    S    
C40   C50   A    
C45   C51   S    
C27   C38   S    
C1    O3    A    
C56   H40   S    
C46   C52   S    
C11   C13   A    
C15   C17   A    
C23   O5    A    
C2    C13   S    
C47   H15   S    
C42   H2    S    
C25   O9    S    
C41   H1    S    
C3    O15   S    
C56   H41   S    
N5    H35   S    
Cu1   O8    S    
C53   H25   S    
C43   O14   S    
C18   C20   A    
C3    C13   A    
C40   C42   A    
N4    C54   S    
C29   C31   A    
C15   H3    S    
C42   C44   A    
C36   N6    S    
C44   C46   A    
C31   N1    A    
Cu2   O2    S    
C45   C47   A    
C15   C20   A    
C29   H7    S    
C8    C19   S    
C49   H12   S    
C30   H8    S    
C51   C52   D    
C2    O2    A    
C22   N2    A    
C47   C49   A    
C55   H38   S    
C5    C7    A    
C17   C19   A    
C6    C8    A    
C44   O13   S    
Cu1   O4    S    
C31   O11   S    
Cu1   N1    S    
C9    C11   A    
O9    H31   S    
C33   H9    S    
C56   H42   S    
C34   H10   S    
C16   H4    S    
C53   H26   S    
C48   C50   A    
C43   C45   A    
O14   H44   S    
C52   H13   S    
C10   C12   A    
C4    C6    A    
C39   C49   A    
C12   C14   A    
C32   O12   S    
C12   H22   S    
C23   O7    A    
O16   H46   S    
C1    O1    A    
C2    O4    A    
N6    H39   S    
C7    C9    A    
C21   C25   A    
C24   C40   S    
C35   C37   A    
C17   N3    S    
C8    C10   A    
C41   C43   A    
C48   H16   S    
C3    C5    A    
Cu2   O7    S    
O13   H43   S    
C54   H29   S    
C25   C27   A    
O12   H34   S    
C26   C28   A    
C33   C38   A    
Cu1   O5    S    
N3    C53   S    
C24   O6    A    
C28   C30   A    
C5    H17   S    
C11   H21   S    
C55   H36   S    
C30   C32   A    
C10   H20   S    
C28   C37   S    
C16   C19   A    
C23   C39   S    
C36   C38   A    
C33   C35   A    
C34   C36   A    
C51   H14   S    
C4    C14   A    
C50   H11   S    
C35   N5    S    
C32   N2    A    
C46   C48   A    
C16   C18   A    
C7    C20   S    
C22   C26   A    
C21   N1    A    
O11   H33   S    
C18   N4    S    
C1    C14   S    
N6    C56   S    
C53   H24   S    
C24   O8    A    
Cu2   O3    S    
Cu2   N2    S    
