data_mof_unit_23475.cif
_audit_creation_date              2012-12-11T17:23:05-0500
_audit_creation_method            fapswitch 2.2
_symmetry_space_group_name_H-M    P1
_symmetry_Int_Tables_number       1
_space_group_crystal_system       triclinic
_cell_length_a                    8.220934
_cell_length_b                    16.50789
_cell_length_c                    26.983689
_cell_angle_alpha                 96.3087
_cell_angle_beta                  92.381206
_cell_angle_gamma                 86.900659
_cell_volume                      3632.12435707

loop_
_atom_site_label
_atom_site_type_symbol
_atom_type_description
_atom_site_fract_x
_atom_site_fract_y
_atom_site_fract_z
_atom_type_partial_charge
Ba1   Ba    Ba6+2 0.851940 0.461560 0.523510 1.640928
Ba2   Ba    Ba6+2 0.337880 0.538370 0.476480 1.640726
C1    C     C_3   0.626503 0.174281 0.657730 -0.360742
C2    C     C_R   0.877649 0.564596 0.176960 0.601946
C3    C     C_2   0.737183 0.513126 0.270572 -0.075676
C4    C     C_3   0.141166 0.280171 0.659416 0.285767
C5    C     C_3   0.694666 0.508417 0.324666 -0.006053
C6    C     C_1   0.981926 0.483659 0.342753 0.050350
C7    C     C_2   0.022773 0.483592 0.295521 -0.105620
C8    C     C_2   0.893884 0.500028 0.255970 0.188608
C9    C     C_R   0.013463 0.501761 0.102078 -0.140291
C10   C     C_R   0.072620 0.437781 0.129575 -0.014282
C11   C     C_R   0.172086 0.374671 0.106043 -0.060461
C12   C     C_3   0.635910 0.256103 0.637381 0.333528
C13   C     C_R   0.912684 0.565250 0.125728 -0.096465
C14   C     C_2   0.843635 0.517957 0.358605 -0.278164
C15   C     C_2   0.348990 0.480204 0.641534 -0.331483
C16   C     C_3   0.103850 0.262919 0.711797 -0.336894
C17   C     C_R   0.186198 0.434484 0.975310 0.032401
C18   C     C_R   0.045322 0.569380 0.973344 -0.015431
C19   C     C_R   0.135066 0.501956 0.948835 0.051210
C20   C     C_R   0.270082 0.367329 0.948766 -0.101312
C21   C     C_R   0.306534 0.367442 0.898854 -0.054052
C22   C     C_R   0.261450 0.434417 0.872712 -0.031688
C23   C     C_3   0.512345 0.664305 0.628881 0.301245
C24   C     C_R   0.175248 0.502128 0.897523 -0.138360
C25   C     C_R   0.129806 0.569746 0.871068 -0.089724
C26   C     C_R   0.173137 0.567983 0.820237 0.601800
C27   C     C_R   0.300676 0.434351 0.822125 0.639357
C28   C     C_3   0.178075 0.290517 0.418098 0.289962
C29   C     C_2   0.459040 0.489903 0.730203 0.416093
C30   C     C_3   0.499379 0.490192 0.675270 -0.118505
C31   C     C_1   0.210387 0.515223 0.656996 0.054743
C32   C     C_2   0.171002 0.515235 0.704369 -0.173513
C33   C     C_2   0.300595 0.500323 0.744067 0.156797
C34   C     C_3   0.476329 0.698035 0.682318 -0.366125
C35   C     C_R   0.151415 0.435945 0.027047 0.031360
C36   C     C_R   0.054479 0.501772 0.050813 0.043658
C37   C     C_R   0.998180 0.567488 0.023771 -0.022004
C38   C     C_R   0.210818 0.373709 0.056197 -0.106375
C39   C     C_R   0.847677 0.627158 0.097235 0.440046
C40   C     C_3   0.193064 0.197766 0.404712 -0.130604
C41   C     C_R   0.007307 0.637364 0.946661 -0.161033
C42   C     C_R   0.043286 0.637454 0.896175 0.444594
C43   C     C_R   0.892659 0.628497 0.047860 -0.148942
C44   C     C_R   0.387373 0.267287 0.521510 -0.296618
C45   C     C_3   0.983735 0.721909 0.346370 0.265821
C46   C     C_R   0.529311 0.241792 0.496923 0.045371
C47   C     C_R   0.583945 0.159206 0.493614 -0.121165
C48   C     C_R   0.494263 0.101682 0.514992 0.246893
C49   C     C_R   0.346772 0.128642 0.537783 -0.163745
C50   C     C_R   0.292845 0.211105 0.540345 -0.014693
C51   C     C_R   0.625446 0.854323 0.512043 -0.102983
C52   C     C_3   0.016914 0.711025 0.583934 0.304314
C53   C     C_R   0.672646 0.771096 0.507734 0.015253
C54   C     C_R   0.720826 0.910289 0.491255 0.267006
C55   C     C_R   0.811871 0.742578 0.482957 -0.295087
C56   C     C_3   0.937173 0.755635 0.297281 -0.338752
C57   C     C_R   0.913208 0.796460 0.465349 -0.006292
C58   C     C_R   0.867016 0.880282 0.468374 -0.160503
C59   C     C_3   0.013368 0.802837 0.598386 -0.376781
C60   C     C_3   0.611228 0.343844 0.367124 0.297042
C61   C     C_3   0.507976 0.311775 0.321331 -0.135169
C62   C     C_3   0.672080 0.553477 0.771132 0.186336
C63   C     C_3   0.581802 0.669489 0.104153 0.239232
C64   C     C_3   0.835722 0.724288 0.871033 0.232895
C65   C     C_3   0.462553 0.740990 0.339705 0.472510
C66   C     C_3   0.403694 0.782010 0.293803 -0.305837
C67   C     C_R   0.030845 0.437557 0.180013 0.587264
H1    H     H_    0.747902 0.254244 0.615563 0.103497
H2    H     H_    0.553098 0.400867 0.385217 0.067114
H3    H     H_    0.623105 0.124768 0.626375 0.085080
H4    H     H_    0.564678 0.253288 0.303901 0.102661
H5    H     H_    0.385731 0.298973 0.333468 0.128433
H6    H     H_    0.527049 0.265422 0.612762 -0.036205
H7    H     H_    0.514518 0.173779 0.679324 0.124626
H8    H     H_    0.397287 0.642892 0.610280 0.033152
H9    H     H_    0.604434 0.612637 0.629100 0.025708
H10   H     H_    0.393929 0.753640 0.682401 0.146424
H11   H     H_    0.415335 0.652606 0.701384 0.058137
H12   H     H_    0.266423 0.183130 0.370928 0.117447
H13   H     H_    0.591507 0.713768 0.703271 0.109005
H14   H     H_    0.735007 0.162949 0.682389 0.135846
H15   H     H_    0.160551 0.308535 0.739436 0.125832
H16   H     H_    0.043076 0.660051 0.338302 0.053566
H17   H     H_    0.869583 0.717338 0.366437 0.007561
H18   H     H_    0.842339 0.718467 0.277003 0.173492
H19   H     H_    0.887609 0.819604 0.304372 0.119638
H20   H     H_    0.045081 0.753773 0.273758 0.114589
H21   H     H_    0.354785 0.717652 0.355528 0.120053
H22   H     H_    0.507485 0.807911 0.276859 0.120774
H23   H     H_    0.258262 0.168778 0.435450 0.060194
H24   H     H_    0.311166 0.831829 0.304267 0.111482
H25   H     H_    0.097844 0.343999 0.655247 0.076646
H26   H     H_    0.347919 0.736495 0.265687 0.099765
H27   H     H_    0.148652 0.471660 0.285387 0.141360
H28   H     H_    0.221222 0.325111 0.126265 0.117870
H29   H     H_    0.371200 0.314109 0.880683 0.120942
H30   H     H_    0.307535 0.312469 0.965197 0.068763
H31   H     H_    0.290405 0.323406 0.041899 0.068905
H32   H     H_    0.638944 0.521478 0.243171 0.105898
H33   H     H_    0.954107 0.693390 0.964602 0.079581
H34   H     H_    0.892200 0.692139 0.573988 0.007565
H35   H     H_    0.275047 0.273512 0.654962 -0.011808
H36   H     H_    0.045784 0.528134 0.714966 0.135331
H37   H     H_    0.837347 0.677672 0.028903 0.086306
H38   H     H_    0.838107 0.553361 0.394977 0.068947
H39   H     H_    0.355467 0.446685 0.604641 0.085383
H40   H     H_    0.516612 0.874764 0.531999 0.100578
H41   H     H_    0.273157 0.085300 0.552777 0.094049
H42   H     H_    0.692970 0.140082 0.473455 0.116221
H43   H     H_    0.943906 0.921811 0.453016 0.101249
H44   H     H_    0.344915 0.330676 0.523180 0.075590
H45   H     H_    0.096245 0.695750 0.551612 0.059800
H46   H     H_    0.970023 0.267091 0.716614 0.147341
H47   H     H_    0.846343 0.678041 0.479817 0.066969
H48   H     H_    0.152803 0.200904 0.718534 0.120145
H49   H     H_    0.300814 0.312682 0.427801 -0.037002
H50   H     H_    0.099372 0.305009 0.450649 0.071388
H51   H     H_    0.967046 0.174615 0.427956 0.209773
H52   H     H_    0.969934 0.190800 0.367242 0.220388
H53   H     H_    0.392816 0.354479 0.260351 0.214948
H54   H     H_    0.594379 0.363815 0.263375 0.168044
H55   H     H_    0.566571 0.771933 0.408440 0.175921
H56   H     H_    0.931267 0.819703 0.629946 0.135768
H57   H     H_    0.640020 0.820885 0.363501 0.166084
H58   H     H_    0.730042 0.563135 0.735884 0.028234
H59   H     H_    0.771525 0.546694 0.799662 0.076235
H60   H     H_    0.593275 0.607981 0.784170 0.015874
H61   H     H_    0.552439 0.610261 0.116988 0.025360
H62   H     H_    0.558498 0.668022 0.063152 -0.006555
H63   H     H_    0.497842 0.717393 0.122512 0.075813
H64   H     H_    0.797271 0.759083 0.906551 0.021669
H65   H     H_    0.764854 0.668428 0.862909 -0.019371
H66   H     H_    0.805014 0.763430 0.840745 0.077922
H67   H     H_    0.968702 0.835832 0.566579 0.057852
H68   H     H_    0.138102 0.822087 0.609750 0.122400
H69   H     H_    0.733855 0.356574 0.355154 -0.003075
N1    N     N_R   0.935218 0.500887 0.203560 -0.427564
N2    N     N_R   0.257448 0.500824 0.796334 -0.423276
N3    N     N_2   0.542597 0.016642 0.512848 -0.230116
N4    N     N_2   0.676062 0.995874 0.493218 -0.225751
N5    N     N_3   0.033662 0.162653 0.395582 -0.478588
N6    N     N_3   0.490493 0.370767 0.284824 -0.516470
N7    N     N_3   0.533019 0.801286 0.376970 -0.481786
O1    O     O_2   0.915540 0.542930 0.617950 -0.468621
O2    O     O_2   0.256268 0.789464 0.459496 -0.470408
O3    O     O_3   0.092962 0.773744 0.373851 -0.607840
O4    O     O_3   0.147530 0.542870 0.557780 -0.488943
O5    O     O_3   0.552080 0.402920 0.475380 -0.491835
O6    O     O_2   0.387280 0.697260 0.523450 -0.463909
O7    O     O_3   0.574545 0.726469 0.605144 -0.642135
O8    O     O_2   0.362999 0.567993 0.324584 -0.510548
O9    O     O_3   0.581078 0.678993 0.325286 -0.635061
O10   O     O_2   0.077859 0.380040 0.202684 -0.610936
O11   O     O_2   0.373107 0.374639 0.800955 -0.567587
O12   O     O_3   0.630099 0.281118 0.398046 -0.656353
O13   O     O_2   0.797242 0.621441 0.198080 -0.567162
O14   O     O_2   0.137409 0.626694 0.797377 -0.552959
O15   O     O_3   0.664390 0.396160 0.588360 -0.491528
O16   O     O_2   0.832788 0.435713 0.672502 -0.487138
O17   O     O_3   0.076356 0.672892 0.625069 -0.627474
O18   O     O_3   0.638798 0.318448 0.677136 -0.574949
O19   O     O_2   0.802410 0.302720 0.476520 -0.455272
O20   O     O_3   0.070880 0.354870 0.564040 -0.488852
O21   O     O_2   0.954373 0.209809 0.532129 -0.487178
O22   O     O_3   0.583011 0.482256 0.766046 -0.601446
O23   O     O_3   0.060681 0.224739 0.624856 -0.599365
O24   O     O_3   0.743542 0.689320 0.117830 -0.600092
O25   O     O_3   0.005878 0.706815 0.872328 -0.597010
O26   O     O_2   0.274150 0.457040 0.382020 -0.476882
O27   O     O_3   0.042160 0.457070 0.442220 -0.484335
O28   O     O_3   0.525310 0.603770 0.411640 -0.473801
O29   O     O_3   0.113357 0.326669 0.376625 -0.639089
O30   O     O_3   0.637620 0.597020 0.524620 -0.472303
O31   O     O_3   0.118810 0.645070 0.435950 -0.486370
P1    P     P_3+3 0.086060 0.566890 0.610430 1.001659
P2    P     P_3+3 0.625290 0.314770 0.461990 0.977232
P3    P     P_3+3 0.094496 0.248862 0.564771 0.941532
P4    P     P_3+3 0.103630 0.433040 0.389570 0.999695
P5    P     P_3+3 0.099028 0.751782 0.435768 0.959980
P6    P     P_3+3 0.660088 0.411951 0.653488 1.010201
P7    P     P_3+3 0.570860 0.698968 0.540695 0.953245
P8    P     P_3+3 0.535858 0.586401 0.346635 0.954595

loop_
_geom_bond_atom_site_label_1
_geom_bond_atom_site_label_2
_ccdc_geom_bond_type
C67   N1    Am   
C19   C24   A    
Ba2   O5    S    
H52   N5    S    
C26   N2    Am   
H53   N6    S    
C10   C67   A    
C59   H68   S    
C56   H18   S    
C63   H63   S    
C46   P2    S    
C63   H61   S    
H51   N5    S    
C24   C25   A    
C67   O10   D    
C15   C31   D    
C5    P8    S    
C23   O7    S    
C23   H8    S    
C45   H16   S    
C30   P6    S    
C17   C19   A    
C22   C24   A    
C32   C33   S    
C62   O22   S    
Ba2   O28   S    
C36   C37   A    
C33   N2    S    
C55   C57   A    
C28   H50   S    
C44   C50   A    
C12   O18   S    
C66   H22   S    
Ba1   Ba2   S    
O16   P6    D    
C57   P5    S    
C22   C27   A    
O17   P1    S    
C17   C35   A    
C14   H38   S    
Ba2   O31   S    
C64   H65   S    
C9    C13   A    
C25   C42   A    
C2    O13   D    
Ba1   O19   S    
C34   H13   S    
O3    P5    S    
C4    H25   S    
O9    P8    S    
H54   N6    S    
C65   N7    S    
C16   H15   S    
C61   N6    S    
Ba1   O4    S    
C4    H35   S    
C7    C8    S    
C48   N3    S    
Ba2   O26   S    
C37   C43   A    
C54   N4    S    
O27   P4    S    
Ba2   O4    S    
C57   C58   A    
C6    C14   D    
O18   P6    S    
C12   H1    S    
Ba1   O1    S    
C40   H12   S    
Ba2   P4    S    
C47   H42   S    
O15   P6    S    
C63   H62   S    
H57   N7    S    
C31   C32   D    
C55   H47   S    
C4    O23   S    
C51   C53   A    
O31   P5    S    
C4    C16   S    
C44   C46   A    
C66   H26   S    
C31   P1    S    
C65   C66   S    
C45   H17   S    
C52   H34   S    
C17   C20   A    
O28   P8    S    
C34   H11   S    
C15   H39   S    
C3    C5    S    
C18   C37   A    
C6    C7    D    
C28   H49   S    
C62   H59   S    
C39   O24   S    
C26   O14   D    
C52   O17   S    
C23   H9    S    
O1    P1    D    
C63   O24   S    
C9    C36   A    
C41   C42   A    
C35   C36   A    
C58   H43   S    
Ba2   O30   S    
C64   H64   S    
Ba1   P2    S    
C6    P4    S    
C29   C30   S    
C16   H48   S    
O8    P8    D    
Ba1   O20   S    
C21   C22   A    
C62   H58   S    
C18   C19   A    
C60   C61   S    
O4    P1    S    
C48   C49   A    
C60   O12   S    
Ba1   O5    S    
C60   H69   S    
O7    P7    S    
C1    H7    S    
C7    H27   S    
C13   C39   A    
C1    C12   S    
C27   O11   D    
C46   C47   A    
C52   C59   S    
C29   O22   S    
C49   H41   S    
C65   O9    S    
C1    H14   S    
O20   P3    S    
C29   C33   D    
O26   P4    D    
C8    N1    S    
C11   C38   A    
O29   P4    S    
C25   C26   A    
C18   C41   A    
O19   P2    D    
C43   H37   S    
O30   P7    S    
C51   C54   A    
C51   H40   S    
Ba2   O6    S    
C27   N2    Am   
C45   O3    S    
Ba1   O30   S    
C53   P7    S    
C20   H30   S    
C44   H44   S    
C32   H36   S    
C64   O25   S    
Ba1   O15   S    
C5    C14   S    
C34   H10   S    
C56   H19   S    
C16   H46   S    
C38   H31   S    
C9    C10   A    
O6    P7    D    
C61   H5    S    
C62   H60   S    
C35   C38   A    
O23   P3    S    
C61   H4    S    
H55   N7    S    
Ba1   O27   S    
C66   H24   S    
C3    H32   S    
O5    P2    S    
C12   H6    S    
C2    C13   A    
C53   C55   A    
C1    H3    S    
C50   P3    S    
C49   C50   A    
N3    N4    D    
C2    N1    Am   
O2    P5    D    
C52   H45   S    
C60   H2    S    
C40   H23   S    
O12   P2    S    
C65   H21   S    
C11   H28   S    
C56   H20   S    
C42   O25   S    
C41   H33   S    
C23   C34   S    
C64   H66   S    
C54   C58   A    
C3    C8    D    
C21   H29   S    
C10   C11   A    
C47   C48   A    
C40   N5    S    
C15   C30   S    
C39   C43   A    
C20   C21   A    
C28   C40   S    
C59   H56   S    
O21   P3    D    
Ba1   P1    S    
C28   O29   S    
C59   H67   S    
Ba2   O27   S    
C45   C56   S    
