data_mof_unit_5634.cif
_audit_creation_date              2012-12-10T20:31:56-0500
_audit_creation_method            fapswitch 2.2
_symmetry_space_group_name_H-M    P1
_symmetry_Int_Tables_number       1
_space_group_crystal_system       triclinic
_cell_length_a                    9.951229
_cell_length_b                    10.721657
_cell_length_c                    15.576554
_cell_angle_alpha                 90.717925
_cell_angle_beta                  65.430933
_cell_angle_gamma                 89.203637
_cell_volume                      1510.99828163

loop_
_atom_site_label
_atom_site_type_symbol
_atom_type_description
_atom_site_fract_x
_atom_site_fract_y
_atom_site_fract_z
_atom_type_partial_charge
C1    C     C_R   0.501355 0.739731 0.497327 0.918741
C2    C     C_R   0.410964 0.496063 0.914542 0.024598
C3    C     C_R   0.268016 0.545178 0.972219 -0.058275
C4    C     C_R   0.519034 0.481828 0.951757 0.090133
C5    C     C_R   0.479762 0.513582 0.048220 -0.016685
C6    C     C_R   0.332913 0.555096 0.104793 -0.324479
C7    C     C_R   0.229851 0.571699 0.067287 0.615306
C8    C     C_R   0.665991 0.439820 0.895322 -0.200084
C9    C     C_R   0.767997 0.421815 0.933504 -0.196492
C10   C     C_R   0.729633 0.448560 0.028324 0.159259
C11   C     C_R   0.587648 0.499509 0.085541 0.122452
C12   C     C_R   0.406127 0.498567 0.676625 0.900289
C13   C     C_R   0.831530 0.423604 0.067049 -0.190405
C14   C     C_R   0.792261 0.445205 0.162880 -0.139241
C15   C     C_R   0.557397 0.531507 0.179291 -0.238640
C16   C     C_R   0.391759 0.938132 0.481444 0.008232
C17   C     C_R   0.510641 0.871103 0.484083 -0.322259
C18   C     C_R   0.641171 0.934162 0.471056 0.658727
C19   C     C_R   0.639473 0.063031 0.473303 -0.322557
C20   C     C_R   0.509400 0.128851 0.487285 -0.199243
C21   C     C_R   0.389745 0.065015 0.485810 0.037959
C22   C     C_3   0.225233 0.073631 0.542465 -0.173292
C23   C     C_R   0.501597 0.260450 0.498526 0.907073
C24   C     C_3   0.228281 0.931298 0.537116 0.475922
C25   C     C_R   0.875498 0.525140 0.580892 0.173339
C26   C     C_R   0.983448 0.463190 0.421504 0.138105
C27   C     C_R   0.124857 0.462208 0.423205 -0.113868
C28   C     C_R   0.017194 0.524969 0.581093 0.181539
C29   C     C_3   0.980046 0.642329 0.639493 -0.445633
C30   C     C_3   0.828099 0.641764 0.638991 -0.466510
C31   C     C_R   0.593815 0.500706 0.323289 0.858424
C32   C     C_R   0.345811 0.500367 0.779994 -0.183661
C33   C     C_R   0.653445 0.496925 0.219865 -0.062637
C34   C     C_R   0.165539 0.568594 0.933487 -0.237837
C35   C     C_R   0.205158 0.548588 0.837449 0.568385
C36   C     C_R   0.442136 0.466052 0.820397 -0.313843
H1    H     H_    0.939251 0.382452 0.024032 0.142531
H2    H     H_    0.736559 0.109854 0.470305 0.192293
H3    H     H_    0.169419 0.115859 0.500648 0.195515
H4    H     H_    0.195977 0.882585 0.605010 0.059418
H5    H     H_    0.221467 0.431854 0.361554 0.152536
H6    H     H_    0.974604 0.628181 0.711003 0.267511
H7    H     H_    0.456958 0.580218 0.224096 0.164790
H8    H     H_    0.047565 0.721290 0.601197 0.256356
H9    H     H_    0.737843 0.625588 0.709681 0.200877
H10   H     H_    0.807771 0.720673 0.599988 0.273272
H11   H     H_    0.868280 0.417473 0.192053 0.170453
H12   H     H_    0.877803 0.386234 0.888351 0.168010
H13   H     H_    0.056745 0.607583 0.976567 0.222368
H14   H     H_    0.543791 0.419490 0.775081 0.174520
H15   H     H_    0.292333 0.575594 0.179165 0.172215
H16   H     H_    0.707480 0.419489 0.820858 0.140158
N1    N     N_R   0.856900 0.500860 0.500610 -0.100857
N2    N     N_R   0.142540 0.500820 0.500610 -0.107514
O1    O     O_R   0.385310 0.683210 0.499990 -0.592841
O2    O     O_R   0.614650 0.683240 0.500000 -0.542242
O3    O     O_R   0.319830 0.499970 0.632240 -0.569085
O4    O     O_R   0.549170 0.500000 0.632250 -0.628771
O5    O     O_R   0.385350 0.316760 0.500000 -0.620790
O6    O     O_R   0.614690 0.316790 0.500010 -0.644080
O7    O     O_R   0.450830 0.500000 0.367750 -0.620706
O8    O     O_R   0.680170 0.500030 0.367760 -0.625659
Zn1   Zn    Zn3+2 0.346870 0.499980 0.499990 0.976828
Zn2   Zn    Zn3+2 0.653130 0.500020 0.500010 0.969245
F1    F     F_    0.092098 0.615066 0.124626 -0.683406
F2    F     F_    0.766885 0.873336 0.462581 -0.629432
C37   C     C_3   0.165659 0.130730 0.643845 -0.449167
C38   C     C_3   0.248571 0.092844 0.704244 -0.336054
C39   C     C_3   0.176320 0.154097 0.802375 -0.859424
H17   H     H_    0.177319 0.257334 0.796955 0.259410
H18   H     H_    0.060349 0.123615 0.839712 0.264363
H19   H     H_    0.238430 0.126772 0.844417 0.255846
H20   H     H_    0.248354 0.990211 0.712344 0.217883
H21   H     H_    0.364795 0.122904 0.671126 0.223403
H22   H     H_    0.165391 0.233958 0.638920 0.241314
H23   H     H_    0.048166 0.103881 0.681147 0.213147
F3    F     F_    0.160471 0.886936 0.481484 -0.632374
C40   C     C_3   0.983252 0.422709 0.328668 -0.363504
C41   C     C_3   0.926254 0.289120 0.331946 -0.339179
C42   C     C_3   0.024820 0.209330 0.246134 -0.861402
H24   H     H_    0.034568 0.253010 0.179628 0.252988
H25   H     H_    0.136859 0.197693 0.244696 0.270815
H26   H     H_    0.976399 0.115662 0.250472 0.279013
H27   H     H_    0.922870 0.241578 0.395725 0.229148
H28   H     H_    0.813245 0.291668 0.334759 0.240430
H29   H     H_    0.927217 0.493917 0.304720 0.248572
H30   H     H_    0.097465 0.425435 0.272145 0.186866
F4    F     F_    0.108545 0.581128 0.800778 -0.708450

loop_
_geom_bond_atom_site_label_1
_geom_bond_atom_site_label_2
_ccdc_geom_bond_type
C40   H30   S    
C16   C21   A    
C29   H6    S    
C31   O7    A    
C30   H9    S    
C19   C20   A    
C4    C8    A    
C14   C33   A    
C27   N2    A    
C25   C28   A    
C23   O5    A    
C26   C27   A    
C26   C40   S    
C5    C6    A    
C32   C36   A    
C28   C29   S    
C1    O2    A    
C25   N1    A    
C5    C11   A    
C3    C7    A    
C41   H27   S    
C34   C35   A    
N1    Zn2   S    
N2    Zn1   S    
C38   H21   S    
C39   H18   S    
C18   C19   A    
O7    Zn1   S    
O8    Zn2   S    
C11   C15   A    
C8    C9    A    
O1    Zn1   S    
O2    Zn2   S    
C6    H15   S    
C9    C10   A    
C8    H16   S    
C13   H1    S    
C12   O4    A    
C40   H29   S    
C16   C24   S    
C13   C14   A    
C12   C32   S    
C31   O8    A    
C42   H26   S    
O3    Zn1   S    
O4    Zn2   S    
C23   O6    A    
C37   C38   S    
C32   C35   A    
C42   H25   S    
C28   N2    A    
C40   C41   S    
C38   C39   S    
C3    C34   A    
C38   H20   S    
C39   H19   S    
C2    C4    A    
C29   C30   S    
C19   H2    S    
C7    F1    S    
C35   F4    S    
C27   H5    S    
C20   C23   S    
C31   C33   S    
C17   C18   A    
C14   H11   S    
C12   O3    A    
C29   H8    S    
C22   C24   S    
C37   H22   S    
C26   N1    A    
C41   H28   S    
C36   H14   S    
C2    C36   A    
C25   C30   S    
C34   H13   S    
C1    C17   S    
C30   H10   S    
C42   H24   S    
C10   C13   A    
C6    C7    A    
C18   F2    S    
O5    Zn1   S    
O6    Zn2   S    
C2    C3    A    
C1    O1    A    
C15   H7    S    
C16   C17   A    
C22   H3    S    
C24   H4    S    
C39   H17   S    
C22   C37   S    
C10   C11   A    
C41   C42   S    
C24   F3    S    
C4    C5    A    
C20   C21   A    
C9    H12   S    
C37   H23   S    
C21   C22   S    
C15   C33   A    
