data_mof_unit_13705.cif
_audit_creation_date              2012-10-26T20:22:06-0400
_audit_creation_method            fapswitch 2.2
_symmetry_space_group_name_H-M    P1
_symmetry_Int_Tables_number       1
_space_group_crystal_system       triclinic
_cell_length_a                    10.752859
_cell_length_b                    9.604102
_cell_length_c                    10.641305
_cell_angle_alpha                 90.39385
_cell_angle_beta                  91.663943
_cell_angle_gamma                 90.086724
_cell_volume                      1098.4531547

loop_
_atom_site_label
_atom_site_type_symbol
_atom_type_description
_atom_site_fract_x
_atom_site_fract_y
_atom_site_fract_z
_atom_type_partial_charge
C1    C     C_R   0.871134 0.500193 0.500594 0.036016
C2    C     C_3   0.388131 0.541466 0.040457 -0.127501
C3    C     C_3   0.476901 0.628581 0.961664 -0.000868
C4    C     C_3   0.523096 0.371419 0.038337 -0.000869
C5    C     C_3   0.498992 0.502105 0.877031 0.017083
C6    C     C_3   0.501006 0.497895 0.122969 0.017085
C7    C     C_R   0.422569 0.073670 0.419653 0.076817
C8    C     C_R   0.577435 0.926329 0.580344 0.076814
C9    C     C_R   0.577454 0.074966 0.580357 0.075681
C10   C     C_R   0.422545 0.925033 0.419644 0.075678
C11   C     C_R   0.061214 0.497867 0.384655 0.117704
C12   C     C_R   0.128865 0.499811 0.499405 0.036010
C13   C     C_R   0.938784 0.502125 0.615346 0.117705
C14   C     C_R   0.931357 0.497954 0.385021 0.054404
C15   C     C_R   0.068642 0.502038 0.614980 0.054393
C16   C     C_1   0.340116 0.146613 0.333379 0.275993
C17   C     C_1   0.659901 0.853386 0.666603 0.275983
C18   C     C_1   0.660302 0.149106 0.666494 0.273582
C19   C     C_1   0.339693 0.850891 0.333511 0.273579
C20   C     C_1   0.450277 0.771344 0.920703 0.250602
C21   C     C_1   0.549703 0.228651 0.079296 0.250612
C22   C     C_R   0.262751 0.499914 0.498635 0.583026
C23   C     C_R   0.737249 0.500087 0.501364 0.583035
C24   C     C_R   0.500631 0.499366 0.259638 0.557653
C25   C     C_R   0.499368 0.500633 0.740362 0.557652
C26   C     C_3   0.589494 0.586862 0.045634 -0.137486
C27   C     C_3   0.410504 0.413139 0.954366 -0.137484
C28   C     C_3   0.611868 0.458533 0.959543 -0.127501
Cu1   Cu    Cu3+1 0.500000 0.640660 0.500000 0.998178
Cu2   Cu    Cu3+1 0.500000 0.359340 0.500000 0.998170
H1    H     H_    0.661881 0.658949 0.084504 0.137102
H2    H     H_    0.804675 0.408209 0.264855 0.243055
H3    H     H_    0.195287 0.591812 0.735160 0.243050
H4    H     H_    0.194348 0.415297 0.736153 0.233875
H5    H     H_    0.338117 0.341052 0.915496 0.137114
H6    H     H_    0.703197 0.423935 0.924947 0.157089
H7    H     H_    0.296801 0.576064 0.075054 0.157091
H8    H     H_    0.096886 0.407718 0.217208 0.268172
H9    H     H_    0.097191 0.583488 0.216500 0.262156
H10   H     H_    0.902753 0.416418 0.783447 0.262157
H11   H     H_    0.903164 0.592184 0.782849 0.268172
H12   H     H_    0.805696 0.584722 0.263806 0.233874
N1    N     N_R   0.500000 0.852070 0.500000 -0.270999
N2    N     N_3   0.874836 0.503730 0.731822 -0.590956
N3    N     N_3   0.862086 0.496212 0.267605 -0.640275
N4    N     N_3   0.137913 0.503775 0.732395 -0.640260
N5    N     N_R   0.500000 0.147930 0.500000 -0.270998
N6    N     N_1   0.273750 0.203665 0.263463 -0.285607
N7    N     N_1   0.726279 0.796333 0.736503 -0.285566
N8    N     N_1   0.727171 0.207000 0.736214 -0.297451
N9    N     N_1   0.272821 0.792995 0.263795 -0.297407
N10   N     N_1   0.429184 0.883905 0.888496 -0.276009
N11   N     N_1   0.570774 0.116083 0.111502 -0.276011
N12   N     N_3   0.125159 0.496231 0.268182 -0.590954
O1    O     O_R   0.319640 0.618740 0.499990 -0.496352
O2    O     O_R   0.680360 0.381260 0.500010 -0.496359
O3    O     O_R   0.680360 0.618740 0.500010 -0.498295
O4    O     O_R   0.319640 0.381260 0.499990 -0.498305
O5    O     O_R   0.499970 0.618770 0.316850 -0.499384
O6    O     O_R   0.500030 0.381230 0.683150 -0.499384
O7    O     O_R   0.500030 0.618770 0.683150 -0.497041
O8    O     O_R   0.499970 0.381230 0.316850 -0.497042

loop_
_geom_bond_atom_site_label_1
_geom_bond_atom_site_label_2
_ccdc_geom_bond_type
C22   O4    A    
C7    C10   A    
C11   C12   A    
C8    N1    A    
C1    C23   S    
C2    C27   S    
H4    N4    S    
C25   O6    A    
C12   C22   S    
C5    C28   S    
C7    N5    A    
H2    N3    S    
C9    C18   S    
C26   C28   S    
C8    C17   S    
H8    N12   S    
C12   C15   A    
C10   C19   S    
C6    C24   S    
C16   N6    T    
C13   C15   A    
C2    C3    S    
C6    C26   S    
C3    C20   S    
C20   N10   T    
C25   O7    A    
Cu1   N1    S    
C21   N11   T    
H3    N4    S    
C2    H7    S    
C18   N8    T    
C22   O1    A    
C11   N12   S    
C24   O5    A    
C5    C25   S    
Cu2   O4    S    
C7    C16   S    
C4    C28   S    
C4    C21   S    
C9    N5    A    
C14   N3    S    
Cu2   O8    S    
C13   N2    S    
H11   N2    S    
Cu1   O7    S    
H9    N12   S    
C1    C13   A    
Cu1   Cu2   S    
C19   N9    T    
Cu2   N5    S    
H10   N2    S    
C4    C27   S    
C28   H6    S    
C4    C6    S    
C26   H1    S    
C23   O2    A    
C11   C14   A    
C23   O3    A    
Cu1   O5    S    
C24   O8    A    
C1    C14   A    
Cu1   O1    S    
C15   N4    S    
C27   H5    S    
C10   N1    A    
C5    C27   S    
Cu2   O2    S    
C3    C26   S    
C17   N7    T    
C2    C6    S    
Cu1   O3    S    
C8    C9    A    
C3    C5    S    
H12   N3    S    
Cu2   O6    S    
