data_mof_unit_44377.cif
_audit_creation_date              2012-12-10T17:13:37-0500
_audit_creation_method            fapswitch 2.2
_symmetry_space_group_name_H-M    P1
_symmetry_Int_Tables_number       1
_space_group_crystal_system       triclinic
_cell_length_a                    10.792352
_cell_length_b                    12.928084
_cell_length_c                    11.781033
_cell_angle_alpha                 98.425898
_cell_angle_beta                  93.791389
_cell_angle_gamma                 91.849269
_cell_volume                      1620.97446025

loop_
_atom_site_label
_atom_site_type_symbol
_atom_type_description
_atom_site_fract_x
_atom_site_fract_y
_atom_site_fract_z
_atom_type_partial_charge
C1    C     C_R   0.497357 0.299699 0.479466 0.813270
C2    C     C_3   0.876599 0.495728 0.498454 0.108824
C3    C     C_3   0.929405 0.603263 0.474012 -0.425748
C4    C     C_3   0.914413 0.409737 0.400547 -0.151479
C5    C     C_R   0.517598 0.812881 0.528431 -0.038138
C6    C     C_R   0.490948 0.186702 0.467372 -0.007743
C7    C     C_R   0.401097 0.020736 0.371100 -0.227124
C8    C     C_R   0.412369 0.128932 0.379549 -0.215310
C9    C     C_R   0.563010 0.136291 0.543249 -0.223498
C10   C     C_R   0.550773 0.028179 0.536959 0.166298
C11   C     C_R   0.468253 0.970093 0.450734 0.171234
C12   C     C_R   0.259628 0.497637 0.499300 0.758149
C13   C     C_R   0.453517 0.862433 0.446216 -0.282171
C14   C     C_R   0.599188 0.870251 0.614000 -0.209660
C15   C     C_R   0.617366 0.977563 0.617092 -0.250578
C16   C     C_R   0.425307 0.376208 0.027924 -0.335217
C17   C     C_R   0.427194 0.391053 0.147268 0.109379
C18   C     C_R   0.528225 0.557528 0.156217 0.013056
C19   C     C_R   0.528914 0.545728 0.034365 0.061106
C20   C     C_R   0.476348 0.453808 0.968997 0.034081
C21   C     C_R   0.474985 0.441419 0.846525 0.121096
C22   C     C_R   0.577529 0.607688 0.854997 0.060128
C23   C     C_R   0.504833 0.700258 0.519997 0.796108
C24   C     C_R   0.581022 0.622419 0.976439 -0.345418
C25   C     C_R   0.739499 0.498778 0.499686 0.768068
C26   C     C_3   0.077128 0.473213 0.613425 -0.431530
C27   C     C_3   0.935873 0.478310 0.617094 -0.376662
C28   C     C_3   0.073237 0.605154 0.479594 -0.379864
C29   C     C_3   0.058643 0.406192 0.401586 -0.159096
C30   C     C_3   0.120725 0.496001 0.495930 0.107839
Cu1   Cu    Cu3+1 0.509350 0.507730 0.615930 0.933284
Cu2   Cu    Cu3+1 0.490650 0.492270 0.384070 0.931203
H1    H     H_    0.880646 0.438898 0.320154 0.137189
H2    H     H_    0.892812 0.619000 0.387963 0.158431
H3    H     H_    0.390920 0.817287 0.379961 0.141711
H4    H     H_    0.650764 0.831649 0.676578 0.136852
H5    H     H_    0.338452 0.977060 0.304016 0.133968
H6    H     H_    0.383110 0.303227 0.983790 0.158627
H7    H     H_    0.623559 0.693973 0.024643 0.134954
H8    H     H_    0.390178 0.329762 0.189977 0.135352
H9    H     H_    0.570754 0.627252 0.208039 0.119039
H10   H     H_    0.914951 0.544455 0.683945 0.178795
H11   H     H_    0.110077 0.663715 0.554029 0.161955
H12   H     H_    0.088018 0.333169 0.433020 0.112754
N1    N     N_R   0.523430 0.519360 0.790130 -0.195961
N2    N     N_R   0.476570 0.480640 0.209880 -0.183903
O1    O     O_R   0.506640 0.354460 0.582000 -0.576464
O2    O     O_R   0.490840 0.341410 0.386200 -0.602670
O3    O     O_R   0.325590 0.506510 0.597900 -0.583814
O4    O     O_R   0.309790 0.493450 0.402100 -0.573599
O5    O     O_R   0.509160 0.658590 0.613800 -0.593333
O6    O     O_R   0.493360 0.645540 0.418000 -0.589500
O7    O     O_R   0.690210 0.506550 0.597900 -0.592604
O8    O     O_R   0.674410 0.493490 0.402100 -0.595201
H13   H     H_    0.122017 0.529887 0.685890 0.183692
H14   H     H_    0.109469 0.633091 0.403241 0.154963
H15   H     H_    0.681227 0.021193 0.683182 0.130153
H16   H     H_    0.357953 0.167741 0.319091 0.134669
H17   H     H_    0.627554 0.181389 0.607678 0.136052
C31   C     C_R   0.414950 0.343514 0.784334 0.197475
C32   C     C_R   0.477084 0.249524 0.783999 -0.179443
C33   C     C_R   0.410841 0.153209 0.757553 -0.146990
C34   C     C_R   0.283531 0.149616 0.726941 -0.094580
C35   C     C_R   0.220903 0.242492 0.729237 -0.199818
C36   C     C_R   0.286100 0.338833 0.761086 -0.157080
H18   H     H_    0.575037 0.251157 0.811349 0.112933
H19   H     H_    0.457850 0.081328 0.762540 0.142234
H20   H     H_    0.232725 0.074977 0.705711 0.122970
H21   H     H_    0.120976 0.239490 0.712458 0.116678
H22   H     H_    0.236066 0.409740 0.777566 0.116788
H23   H     H_    0.102643 0.393462 0.625479 0.160248
H24   H     H_    0.617636 0.668377 0.812989 0.126201
H25   H     H_    0.895921 0.406422 0.644328 0.161984
H26   H     H_    0.898836 0.667619 0.538248 0.158454
C37   C     C_R   0.096845 0.396029 0.277495 0.159343
C38   C     C_R   0.074252 0.474360 0.207751 -0.121900
C39   C     C_R   0.088684 0.455112 0.089631 -0.140943
C40   C     C_R   0.122436 0.356894 0.038569 -0.107739
C41   C     C_R   0.145303 0.278439 0.105870 -0.169697
C42   C     C_R   0.133917 0.297986 0.224474 -0.161613
H27   H     H_    0.037132 0.547878 0.241496 0.108728
H28   H     H_    0.069391 0.515396 0.036915 0.119502
H29   H     H_    0.130204 0.341418 0.946769 0.129103
H30   H     H_    0.171519 0.202202 0.066053 0.126063
H31   H     H_    0.148557 0.234583 0.273885 0.110510
C43   C     C_R   0.852783 0.300256 0.393410 0.097434
C44   C     C_R   0.769011 0.261929 0.298389 -0.110811
C45   C     C_R   0.724628 0.157686 0.280194 -0.135437
C46   C     C_R   0.763388 0.089901 0.356034 -0.094156
C47   C     C_R   0.843646 0.127043 0.452179 -0.154116
C48   C     C_R   0.887473 0.231501 0.471441 -0.173116
H32   H     H_    0.739912 0.312005 0.236371 0.129158
H33   H     H_    0.661057 0.129189 0.206491 0.124585
H34   H     H_    0.729766 0.008927 0.341262 0.129678
H35   H     H_    0.872742 0.074540 0.511508 0.126702
H36   H     H_    0.953075 0.256166 0.544220 0.114669

loop_
_geom_bond_atom_site_label_1
_geom_bond_atom_site_label_2
_ccdc_geom_bond_type
C44   C45   A    
C15   H15   S    
C19   C20   A    
C26   H13   S    
C6    C9    A    
C12   O3    A    
C28   H14   S    
C7    C8    A    
C39   C40   A    
C7    C11   A    
C26   C27   S    
C29   C30   S    
C33   H19   S    
C3    C28   S    
C25   O7    A    
C13   H3    S    
C10   C15   A    
C14   H4    S    
C41   H30   S    
C4    C43   S    
C36   H22   S    
C24   H7    S    
C18   C19   A    
Cu2   O8    S    
C46   H34   S    
C3    H26   S    
Cu2   O6    S    
C8    H16   S    
C48   H36   S    
C45   H33   S    
C32   H18   S    
C16   C17   A    
C2    C27   S    
C37   C42   A    
C5    C13   A    
C4    C29   S    
Cu1   O1    S    
C44   H32   S    
C26   H23   S    
Cu2   O2    S    
Cu1   O3    S    
C18   N2    A    
C22   H24   S    
C21   N1    A    
C38   C39   A    
C1    C6    S    
C47   H35   S    
C17   N2    A    
C21   C31   S    
C18   H9    S    
C40   C41   A    
C1    O1    A    
C6    C8    A    
C3    H2    S    
C34   C35   A    
C31   C32   A    
C9    H17   S    
C17   H8    S    
C23   O6    A    
C2    C4    S    
C37   C38   A    
C42   H31   S    
C23   O5    A    
Cu1   Cu2   S    
C5    C23   S    
C16   C20   A    
C20   C21   A    
C33   C34   A    
C7    H5    S    
C35   H21   S    
Cu1   O7    S    
Cu2   O4    S    
C5    C14   A    
C25   O8    A    
C31   C36   A    
C26   C30   S    
C29   H12   S    
C22   C24   A    
C9    C10   A    
C4    H1    S    
C12   C30   S    
C43   C44   A    
Cu2   N2    S    
Cu1   O5    S    
C38   H27   S    
C40   H29   S    
C12   O4    A    
C1    O2    A    
C29   C37   S    
C34   H20   S    
C28   H11   S    
C43   C48   A    
C35   C36   A    
C28   C30   S    
C19   C24   A    
C11   C13   A    
C27   H10   S    
C47   C48   A    
C39   H28   S    
C2    C3    S    
C2    C25   S    
C32   C33   A    
C10   C11   A    
C41   C42   A    
C22   N1    A    
C45   C46   A    
Cu1   N1    S    
C14   C15   A    
C46   C47   A    
C27   H25   S    
C16   H6    S    
