data_mof_unit_62415.cif
_audit_creation_date              2012-12-10T18:36:45-0500
_audit_creation_method            fapswitch 2.2
_symmetry_space_group_name_H-M    P1
_symmetry_Int_Tables_number       1
_space_group_crystal_system       triclinic
_cell_length_a                    30.21609
_cell_length_b                    21.314474
_cell_length_c                    21.315535
_cell_angle_alpha                 90.015935
_cell_angle_beta                  135.125631
_cell_angle_gamma                 90.040927
_cell_volume                      9685.88677448

loop_
_atom_site_label
_atom_site_type_symbol
_atom_type_description
_atom_site_fract_x
_atom_site_fract_y
_atom_site_fract_z
_atom_type_partial_charge
C1    C     C_R   0.121709 0.499986 0.121877 0.852191
C2    C     C_3   0.499914 0.810695 0.000200 0.025822
C3    C     C_3   0.499820 0.500289 0.189044 -0.093222
C4    C     C_3   0.007298 0.770766 0.948785 -0.165823
C5    C     C_3   0.014598 0.229269 0.957321 -0.171636
C6    C     C_3   0.505509 0.270778 0.946820 -0.165349
C7    C     C_3   0.514374 0.729265 0.957050 -0.171663
C8    C     C_3   0.999804 0.810713 0.000416 0.027584
C9    C     C_3   0.999944 0.189294 0.000376 0.025835
C10   C     C_3   0.499829 0.310714 0.000484 0.027729
C11   C     C_3   0.499953 0.689293 0.000401 0.025849
C12   C     C_3   0.047224 0.770677 0.084055 -0.151953
C13   C     C_3   0.229139 0.447925 0.200735 -0.159519
C14   C     C_3   0.042593 0.229445 0.084761 -0.155085
C15   C     C_3   0.548340 0.270672 0.083740 -0.152245
C16   C     C_3   0.542773 0.729445 0.084782 -0.155118
C17   C     C_3   0.992327 0.729357 0.051895 -0.165568
C18   C     C_3   0.985288 0.270621 0.043334 -0.161571
C19   C     C_3   0.494173 0.229348 0.053976 -0.165397
C20   C     C_3   0.485536 0.770624 0.043652 -0.161508
C21   C     C_3   0.944864 0.770515 0.968226 -0.164444
C22   C     C_3   0.942585 0.229350 0.958887 -0.160638
C23   C     C_3   0.445630 0.270512 0.970709 -0.164090
C24   C     C_3   0.229295 0.551110 0.199465 -0.159521
C25   C     C_3   0.442662 0.729351 0.959213 -0.160514
C26   C     C_3   0.747460 0.622105 0.637105 0.114134
C27   C     C_3   0.775776 0.674343 0.626050 -0.840311
C28   C     C_3   0.747785 0.345317 0.693521 0.124502
C29   C     C_3   0.776467 0.283090 0.702608 -0.856619
C30   C     C_3   0.247435 0.121448 0.636356 0.113605
C31   C     C_3   0.275797 0.173132 0.624660 -0.839428
C32   C     C_3   0.247704 0.844928 0.694622 0.124569
C33   C     C_3   0.276338 0.782625 0.703841 -0.856725
C34   C     C_3   0.079235 0.856029 0.329893 0.121883
C35   C     C_3   0.729140 0.947941 0.200703 -0.159534
C36   C     C_3   0.106005 0.796990 0.327026 -0.850099
C37   C     C_3   0.088334 0.138944 0.340208 0.121293
C38   C     C_3   0.116417 0.197926 0.339691 -0.853880
C39   C     C_3   0.579165 0.355973 0.329707 0.121895
C40   C     C_3   0.606242 0.297131 0.327037 -0.849276
C41   C     C_3   0.588351 0.638951 0.340228 0.121324
C42   C     C_3   0.616561 0.697864 0.339824 -0.853554
C43   C     C_3   0.729295 0.051128 0.199496 -0.159454
C44   C     C_3   0.270427 0.499085 0.211544 -0.150498
C45   C     C_3   0.770428 0.999120 0.211543 -0.150558
C46   C     C_3   0.310700 0.499915 0.311393 0.026970
C47   C     C_3   0.810701 0.999914 0.311393 0.026969
C48   C     C_3   0.270678 0.448754 0.301873 -0.170854
C49   C     C_R   0.621709 0.999985 0.121876 0.852171
C50   C     C_3   0.270820 0.551940 0.300582 -0.170922
C51   C     C_3   0.770678 0.948734 0.301841 -0.170851
C52   C     C_3   0.770820 0.051921 0.300614 -0.170885
C53   C     C_3   0.229671 0.500775 0.289919 -0.173358
C54   C     C_3   0.729671 0.000738 0.289919 -0.173366
C55   C     C_3   0.189306 0.499950 0.189931 0.031240
C56   C     C_3   0.689306 0.999949 0.189930 0.031267
C57   C     C_3   0.769604 0.544539 0.731061 0.496482
C58   C     C_3   0.769723 0.445041 0.750644 0.500877
C59   C     C_3   0.269601 0.044270 0.730747 0.496420
C60   C     C_3   0.952348 0.729324 0.916590 -0.154665
C61   C     C_3   0.269713 0.944910 0.751019 0.500917
C62   C     C_3   0.728683 0.488672 0.669189 -0.376816
C63   C     C_3   0.228674 0.988263 0.669267 -0.376330
C64   C     C_R   0.999895 0.621704 0.999961 0.869612
C65   C     C_R   0.999905 0.378297 0.999946 0.880148
C66   C     C_R   0.499914 0.121704 0.999982 0.869349
C67   C     C_R   0.499912 0.878297 0.999954 0.880227
C68   C     C_3   0.689040 0.500256 0.688910 -0.102130
C69   C     C_3   0.189038 0.000266 0.688915 -0.102110
C70   C     C_3   0.729216 0.557142 0.748858 -0.234822
C71   C     C_3   0.957228 0.270531 0.915833 -0.147756
C72   C     C_3   0.729279 0.455235 0.768930 -0.231135
C73   C     C_3   0.229219 0.057286 0.748464 -0.235241
C74   C     C_3   0.229276 0.955520 0.769243 -0.231160
C75   C     C_3   0.770756 0.511926 0.829446 -0.275342
C76   C     C_3   0.270761 0.012338 0.829365 -0.275188
C77   C     C_3   0.810818 0.500490 0.810806 -0.096162
C78   C     C_3   0.310817 0.000486 0.810797 -0.096279
C79   C     C_R   0.999864 0.000031 0.878237 0.852265
C80   C     C_R   0.499864 0.500034 0.878238 0.852302
C81   C     C_R   0.999956 0.878302 0.000364 0.876671
C82   C     C_3   0.451299 0.229326 0.917034 -0.154613
C83   C     C_R   0.000014 0.121701 0.000309 0.874895
C84   C     C_R   0.499960 0.378302 0.000398 0.876722
C85   C     C_R   0.500016 0.621701 0.000319 0.874880
C86   C     C_R   0.000019 0.000171 0.121731 0.954621
C87   C     C_R   0.500019 0.500186 0.121731 0.954640
C88   C     C_R   0.500080 0.499991 0.378497 0.911272
C89   C     C_R   0.000069 0.999992 0.378486 0.911280
C90   C     C_R   0.378290 0.499967 0.378673 0.864462
C91   C     C_R   0.878290 0.999967 0.378672 0.864449
C92   C     C_R   0.499704 0.500014 0.621466 0.863881
C93   C     C_3   0.457071 0.770528 0.915861 -0.147570
C94   C     C_R   0.999705 0.000013 0.621468 0.863869
C95   C     C_R   0.878349 0.500227 0.878267 0.951598
C96   C     C_R   0.378349 0.000221 0.878266 0.951358
C97   C     C_R   0.621620 0.500061 0.621742 0.910682
C98   C     C_R   0.121619 0.000062 0.621744 0.910678
C99   C     C_3   0.031750 0.050130 0.802631 -0.160311
C100  C     C_3   0.026520 0.947058 0.797358 -0.159186
C101  C     C_3   0.531953 0.550002 0.802834 -0.160434
C102  C     C_3   0.526306 0.446954 0.797144 -0.159143
C103  C     C_3   0.558859 0.496870 0.788508 -0.150102
C104  C     C_3   0.999805 0.689307 0.000191 0.025348
C105  C     C_3   0.058872 0.997108 0.788523 -0.150137
C106  C     C_3   0.499387 0.500063 0.688746 0.027432
C107  C     C_3   0.999388 0.000059 0.688747 0.027400
C108  C     C_3   0.472472 0.553191 0.701814 -0.171853
C109  C     C_3   0.466803 0.450144 0.696081 -0.170380
C110  C     C_3   0.972256 0.053077 0.701597 -0.171792
C111  C     C_3   0.967006 0.950007 0.696285 -0.170399
C112  C     C_3   0.939891 0.003009 0.710278 -0.173496
C113  C     C_3   0.439905 0.503255 0.710293 -0.173507
C114  C     C_3   0.999423 0.000066 0.810193 0.031063
C115  C     C_3   0.999901 0.310696 0.000180 0.025868
C116  C     C_3   0.499424 0.500071 0.810194 0.031034
C117  C     C_3   0.027799 0.948693 0.257910 0.498257
C118  C     C_3   0.030746 0.050035 0.261112 0.497015
C119  C     C_3   0.527813 0.448709 0.257907 0.498167
C120  C     C_3   0.530751 0.550050 0.261120 0.496939
C121  C     C_3   0.560721 0.498413 0.331829 -0.377992
C122  C     C_3   0.060707 0.998403 0.331827 -0.378196
C123  C     C_3   0.500347 0.499990 0.311316 -0.102042
C124  C     C_3   0.000331 0.999994 0.311302 -0.102110
C125  C     C_3   0.054720 0.729445 0.032383 -0.170041
C126  C     C_3   0.499841 0.189308 0.000243 0.025204
C127  C     C_3   0.057238 0.270739 0.041648 -0.171380
C128  C     C_3   0.554022 0.229456 0.030037 -0.170475
C129  C     C_3   0.557185 0.770736 0.041371 -0.171505
C130  C     C_3   0.468359 0.449010 0.239063 -0.233736
C131  C     C_3   0.471373 0.552820 0.242332 -0.232590
C132  C     C_3   0.968341 0.949012 0.239055 -0.233459
C133  C     C_3   0.971365 0.052818 0.242315 -0.232592
C134  C     C_3   0.940152 0.001817 0.169582 -0.276267
C135  C     C_3   0.440160 0.501822 0.169595 -0.276283
C136  C     C_3   0.999816 0.000268 0.189042 -0.093339
H1    H     H_    0.013377 0.789670 0.906737 0.123106
H2    H     H_    0.710736 0.418464 0.782203 0.142424
H3    H     H_    0.626423 0.612718 0.402672 0.134625
H4    H     H_    0.552414 0.653639 0.339081 0.136409
H5    H     H_    0.579490 0.725364 0.278459 0.251452
H6    H     H_    0.637781 0.727345 0.398500 0.202145
H7    H     H_    0.653468 0.685027 0.342447 0.258519
H8    H     H_    0.210867 0.103539 0.745350 0.151306
H9    H     H_    0.210728 0.918981 0.782774 0.142206
H10   H     H_    0.789439 0.521399 0.895903 0.175774
H11   H     H_    0.289452 0.022144 0.895760 0.175739
H12   H     H_    0.607343 0.494274 0.818380 0.123823
H13   H     H_    0.107368 0.994708 0.818407 0.123807
H14   H     H_    0.058104 0.090980 0.847893 0.126879
H15   H     H_    0.048596 0.903815 0.838322 0.124624
H16   H     H_    0.558473 0.590746 0.848260 0.127000
H17   H     H_    0.026509 0.210389 0.922226 0.124716
H18   H     H_    0.548206 0.403621 0.837931 0.124639
H19   H     H_    0.450420 0.596558 0.661141 0.140901
H20   H     H_    0.440160 0.409403 0.650706 0.138731
H21   H     H_    0.950029 0.096353 0.660745 0.140814
H22   H     H_    0.940528 0.909158 0.651076 0.138821
H23   H     H_    0.891214 0.005437 0.679725 0.145760
H24   H     H_    0.391241 0.505882 0.679754 0.145767
H25   H     H_    0.609294 0.497005 0.399353 0.122348
H26   H     H_    0.109279 0.997004 0.399354 0.122309
H27   H     H_    0.099509 0.710713 0.058571 0.125799
H28   H     H_    0.510097 0.289689 0.903112 0.123040
H29   H     H_    0.103973 0.289631 0.075416 0.124735
H30   H     H_    0.598212 0.210736 0.054246 0.126289
H31   H     H_    0.603865 0.789625 0.074894 0.124789
H32   H     H_    0.443078 0.407414 0.232249 0.146548
H33   H     H_    0.448526 0.595694 0.238099 0.148667
H34   H     H_    0.943052 0.907422 0.232237 0.146611
H35   H     H_    0.948519 0.095698 0.238072 0.148662
H36   H     H_    0.891430 0.003231 0.102316 0.176287
H37   H     H_    0.391437 0.503235 0.102330 0.176272
H38   H     H_    0.085890 0.789376 0.152395 0.156260
H39   H     H_    0.526093 0.710381 0.921714 0.124715
H40   H     H_    0.077433 0.210731 0.153608 0.158827
H41   H     H_    0.587879 0.289346 0.151800 0.155684
H42   H     H_    0.577746 0.710737 0.153629 0.158753
H43   H     H_    0.986200 0.710992 0.094093 0.146200
H44   H     H_    0.973275 0.289016 0.078489 0.147844
H45   H     H_    0.489541 0.210975 0.097839 0.146052
H46   H     H_    0.473716 0.789020 0.079051 0.147888
H47   H     H_    0.900006 0.788919 0.942117 0.146107
H48   H     H_    0.895775 0.210832 0.925267 0.144409
H49   H     H_    0.401386 0.288934 0.946594 0.145684
H50   H     H_    0.211543 0.501476 0.320529 0.145771
H51   H     H_    0.395917 0.710822 0.925860 0.144306
H52   H     H_    0.913673 0.710489 0.848345 0.155167
H53   H     H_    0.922617 0.289306 0.847046 0.158873
H54   H     H_    0.411742 0.210480 0.849105 0.154774
H55   H     H_    0.422330 0.789309 0.847080 0.158938
H56   H     H_    0.289044 0.498392 0.181605 0.124142
H57   H     H_    0.789044 0.998458 0.181601 0.124136
H58   H     H_    0.210184 0.405495 0.158108 0.125011
H59   H     H_    0.210476 0.592867 0.155806 0.125794
H60   H     H_    0.710184 0.905526 0.158049 0.125019
H61   H     H_    0.711544 0.001408 0.320532 0.145741
H62   H     H_    0.710476 0.092899 0.155862 0.125764
H63   H     H_    0.289298 0.406988 0.345463 0.139478
H64   H     H_    0.289537 0.594391 0.343115 0.140188
H65   H     H_    0.789298 0.906953 0.345405 0.139491
H66   H     H_    0.789538 0.094357 0.343173 0.140152
H67   H     H_    0.713311 0.643536 0.636007 0.134099
H68   H     H_    0.722398 0.589270 0.579942 0.133361
H69   H     H_    0.809784 0.654499 0.626110 0.261664
H70   H     H_    0.738126 0.698997 0.562073 0.203269
H71   H     H_    0.800308 0.708625 0.681364 0.247937
H72   H     H_    0.709593 0.479245 0.602470 0.123557
H73   H     H_    0.719514 0.363470 0.625154 0.137757
H74   H     H_    0.716517 0.336506 0.703018 0.138394
H75   H     H_    0.804494 0.263255 0.769910 0.252591
H76   H     H_    0.738709 0.249397 0.652176 0.205392
H77   H     H_    0.807287 0.290025 0.692134 0.254211
H78   H     H_    0.213592 0.143386 0.635547 0.134023
H79   H     H_    0.222017 0.088430 0.579307 0.133149
H80   H     H_    0.309491 0.152760 0.624406 0.261813
H81   H     H_    0.238127 0.197728 0.560639 0.203245
H82   H     H_    0.300697 0.207587 0.679849 0.247859
H83   H     H_    0.209584 0.978508 0.602614 0.123697
H84   H     H_    0.219227 0.862848 0.626087 0.137793
H85   H     H_    0.216638 0.836303 0.704515 0.138459
H86   H     H_    0.304569 0.763014 0.771312 0.252649
H87   H     H_    0.238545 0.748839 0.653733 0.205439
H88   H     H_    0.306945 0.789370 0.692965 0.254120
H89   H     H_    0.041463 0.841740 0.325103 0.135947
H90   H     H_    0.117494 0.879929 0.394690 0.137749
H91   H     H_    0.144300 0.809498 0.332437 0.257298
H92   H     H_    0.125113 0.765732 0.383232 0.204490
H93   H     H_    0.068634 0.771558 0.263500 0.250695
H94   H     H_    0.710857 0.603287 0.746051 0.151298
H95   H     H_    0.126470 0.112750 0.402655 0.134736
H96   H     H_    0.052414 0.153553 0.339128 0.136419
H97   H     H_    0.079279 0.225367 0.278297 0.251511
H98   H     H_    0.137596 0.227430 0.398331 0.202182
H99   H     H_    0.153330 0.185178 0.342295 0.258521
H100  H     H_    0.541265 0.341456 0.324542 0.135831
H101  H     H_    0.617233 0.379866 0.394595 0.137489
H102  H     H_    0.644690 0.309879 0.332870 0.257346
H103  H     H_    0.625219 0.265752 0.383076 0.204183
H104  H     H_    0.569082 0.271731 0.263395 0.250678
O1    O     O_R   0.093030 0.500000 0.145540 -0.631224
O2    O     O_R   0.552490 0.500000 0.145610 -0.586504
O3    O     O_R   0.499990 0.552490 0.407030 -0.636055
O4    O     O_R   0.499990 0.447510 0.407030 -0.635643
O5    O     O_R   0.999990 0.052490 0.407030 -0.636061
O6    O     O_R   0.999990 0.947510 0.407030 -0.635662
O7    O     O_R   0.406970 0.552510 0.407040 -0.627880
O8    O     O_R   0.406970 0.447490 0.407040 -0.627938
O9    O     O_R   0.906970 0.052510 0.407040 -0.627895
O10   O     O_R   0.906970 0.947490 0.407040 -0.627937
O11   O     O_R   0.500000 0.552540 0.593090 -0.627718
O12   O     O_R   0.593030 1.000000 0.145540 -0.631266
O13   O     O_R   0.500000 0.447460 0.593090 -0.628179
O14   O     O_R   1.000000 0.052540 0.593090 -0.627674
O15   O     O_R   1.000000 0.947460 0.593090 -0.628225
O16   O     O_R   0.593020 0.552520 0.593090 -0.634622
O17   O     O_R   0.593020 0.447480 0.593090 -0.636896
O18   O     O_R   0.093020 0.052520 0.593090 -0.634547
O19   O     O_R   0.093020 0.947480 0.593090 -0.636938
O20   O     O_R   0.093020 0.500000 0.040510 -0.630246
O21   O     O_R   0.593020 1.000000 0.040510 -0.630307
O22   O     O_R   0.999990 0.593020 0.052510 -0.634748
O23   O     O_R   0.052520 0.906980 0.052620 -0.623194
O24   O     O_R   0.999990 0.406980 0.052510 -0.631756
O25   O     O_R   0.499990 0.093020 0.052510 -0.634845
O26   O     O_R   0.499990 0.906980 0.052510 -0.631715
O27   O     O_R   0.999990 0.593020 0.947470 -0.619992
O28   O     O_R   0.999990 0.406980 0.947470 -0.624294
O29   O     O_R   0.499990 0.093020 0.947470 -0.619783
O30   O     O_R   0.499990 0.906980 0.947470 -0.624356
O31   O     O_R   0.906980 0.500000 0.959490 -0.641960
O32   O     O_R   0.406980 0.000000 0.959490 -0.641810
O33   O     O_R   0.906970 0.500000 0.854460 -0.586269
O34   O     O_R   0.052520 0.093020 0.052620 -0.622161
O35   O     O_R   0.406970 1.000000 0.854460 -0.586129
O36   O     O_R   0.947510 1.000000 0.854550 -0.630965
O37   O     O_R   0.447510 0.500000 0.854550 -0.630962
O38   O     O_R   0.052540 1.000000 0.959610 -0.629806
O39   O     O_R   0.552540 0.500000 0.959610 -0.629769
O40   O     O_R   0.947490 0.906970 0.947560 -0.632370
O41   O     O_R   0.947490 0.093030 0.947560 -0.633387
O42   O     O_R   0.447490 0.406970 0.947560 -0.632209
O43   O     O_R   0.447490 0.593030 0.947560 -0.633370
O44   O     O_3   0.795888 0.590852 0.718154 -0.608461
O45   O     O_R   0.552520 0.406980 0.052620 -0.623355
O46   O     O_3   0.796226 0.387578 0.757979 -0.619140
O47   O     O_3   0.295881 0.090282 0.717482 -0.608250
O48   O     O_3   0.296181 0.887308 0.758688 -0.619276
O49   O     O_3   0.055647 0.895292 0.258548 -0.614704
O50   O     O_3   0.061574 0.102128 0.265294 -0.613659
O51   O     O_3   0.555686 0.395350 0.258516 -0.614482
O52   O     O_3   0.561577 0.602144 0.265301 -0.613675
O53   O     O_R   0.552520 0.593020 0.052620 -0.622212
O54   O     O_R   0.947460 0.000000 0.040550 -0.644339
O55   O     O_R   0.447460 0.500000 0.040550 -0.644440
O56   O     O_R   0.052490 0.000000 0.145610 -0.586576
Zn1   Zn    Zn3+2 1.000000 0.500000 0.070130 0.935543
Zn2   Zn    Zn3+2 0.499990 0.429870 0.500050 0.919534
Zn3   Zn    Zn3+2 0.999990 0.070130 0.500050 0.921718
Zn4   Zn    Zn3+2 0.999990 0.929870 0.500050 0.919468
Zn5   Zn    Zn3+2 0.500000 0.000000 0.070130 0.935527
Zn6   Zn    Zn3+2 0.000000 0.500000 0.929870 0.975014
Zn7   Zn    Zn3+2 0.500000 0.000000 0.929870 0.975135
Zn8   Zn    Zn3+2 0.929870 1.000000 0.929930 0.935510
Zn9   Zn    Zn3+2 0.429870 0.500000 0.929930 0.935585
Zn10  Zn    Zn3+2 0.070130 1.000000 0.070230 0.974411
Zn11  Zn    Zn3+2 0.570130 0.500000 0.070230 0.974328
Zn12  Zn    Zn3+2 0.499990 0.570130 0.500050 0.921690

loop_
_geom_bond_atom_site_label_1
_geom_bond_atom_site_label_2
_ccdc_geom_bond_type
C37   H96   S    
O25   Zn5   S    
C79   O36   A    
C19   H45   S    
O20   Zn6   S    
C25   C93   S    
O21   Zn7   S    
C4    C125  S    
C135  H37   S    
C40   H103  S    
C94   O14   A    
O45   Zn11  S    
O53   Zn11  S    
C119  C130  S    
C119  O51   S    
C61   C63   S    
C117  C132  S    
O14   Zn3   S    
C30   H79   S    
C80   C116  S    
C78   C96   S    
C37   O50   S    
O22   Zn1   S    
C83   O34   A    
C59   C73   S    
C92   O13   A    
C98   O18   A    
C101  C103  S    
C132  H34   S    
C62   H72   S    
C44   C46   S    
C45   C47   S    
C7    C93   S    
C46   C48   S    
C50   C53   S    
C48   H63   S    
C39   O51   S    
C8    C81   S    
C34   H89   S    
O42   Zn9   S    
C38   H99   S    
C24   H59   S    
C28   H73   S    
C99   C110  S    
C59   O47   S    
C17   C21   S    
C27   H69   S    
C108  C113  S    
C19   C23   S    
C38   H98   S    
C37   C38   S    
C29   H77   S    
C127  H29   S    
C121  H25   S    
C90   O7    A    
C69   C74   S    
C16   C129  S    
C47   C52   S    
C110  H21   S    
C35   H60   S    
C9    C83   S    
C97   O16   A    
C46   C90   S    
C124  C133  S    
C92   C106  S    
C13   H58   S    
C35   C51   S    
C80   O37   A    
C107  C110  S    
C65   O24   A    
C35   C45   S    
C99   C114  S    
C118  C136  S    
O34   Zn10  S    
C29   H76   S    
C12   H38   S    
C131  H33   S    
C19   C126  S    
C64   O27   A    
C95   O33   A    
C18   C115  S    
O30   Zn7   S    
C61   C74   S    
C59   C63   S    
C62   C68   S    
C26   H67   S    
C44   H56   S    
C30   C31   S    
C108  H19   S    
C89   O5    A    
C121  C123  S    
C33   H88   S    
O17   Zn2   S    
C100  C111  S    
C132  C134  S    
C85   O43   A    
C42   H7    S    
C102  C109  S    
C65   O28   A    
C13   C44   S    
C73   H8    S    
O56   Zn10  S    
C23   C82   S    
C74   H9    S    
C111  C112  S    
C53   H50   S    
C38   H97   S    
C112  C114  S    
O4    Zn2   S    
C105  C107  S    
C74   C76   S    
C111  H22   S    
C76   C78   S    
C43   C52   S    
O7    Zn12  S    
C11   C25   S    
C63   H83   S    
C2    C129  S    
C124  C132  S    
C118  C122  S    
C109  H20   S    
C41   H4    S    
C40   H102  S    
C25   H51   S    
C58   C77   S    
C4    H1    S    
C49   O12   A    
C63   C69   S    
C80   O39   A    
C26   O44   S    
C1    O20   A    
C17   H43   S    
C72   H2    S    
C18   H44   S    
C134  H36   S    
C65   C115  S    
O8    Zn2   S    
C72   C75   S    
C59   C78   S    
C16   H42   S    
C119  C121  S    
C75   H10   S    
C24   C50   S    
C48   C53   S    
C94   C107  S    
C7    C129  S    
C100  C114  S    
O33   Zn6   S    
C39   C40   S    
C66   C126  S    
C117  C122  S    
C5    C9    S    
C75   C77   S    
O18   Zn3   S    
C8    C12   S    
C85   O53   A    
C4    C60   S    
C42   H5    S    
C43   C45   S    
C32   H84   S    
C66   O25   A    
C3    C119  S    
C81   O23   A    
C36   H91   S    
C15   H41   S    
C123  C130  S    
C122  C124  S    
C39   H101  S    
C120  C121  S    
C58   O46   S    
C64   C104  S    
C126  C128  S    
C117  O49   S    
C35   C56   S    
C18   C22   S    
C107  C111  S    
C32   O48   S    
C89   C124  S    
O3    Zn12  S    
C122  H26   S    
C1    C55   S    
C6    C128  S    
C40   H104  S    
C94   O15   A    
C33   H86   S    
C106  C108  S    
C11   C85   S    
C79   O38   A    
C34   C36   S    
C102  C103  S    
C110  C112  S    
C6    C10   S    
C130  H32   S    
C60   H52   S    
C70   C75   S    
C13   C55   S    
O15   Zn4   S    
C60   C104  S    
C91   O10   A    
C106  C109  S    
C98   O19   A    
C58   C62   S    
C84   O45   A    
C120  C131  S    
C41   C42   S    
C130  C135  S    
O37   Zn9   S    
C32   H85   S    
C15   C19   S    
C26   C27   S    
C54   H61   S    
C28   C29   S    
C34   H90   S    
C17   C104  S    
C39   H100  S    
C64   O22   A    
C20   C25   S    
C28   H74   S    
C86   O56   A    
C37   H95   S    
C61   O48   S    
C82   C126  S    
C14   H40   S    
C104  C125  S    
C36   H93   S    
C90   O8    A    
C12   C17   S    
C69   C73   S    
C57   C70   S    
C102  H18   S    
O54   Zn8   S    
C34   O49   S    
C101  C108  S    
C88   O3    A    
C29   H75   S    
C93   H55   S    
C45   H57   S    
C99   H14   S    
C2    C20   S    
C57   C77   S    
C21   C60   S    
O28   Zn6   S    
O29   Zn7   S    
C67   O26   A    
C49   O21   A    
C87   O2    A    
C47   C51   S    
C12   C125  S    
C84   O42   A    
C14   C127  S    
C68   C72   S    
C26   H68   S    
C9    C14   S    
C30   H78   S    
C11   C16   S    
C69   C98   S    
C5    C127  S    
C71   H53   S    
O41   Zn8   S    
C33   H87   S    
O55   Zn9   S    
C6    H28   S    
C15   C128  S    
C133  C134  S    
C24   C44   S    
C73   C76   S    
C120  O52   S    
C23   H49   S    
C91   O9    A    
C41   O52   S    
C123  C131  S    
C47   C91   S    
O23   Zn10  S    
O32   Zn5   S    
C88   O4    A    
O1    Zn1   S    
C95   O31   A    
O16   Zn12  S    
C101  H16   S    
C86   O54   A    
C27   H70   S    
C32   C33   S    
C133  H35   S    
C5    C71   S    
C66   O29   A    
C43   H62   S    
C3    C135  S    
C41   H3    S    
O2    Zn11  S    
C101  C116  S    
C118  O50   S    
O27   Zn6   S    
O12   Zn5   S    
C117  C136  S    
C51   H65   S    
C31   H81   S    
C6    C82   S    
C112  H23   S    
C81   O40   A    
C14   C18   S    
C4    C8    S    
C97   O17   A    
C57   C62   S    
C24   C55   S    
C7    C11   S    
C100  C105  S    
C131  C135  S    
C10   C15   S    
C57   O44   S    
O35   Zn7   S    
C9    C22   S    
C115  C127  S    
C89   O6    A    
C10   C84   S    
C68   C97   S    
O39   Zn11  S    
C76   H11   S    
O11   Zn12  S    
C7    H39   S    
C42   H6    S    
C22   H48   S    
C52   H66   S    
C16   C20   S    
O38   Zn10  S    
C113  C116  S    
C36   H92   S    
C82   H54   S    
C128  H30   S    
C67   O30   A    
C125  H27   S    
C88   C123  S    
C52   C54   S    
C103  H12   S    
C53   C55   S    
C100  H15   S    
C99   C105  S    
C54   C56   S    
O19   Zn4   S    
C129  H31   S    
C3    C87   S    
O40   Zn8   S    
O24   Zn1   S    
O31   Zn1   S    
C2    C67   S    
C50   H64   S    
C134  C136  S    
C31   H80   S    
C77   C95   S    
C87   O55   A    
C70   H94   S    
C83   O41   A    
O5    Zn3   S    
O6    Zn4   S    
C61   C78   S    
O26   Zn5   S    
C8    C21   S    
C71   C115  S    
O13   Zn2   S    
O36   Zn8   S    
C118  C133  S    
C1    O1    A    
C86   C136  S    
O9    Zn3   S    
O10   Zn4   S    
C22   C71   S    
C20   H46   S    
C92   O11   A    
C21   H47   S    
C2    C93   S    
C13   C48   S    
C109  C113  S    
C10   C23   S    
C96   O32   A    
C49   C56   S    
C105  H13   S    
C46   C50   S    
C51   C54   S    
C31   H82   S    
C58   C72   S    
C30   O47   S    
C5    H17   S    
C28   O46   S    
C103  C106  S    
C27   H71   S    
C113  H24   S    
C102  C116  S    
C3    C120  S    
C43   C56   S    
C68   C70   S    
C79   C114  S    
C96   O35   A    
O43   Zn9   S    
