data_mof_unit_24654.cif
_audit_creation_date              2012-12-10T20:36:34-0500
_audit_creation_method            fapswitch 2.2
_symmetry_space_group_name_H-M    P1
_symmetry_Int_Tables_number       1
_space_group_crystal_system       triclinic
_cell_length_a                    10.493554
_cell_length_b                    10.666458
_cell_length_c                    9.879761
_cell_angle_alpha                 89.860647
_cell_angle_beta                  89.411775
_cell_angle_gamma                 90.126438
_cell_volume                      1105.76799113

loop_
_atom_site_label
_atom_site_type_symbol
_atom_type_description
_atom_site_fract_x
_atom_site_fract_y
_atom_site_fract_z
_atom_type_partial_charge
C1    C     C_R   0.504664 0.259971 0.500115 0.869112
C2    C     C_3   0.961518 0.502000 0.370081 -0.166302
C3    C     C_3   0.043611 0.397438 0.433338 -0.202363
C4    C     C_3   0.122467 0.499640 0.501753 0.007029
C5    C     C_R   0.528011 0.063482 0.622722 0.140762
C6    C     C_R   0.526916 0.128693 0.500521 -0.110251
C7    C     C_R   0.551570 0.065286 0.378783 -0.236482
C8    C     C_R   0.551541 0.935584 0.378537 -0.230832
C9    C     C_R   0.526858 0.871306 0.500029 -0.107660
C10   C     C_R   0.527823 0.935592 0.622396 0.130745
C11   C     C_3   0.438217 0.927544 0.740685 -0.471855
C12   C     C_R   0.257387 0.499939 0.500657 0.869483
C13   C     C_3   0.438499 0.069542 0.741218 -0.499548
C14   C     C_R   0.389305 0.482851 0.072570 0.228440
C15   C     C_R   0.607381 0.527896 0.070618 -0.147247
C16   C     C_R   0.607402 0.527872 0.926866 -0.145689
C17   C     C_R   0.389173 0.483056 0.930167 0.223210
C18   C     C_3   0.304062 0.370993 0.926625 -0.529066
C19   C     C_3   0.304361 0.371013 0.080275 -0.506988
C20   C     C_R   0.504680 0.740001 0.499799 0.875865
C21   C     C_R   0.742558 0.499950 0.499247 0.856662
C22   C     C_3   0.038684 0.497013 0.629577 -0.168823
C23   C     C_3   0.957696 0.395960 0.560422 0.131891
C24   C     C_3   0.877489 0.499232 0.497716 -0.003416
C25   C     C_3   0.956779 0.601257 0.565537 -0.205142
C26   C     C_3   0.043369 0.604032 0.438148 -0.165885
H1    H     H_    0.484055 0.885924 0.831205 0.205009
H2    H     H_    0.344591 0.110858 0.715170 0.198554
H3    H     H_    0.484941 0.109614 0.832051 0.202870
H4    H     H_    0.694635 0.548649 0.123397 0.147341
H5    H     H_    0.694725 0.548618 0.872214 0.152406
H6    H     H_    0.209242 0.392948 0.884251 0.189205
H7    H     H_    0.351521 0.288041 0.881628 0.213478
H8    H     H_    0.209895 0.393744 0.125797 0.201503
H9    H     H_    0.352319 0.287867 0.124695 0.213396
H10   H     H_    0.072630 0.495914 0.735401 0.129542
H11   H     H_    0.916784 0.684201 0.618608 0.136907
H12   H     H_    0.083520 0.689075 0.388510 0.133531
H13   H     H_    0.926200 0.504294 0.264553 0.137951
H14   H     H_    0.083771 0.314704 0.380031 0.126799
H15   H     H_    0.561289 0.114661 0.283263 0.171941
H16   H     H_    0.561269 0.886856 0.282919 0.172394
H17   H     H_    0.344269 0.886372 0.714110 0.201364
N1    N     N_R   0.499140 0.499140 0.142800 -0.107667
N2    N     N_R   0.499140 0.499180 0.857150 -0.106160
O1    O     O_R   0.500020 0.316790 0.614690 -0.615093
O2    O     O_R   0.500000 0.316760 0.385350 -0.622742
O3    O     O_R   0.313960 0.499990 0.614650 -0.624845
O4    O     O_R   0.313940 0.499950 0.385310 -0.618281
O5    O     O_R   0.500000 0.683240 0.614650 -0.615152
O6    O     O_R   0.499980 0.683210 0.385310 -0.621388
O7    O     O_R   0.686060 0.500050 0.614690 -0.634760
O8    O     O_R   0.686040 0.500010 0.385350 -0.631422
Zn1   Zn    Zn3+2 0.500010 0.500020 0.653130 0.932256
Zn2   Zn    Zn3+2 0.499990 0.499980 0.346870 0.934491
C27   C     C_3   0.903412 0.278144 0.628212 -0.423911
C28   C     C_3   0.010036 0.190570 0.674581 -0.347091
C29   C     C_3   0.955551 0.072201 0.740287 -0.880741
H18   H     H_    0.896878 0.096701 0.830600 0.261354
H19   H     H_    0.895733 0.020157 0.667102 0.261512
H20   H     H_    0.034770 0.010490 0.772646 0.245804
H21   H     H_    0.070356 0.163184 0.586401 0.217253
H22   H     H_    0.071176 0.239675 0.748895 0.218158
H23   H     H_    0.844024 0.306426 0.716735 0.211820
H24   H     H_    0.841615 0.228693 0.554718 0.196759

loop_
_geom_bond_atom_site_label_1
_geom_bond_atom_site_label_2
_ccdc_geom_bond_type
C16   N2    A    
O3    Zn1   S    
C4    C26   S    
C23   C24   S    
C27   H23   S    
C13   H2    S    
C11   H17   S    
C6    C7    A    
C2    C3    S    
C4    C12   S    
C4    C22   S    
C9    C10   A    
C9    C20   S    
C3    C23   S    
C14   C17   A    
C17   C18   S    
C11   H1    S    
C12   O3    A    
C25   H11   S    
O1    Zn1   S    
C29   H20   S    
C7    H15   S    
C12   O4    A    
C29   H18   S    
O7    Zn1   S    
C7    C8    A    
C2    C26   S    
C19   H9    S    
C24   C25   S    
C16   H5    S    
C21   O8    A    
C11   C13   S    
N1    Zn2   S    
C23   C27   S    
C28   C29   S    
O5    Zn1   S    
C15   C16   A    
C5    C6    A    
C14   C19   S    
O2    Zn2   S    
C8    H16   S    
N2    Zn1   S    
C28   H22   S    
C20   O6    A    
O6    Zn2   S    
O8    Zn2   S    
C2    C24   S    
C15   N1    A    
C18   H7    S    
C1    O1    A    
C18   H6    S    
C10   C11   S    
C29   H19   S    
C1    C6    S    
C28   H21   S    
C22   H10   S    
C27   C28   S    
C15   H4    S    
C14   N1    A    
C18   C19   S    
C21   C24   S    
C13   H3    S    
C22   C23   S    
C26   H12   S    
C20   O5    A    
C3    H14   S    
C5    C10   A    
C25   C26   S    
O4    Zn2   S    
C5    C13   S    
C2    H13   S    
C19   H8    S    
C21   O7    A    
C1    O2    A    
C3    C4    S    
C27   H24   S    
C17   N2    A    
C8    C9    A    
C22   C25   S    
