data_mof_unit_66781.cif
_audit_creation_date              2013-03-05T15:41:05-0500
_audit_creation_method            fapswitch 2.2
_symmetry_space_group_name_H-M    P1
_symmetry_Int_Tables_number       1
_space_group_crystal_system       triclinic
_cell_length_a                    8.463096
_cell_length_b                    14.863082
_cell_length_c                    15.28011
_cell_angle_alpha                 93.048298
_cell_angle_beta                  100.881726
_cell_angle_gamma                 92.410628
_cell_volume                      1882.156607

loop_
_atom_site_label
_atom_site_type_symbol
_atom_site_description
_atom_site_fract_x
_atom_site_fract_y
_atom_site_fract_z
_atom_type_partial_charge
P1    P     P_3+3 0.947560 0.714050 0.560480 0.462647
O1    O     O_2   0.113690 0.728200 0.532750 -0.351951
O2    O     O_3   0.871900 0.612110 0.540440 -0.419793
O3    O     O_3   0.325660 0.668890 0.372600 -0.332229
O4    O     O_2   0.242320 0.822179 0.443908 -0.397861
O5    O     O_3   0.981112 0.742047 0.675709 -0.591109
O6    O     O_3   0.287049 0.840943 0.285894 -0.620789
C1    C     C_3   0.336034 0.864725 0.141012 -1.101095
H1    H     H_    0.264539 0.846308 0.073723 0.242316
H2    H     H_    0.299612 0.932067 0.162600 0.261653
P2    P     P_3+3 0.325150 0.423860 0.297970 0.535132
P3    P     P_3+3 0.834998 0.613091 0.211790 0.500340
O7    O     O_2   0.147570 0.451710 0.282630 -0.361665
O8    O     O_3   0.905540 0.621350 0.329600 -0.379220
O9    O     O_2   0.939069 0.543000 0.174686 -0.373684
O10   O     O_3   0.305039 0.307143 0.289705 -0.573294
O11   O     O_3   0.891128 0.712823 0.169781 -0.502138
C2    C     C_3   0.878947 0.783290 0.231775 0.332836
H3    H     H_    0.981349 0.784140 0.289341 0.123994
H4    H     H_    0.766010 0.773645 0.258666 0.002832
C3    C     C_3   0.883852 0.873583 0.188182 0.388781
H5    H     H_    0.006464 0.907579 0.205115 0.058894
C4    C     C_3   0.740233 0.253109 0.245575 1.143048
C5    C     C_3   0.818369 0.167815 0.218455 -1.103457
H6    H     H_    0.839417 0.125722 0.275830 0.278762
H7    H     H_    0.747012 0.129213 0.159053 0.278683
H8    H     H_    0.934898 0.186057 0.199344 0.214816
Ba1   Ba    Ba6+2 0.142880 0.544780 0.454020 1.589504
C6    C     C_3   0.104646 0.695597 0.724588 0.667757
H9    H     H_    0.197987 0.677702 0.685927 0.118703
C7    C     C_3   0.034508 0.612123 0.758992 -0.894932
H10   H     H_    0.926889 0.628197 0.786528 0.275557
H11   H     H_    0.123744 0.588397 0.814166 0.207654
H12   H     H_    0.001428 0.558608 0.704427 0.262553
C8    C     C_3   0.273184 0.272349 0.367949 0.350826
H13   H     H_    0.195530 0.316391 0.400585 0.050590
H14   H     H_    0.387882 0.265820 0.415357 0.160832
C9    C     C_3   0.185798 0.180427 0.340621 0.069109
H15   H     H_    0.060379 0.189392 0.343774 0.097087
H16   H     H_    0.194953 0.159245 0.270752 0.111488
P4    P     P_3+3 0.862730 0.285940 0.439440 0.455031
O12   O     O_2   0.696600 0.271740 0.467230 -0.341046
O13   O     O_3   0.938380 0.387880 0.459490 -0.433619
O14   O     O_3   0.484630 0.331100 0.627330 -0.358196
O15   O     O_3   0.841292 0.299708 0.321125 -0.619638
P5    P     P_3+3 0.960952 0.362680 0.782410 0.470522
O16   O     O_3   0.389110 0.548970 0.605210 -0.381058
O17   O     O_3   0.904740 0.378630 0.670330 -0.389414
O18   O     O_2   0.833308 0.412212 0.821683 -0.323937
O19   O     O_3   0.918423 0.249779 0.801159 -0.519054
Ba2   Ba    Ba6+2 0.667290 0.455210 0.545900 1.608309
P6    P     P_3+3 0.355078 0.786462 0.383800 0.460274
C10   C     C_3   0.317172 0.793805 0.209210 1.214980
H17   H     H_    0.428915 0.755677 0.224433 -0.117660
H18   H     H_    0.461205 0.871707 0.131607 0.266649
O20   O     O_3   0.421180 0.451020 0.394720 -0.374661
C11   C     C_3   0.596611 0.736716 0.723941 0.684111
H19   H     H_    0.661995 0.702211 0.676376 0.087015
C12   C     C_3   0.714235 0.779170 0.805059 -0.939251
H20   H     H_    0.774769 0.726559 0.845550 0.257884
H21   H     H_    0.806655 0.823625 0.783630 0.255683
H22   H     H_    0.648555 0.820046 0.848091 0.266062
P7    P     P_3+3 0.482275 0.567202 0.718816 0.474720
O21   O     O_2   0.662730 0.548230 0.717350 -0.367764
O22   O     O_3   0.479882 0.681788 0.753419 -0.570756
C13   C     C_3   0.956762 0.194867 0.731390 0.529950
H23   H     H_    0.884466 0.210678 0.666084 0.139848
H24   H     H_    0.086279 0.204748 0.729701 -0.038602
C14   C     C_3   0.919378 0.096112 0.745786 -1.013112
H25   H     H_    0.792728 0.076207 0.714263 0.282729
H26   H     H_    0.999569 0.052256 0.715402 0.238375
H27   H     H_    0.938155 0.084276 0.817954 0.246187
P8    P     P_3+3 0.460724 0.213865 0.632644 0.485308
C15   C     C_3   0.415452 0.191565 0.791836 0.046239
H28   H     H_    0.328316 0.133400 0.768444 0.065809
O23   O     O_2   0.582195 0.173361 0.580018 -0.356763
O24   O     O_3   0.540305 0.189905 0.742979 -0.519679
H29   H     H_    0.353486 0.255997 0.783070 0.065635
C16   C     C_3   0.482416 0.185849 0.892548 0.879195
H30   H     H_    0.597687 0.227819 0.909760 0.067741
C17   C     C_R   0.021731 0.941892 0.549054 -0.186773
C18   C     C_R   0.829807 0.802362 0.502064 0.279177
C19   C     C_R   0.678456 0.769447 0.456808 -0.456559
C20   C     C_R   0.557453 0.827777 0.435685 0.258877
C21   C     C_R   0.587755 0.919043 0.455028 -0.175782
C22   C     C_R   0.746163 0.957664 0.480169 0.015289
C23   C     C_R   0.869347 0.899631 0.511320 -0.031119
H31   H     H_    0.649605 0.697611 0.445667 0.200954
C24   C     C_R   0.935815 0.095702 0.504201 -0.088311
C25   C     C_R   0.054784 0.037528 0.547536 0.053266
C26   C     C_R   0.983681 0.192599 0.500142 0.213025
C27   C     C_R   0.137035 0.224107 0.546760 -0.460550
C28   C     C_R   0.251912 0.166427 0.586112 0.279895
C29   C     C_R   0.210722 0.074134 0.586367 -0.226893
C30   C     C_R   0.779569 0.051454 0.470425 0.242656
H32   H     H_    0.483615 0.958844 0.447743 0.186417
H33   H     H_    0.301948 0.030456 0.616755 0.159858
H34   H     H_    0.171415 0.295219 0.548737 0.140348
H35   H     H_    0.116922 0.900557 0.579008 0.204568
C31   C     C_R   0.261267 0.442268 0.766099 -0.511132
C32   C     C_R   0.167089 0.412805 0.826034 0.208434
C33   C     C_R   0.220719 0.433433 0.917206 -0.221513
C34   C     C_R   0.377653 0.470959 0.952209 0.143488
C35   C     C_R   0.474877 0.497741 0.889585 0.182372
C36   C     C_R   0.406861 0.492047 0.797092 0.233903
C37   C     C_R   0.530105 0.570099 0.082724 0.371537
C38   C     C_R   0.615063 0.578187 0.173426 -0.047306
C39   C     C_R   0.415805 0.471463 0.208932 0.040956
C40   C     C_R   0.370567 0.441387 0.117122 0.354221
C41   C     C_R   0.430589 0.491692 0.052384 -0.128014
C42   C     C_R   0.545778 0.533996 0.235621 0.177045
H36   H     H_    0.133683 0.425984 0.958805 0.162133
H37   H     H_    0.212924 0.435094 0.695110 0.173831
O25   O     O_3   0.180394 0.736560 0.175839 -0.609330
C43   C     C_3   0.208475 0.669492 0.113374 -0.166181
H38   H     H_    0.262642 0.697533 0.059704 0.158844
H39   H     H_    0.091528 0.636495 0.079274 0.217991
H40   H     H_    0.279595 0.617798 0.148823 0.102502
I1    I     I_    0.208854 0.783973 0.838442 -0.427853
O26   O     O_3   0.242290 0.114451 0.399363 -0.597590
C44   C     C_3   0.176515 0.029363 0.361565 -0.112950
H41   H     H_    0.224485 0.010282 0.300714 0.164013
H42   H     H_    0.043127 0.027429 0.346616 0.126087
H43   H     H_    0.211598 0.978944 0.410729 0.207112
I2    I     I_    0.477648 0.844405 0.657076 -0.430585
I3    I     I_    0.728573 0.950802 0.245420 -0.568039
O27   O     O_3   0.376628 0.227252 0.942553 -0.645887
C45   C     C_3   0.242037 0.169246 0.947809 -0.083548
H44   H     H_    0.269543 0.129776 0.008066 0.143215
H45   H     H_    0.203268 0.121918 0.888107 0.119904
H46   H     H_    0.138423 0.210597 0.953644 0.159973
O28   O     O_3   0.504896 0.095156 0.916305 -0.639012
C46   C     C_3   0.651599 0.064424 0.898806 -0.200940
H47   H     H_    0.756134 0.111150 0.929261 0.130100
H48   H     H_    0.644055 0.052159 0.825951 0.188948
H49   H     H_    0.671971 0.998642 0.929030 0.190288
I4    I     I_    0.587881 0.105788 0.384385 -0.313627
O29   O     O_3   0.502615 0.639670 0.024584 -0.656618
C47   C     C_3   0.588505 0.721215 0.052011 0.022391
H50   H     H_    0.708481 0.717957 0.033968 0.220543
H51   H     H_    0.591327 0.740362 0.122909 0.100841
H52   H     H_    0.526831 0.774454 0.012552 0.179025
O30   O     O_3   0.293948 0.357020 0.091604 -0.584899
C48   C     C_3   0.130863 0.355401 0.100705 -0.113680
H53   H     H_    0.082663 0.423382 0.106870 0.170401
H54   H     H_    0.112283 0.315105 0.156772 0.182261
H55   H     H_    0.055704 0.319357 0.040978 0.136052
I5    I     I_    0.723955 0.546635 0.930619 -0.318169
O31   O     O_3   0.612010 0.549483 0.324307 -0.641541
C49   C     C_3   0.718148 0.480827 0.348780 0.214813
H56   H     H_    0.800391 0.466445 0.302025 0.119246
H57   H     H_    0.656223 0.415872 0.355836 0.134786
H58   H     H_    0.793123 0.505753 0.412374 0.206110
O32   O     O_3   0.815326 0.867475 0.096054 -0.606996
C50   C     C_3   0.933597 0.874174 0.042952 -0.149059
H59   H     H_    0.998291 0.810978 0.043228 0.195802
H60   H     H_    0.016796 0.934787 0.063115 0.129270
H61   H     H_    0.872764 0.881524 0.973084 0.150834
O33   O     O_3   0.576851 0.242098 0.254511 -0.592980
C51   C     C_3   0.480461 0.190234 0.180552 -0.085227
H62   H     H_    0.486797 0.117022 0.190436 0.167066
H63   H     H_    0.511797 0.203354 0.115101 0.171020
H64   H     H_    0.352814 0.205731 0.173992 0.185151
I6    I     I_    0.748226 0.341074 0.138481 -0.465404

loop_
_geom_bond_atom_site_label_1
_geom_bond_atom_site_label_2
_geom_bond_distance
_ccdc_geom_bond_type
C13   H24   1.105103 S    
P7    O22   1.758332 S    
Ba1   O16   2.799918 S    
C32   C33   1.394599 A    
C4    O15   1.426953 S    
C50   H60   1.112445 S    
C2    C3    1.532091 S    
C47   H51   1.100925 S    
P4    O12   1.552936 D    
C35   I5    2.165276 S    
C33   H36   1.065952 S    
C8    H13   1.110985 S    
C5    H8    1.107260 S    
P8    C28   1.868982 S    
C45   H44   1.110903 S    
O25   C43   1.401983 S    
Ba1   O20   3.042694 S    
C27   H34   1.081712 S    
C10   H17   1.116090 S    
O26   C44   1.408734 S    
C6    I1    2.147081 S    
P5    O18   1.527656 D    
C31   C36   1.398448 A    
C28   C29   1.401473 A    
O3    P6    1.749416 S    
C34   C41   1.522497 S    
O2    Ba1   3.033230 S    
C8    H14   1.107401 S    
C5    H7    1.107354 S    
O6    P6    1.751605 S    
C2    H3    1.111308 S    
C18   C23   1.463470 A    
O10   C8    1.394717 S    
C11   I2    2.130852 S    
C9    H15   1.085005 S    
C47   H52   1.108504 S    
C37   O29   1.397307 S    
C13   C14   1.524620 S    
C37   C38   1.432134 A    
C43   H38   1.103907 S    
C39   C40   1.424977 A    
P6    C20   1.812763 S    
P1    O1    1.552437 D    
C14   H26   1.106811 S    
C31   C32   1.398090 A    
C44   H43   1.099292 S    
C34   C35   1.435741 A    
C33   C34   1.413819 A    
O17   Ba2   2.815816 S    
O33   C51   1.429412 S    
C1    H1    1.104279 S    
C43   H39   1.108546 S    
C15   O24   1.404455 S    
C4    O33   1.418431 S    
P3    O11   1.729767 S    
C46   H49   1.109549 S    
C3    O32   1.414222 S    
C7    H11   1.104125 S    
O7    Ba1   2.903809 S    
P7    C36   1.859029 S    
O12   Ba2   2.960329 S    
C9    O26   1.402440 S    
C19   H31   1.082416 S    
C12   H20   1.105537 S    
C9    H16   1.114651 S    
C3    H5    1.113394 S    
C50   H61   1.107404 S    
P4    O13   1.610709 S    
C14   H25   1.109795 S    
C48   H55   1.106642 S    
C42   O31   1.368475 S    
C1    H18   1.097009 S    
C35   C36   1.418442 A    
O3    Ba1   2.841492 S    
C25   C29   1.413984 A    
P5    C32   1.855166 S    
P5    O17   1.720626 S    
C12   H21   1.109858 S    
C30   I4    2.104812 S    
C15   H28   1.110375 S    
Ba2   O21   2.904070 S    
P1    O5    1.754215 S    
C51   H64   1.101192 S    
C8    C9    1.525010 S    
C5    H6    1.095677 S    
C48   H54   1.102217 S    
O29   C47   1.389181 S    
C26   C27   1.405517 A    
O2    Ba2   2.859958 S    
C22   C23   1.410447 A    
O28   C46   1.407721 S    
O16   Ba2   3.041894 S    
C17   H35   1.080873 S    
C29   H33   1.082574 S    
P1    C18   1.847034 S    
C21   C22   1.411276 A    
C49   H58   1.092362 S    
C16   H30   1.115571 S    
P1    O2    1.610728 S    
C51   H63   1.106836 S    
C24   C30   1.442403 A    
C14   H27   1.108620 S    
C6    H9    1.104943 S    
P1    Ba1   3.555015 S    
P2    O10   1.731504 S    
C19   C20   1.372646 A    
P3    O9    1.544454 D    
C4    C5    1.527824 S    
C43   H40   1.098220 S    
O11   C2    1.394761 S    
O32   C50   1.406062 S    
C7    H12   1.108515 S    
C40   O30   1.388903 S    
C20   C21   1.375747 A    
O19   C13   1.402954 S    
C44   H41   1.110835 S    
C17   C23   1.415187 A    
C17   C25   1.439369 A    
O14   Ba2   2.840969 S    
P4    C26   1.931500 S    
P3    O8    1.782301 S    
C15   C16   1.544429 S    
C46   H47   1.113569 S    
P8    O23   1.542258 D    
C49   H57   1.099188 S    
C24   C26   1.487265 A    
O6    C10   1.403328 S    
O27   C45   1.416508 S    
C45   H46   1.106193 S    
C50   H59   1.106738 S    
C10   O25   1.404296 S    
C4    I6    2.157243 S    
C37   C41   1.412405 A    
C16   O27   1.420807 S    
C12   H22   1.111016 S    
P4    O15   1.806050 S    
O4    P6    1.535489 D    
Ba1   Ba2   4.671751 S    
C38   C42   1.386653 A    
C7    H10   1.102697 S    
C31   H37   1.082521 S    
Ba2   O20   2.799217 S    
C11   O22   1.408752 S    
C48   H53   1.111427 S    
C45   H45   1.110858 S    
C1    C10   1.545299 S    
P3    C38   1.884618 S    
C47   H50   1.103519 S    
P5    O19   1.751210 S    
Ba1   O13   2.859449 S    
C39   C42   1.394426 A    
C51   H62   1.108653 S    
C3    I3    2.064750 S    
C6    C7    1.514343 S    
C40   C41   1.425493 A    
O16   P7    1.767409 S    
P2    O7    1.553890 D    
O13   Ba2   3.033938 S    
C11   H19   1.110636 S    
P2    Ba1   3.530079 S    
C16   O28   1.425672 S    
C27   C28   1.394972 A    
C21   H32   1.073749 S    
C13   H23   1.109886 S    
C2    H4    1.116227 S    
O14   P8    1.753664 S    
C44   H42   1.107509 S    
C11   C12   1.524323 S    
C22   C30   1.431837 A    
P7    O21   1.568709 D    
O5    C6    1.395787 S    
C1    H2    1.111263 S    
C18   C19   1.391081 A    
C15   H29   1.113308 S    
P2    C39   1.841470 S    
C46   H48   1.107787 S    
P8    O24   1.754459 S    
C49   H56   1.106605 S    
O1    Ba1   2.959798 S    
O8    Ba1   2.815098 S    
C24   C25   1.442993 A    
O31   C49   1.406725 S    
P4    Ba2   3.555605 S    
P2    O20   1.569801 S    
O30   C48   1.412412 S    
