data_mof_unit_49233.cif
_audit_creation_date              2012-12-10T20:46:48-0500
_audit_creation_method            fapswitch 2.2
_symmetry_space_group_name_H-M    P1
_symmetry_Int_Tables_number       1
_space_group_crystal_system       triclinic
_cell_length_a                    12.999036
_cell_length_b                    8.928467
_cell_length_c                    8.151343
_cell_angle_alpha                 90.016107
_cell_angle_beta                  95.988552
_cell_angle_gamma                 90.029698
_cell_volume                      940.89376376

loop_
_atom_site_label
_atom_site_type_symbol
_atom_type_description
_atom_site_fract_x
_atom_site_fract_y
_atom_site_fract_z
_atom_type_partial_charge
C1    C     C_R   0.500060 0.218185 0.499996 0.933250
C2    C     C_R   0.868636 0.551292 0.700653 0.348865
C3    C     C_R   0.133385 0.475304 0.596876 -0.110990
C4    C     C_R   0.866678 0.524624 0.403272 -0.110736
C5    C     C_R   0.027750 0.505934 0.579169 -0.040961
C6    C     C_R   0.972293 0.493873 0.421053 -0.039961
C7    C     C_1   0.500018 0.065243 0.499983 -0.148845
C8    C     C_1   0.499981 0.934757 0.500017 -0.148921
C9    C     C_2   0.816084 0.573127 0.240926 0.582560
C10   C     C_2   0.184114 0.427064 0.759212 0.582878
C11   C     C_R   0.499940 0.781814 0.500004 0.933105
C12   C     C_R   0.298158 0.488989 0.469963 0.933634
C13   C     C_R   0.701848 0.510957 0.530048 0.933275
C14   C     C_R   0.813681 0.529801 0.545078 -0.232511
C15   C     C_R   0.186335 0.470004 0.455019 -0.231786
C16   C     C_R   0.022950 0.445989 0.285775 0.375512
C17   C     C_R   0.977039 0.553538 0.714511 0.375292
C18   C     C_R   0.131356 0.448161 0.299541 0.348689
H1    H     H_    0.767716 0.495859 0.164404 0.108158
H2    H     H_    0.231885 0.504848 0.836005 0.108218
H3    H     H_    0.858070 0.532040 0.932365 0.375229
H4    H     H_    0.141725 0.466087 0.067603 0.375300
H5    H     H_    0.009040 0.322109 0.087405 0.378271
H6    H     H_    0.990757 0.676608 0.913526 0.378948
N1    N     N_1   0.500020 0.500000 0.073640 -0.019116
N2    N     N_1   0.499980 0.500000 0.926360 -0.019051
O1    O     O_R   0.499990 0.285340 0.636850 -0.615136
O2    O     O_2   0.172375 0.299209 0.806897 -0.549350
O3    O     O_3   0.815543 0.573828 0.836051 -0.722593
O4    O     O_3   0.184443 0.425198 0.164210 -0.722550
O5    O     O_3   0.965614 0.390478 0.146626 -0.807565
O6    O     O_3   0.034302 0.608766 0.853878 -0.807531
O7    O     O_R   0.500010 0.714660 0.363150 -0.615290
O8    O     O_R   0.500010 0.285340 0.363150 -0.610295
O9    O     O_R   0.499990 0.714660 0.636850 -0.610363
O10   O     O_R   0.346350 0.500000 0.614250 -0.670674
O11   O     O_R   0.653650 0.500000 0.385750 -0.670998
O12   O     O_R   0.346360 0.500000 0.340500 -0.547713
O13   O     O_R   0.653640 0.500000 0.659500 -0.547626
O14   O     O_2   0.828754 0.700592 0.192780 -0.549342
Zn1   Zn    Zn3+2 0.499990 0.500000 0.682780 1.039447
Zn2   Zn    Zn3+2 0.500010 0.500000 0.317220 1.039272

loop_
_geom_bond_atom_site_label_1
_geom_bond_atom_site_label_2
_ccdc_geom_bond_type
N1    Zn2   S    
C15   C18   A    
H6    O6    S    
C18   O4    S    
C12   O10   A    
O1    Zn1   S    
C13   O11   A    
O8    Zn2   S    
C12   C15   S    
C11   O9    A    
N1    N2    T    
C7    C8    T    
O13   Zn1   S    
C3    C10   S    
C13   C14   S    
C2    C17   A    
C4    C14   A    
O10   Zn1   S    
C2    O3    S    
C2    C14   A    
O7    Zn2   S    
C4    C6    A    
C1    O8    A    
O12   Zn2   S    
C8    C11   S    
C12   O12   A    
C5    C6    A    
O9    Zn1   S    
C13   O13   A    
C5    C17   A    
C6    C16   A    
C11   O7    A    
C3    C15   A    
C16   C18   A    
C10   O2    D    
O11   Zn2   S    
C1    O1    A    
C17   O6    S    
H4    O4    S    
C3    C5    A    
C4    C9    S    
C1    C7    S    
H3    O3    S    
C9    H1    S    
C9    O14   D    
N2    Zn1   S    
C10   H2    S    
C16   O5    S    
H5    O5    S    
