data_mof_unit_16512.cif
_audit_creation_date              2012-12-11T16:26:25-0500
_audit_creation_method            fapswitch 2.2
_symmetry_space_group_name_H-M    P1
_symmetry_Int_Tables_number       1
_space_group_crystal_system       triclinic
_cell_length_a                    6.937102
_cell_length_b                    17.665984
_cell_length_c                    19.378434
_cell_angle_alpha                 108.557509
_cell_angle_beta                  89.732592
_cell_angle_gamma                 90.24495
_cell_volume                      2251.32641707

loop_
_atom_site_label
_atom_site_type_symbol
_atom_type_description
_atom_site_fract_x
_atom_site_fract_y
_atom_site_fract_z
_atom_type_partial_charge
O1    O     O_R   0.494330 0.415720 0.413720 -0.541939
O2    O     O_R   0.819330 0.430070 0.560210 -0.554340
O3    O     O_R   0.994320 0.584280 0.586280 -0.539514
C1    C     C_R   0.650439 0.414592 0.581500 0.696286
O4    O     O_R   0.823730 0.406300 0.412670 -0.546093
O5    O     O_R   0.998760 0.560340 0.437690 -0.542770
C2    C     C_R   0.655337 0.383953 0.384753 0.679433
O6    O     O_R   0.489890 0.439660 0.562310 -0.541517
O7    O     O_3   0.662340 0.550560 0.508380 -0.361410
V1    V     V_3+5 0.935370 0.490620 0.498450 1.440238
O8    O     O_R   0.328750 0.569930 0.439790 -0.529775
C3    C     C_R   0.160330 0.583787 0.417129 0.807171
O9    O     O_R   0.324340 0.593700 0.587330 -0.521563
C4    C     C_R   0.155118 0.617219 0.614496 0.825715
V2    V     V_3+5 0.435940 0.509380 0.501550 1.481874
O10   O     O_3   0.159100 0.449440 0.491620 -0.381757
H1    H     H_    0.292226 0.874624 0.570193 0.149341
C5    C     C_R   0.061703 0.593208 0.750994 -0.153735
C6    C     C_R   0.015280 0.579121 0.815877 -0.113485
C7    C     C_R   0.002916 0.642392 0.880412 -0.113971
C8    C     C_R   0.037126 0.720214 0.880569 -0.140381
C9    C     C_R   0.083643 0.736471 0.815465 0.079068
C10   C     C_R   0.095962 0.671718 0.749213 0.051857
C11   C     C_R   0.120776 0.815522 0.815921 -0.146504
C12   C     C_R   0.169338 0.830053 0.750056 0.009465
C13   C     C_R   0.180369 0.765539 0.683230 -0.042181
C14   C     C_R   0.144372 0.685947 0.683063 -0.186959
C15   C     C_R   0.204122 0.908891 0.749437 -0.158437
C16   C     C_R   0.249144 0.924256 0.685201 -0.220237
C17   C     C_R   0.258832 0.861998 0.620075 -0.152980
C18   C     C_R   0.224266 0.783594 0.618314 0.589783
H2    H     H_    0.071308 0.541714 0.702515 0.090329
H3    H     H_    0.989516 0.518693 0.816075 0.111161
H4    H     H_    0.967508 0.631124 0.930744 0.117200
H5    H     H_    0.027634 0.767257 0.932340 0.088385
H6    H     H_    0.195750 0.959799 0.798453 0.126485
H7    H     H_    0.275234 0.984976 0.685902 0.153768
C19   C     C_R   0.990222 0.625619 0.320855 -0.184657
C20   C     C_R   0.151570 0.631265 0.366252 -0.112113
C21   C     C_R   0.305818 0.681465 0.361949 -0.115222
C22   C     C_R   0.299061 0.726402 0.313962 0.150338
C23   C     C_R   0.137367 0.720243 0.268419 -0.026018
C24   C     C_R   0.982661 0.669212 0.271435 -0.026922
C25   C     C_R   0.451616 0.777528 0.310770 -0.133481
C26   C     C_R   0.445366 0.821642 0.262429 -0.196928
C27   C     C_R   0.285817 0.815887 0.216771 0.117715
C28   C     C_R   0.130630 0.765356 0.219872 0.052880
C29   C     C_R   0.969049 0.759975 0.174527 -0.004594
C30   C     C_R   0.817571 0.707950 0.176985 -0.266632
C31   C     C_R   0.824094 0.662802 0.224783 0.600258
C32   C     C_R   0.278216 0.860559 0.168699 -0.226975
C33   C     C_R   0.114711 0.859074 0.125791 -0.062033
C34   C     C_R   0.961464 0.807167 0.128060 -0.100550
H8    H     H_    0.871771 0.586360 0.323378 0.171517
H9    H     H_    0.430588 0.686321 0.396609 0.146682
H10   H     H_    0.576612 0.783051 0.345390 0.124975
H11   H     H_    0.565519 0.860399 0.260947 0.170788
H12   H     H_    0.398980 0.897500 0.165548 0.153855
H13   H     H_    0.836065 0.803820 0.094025 0.129150
H14   H     H_    0.692930 0.702636 0.142237 0.159491
C35   C     C_R   0.467815 0.188604 0.869668 0.536513
C36   C     C_R   0.622215 0.137090 0.871010 -0.197330
C37   C     C_R   0.781547 0.132896 0.824733 -0.223857
C38   C     C_R   0.786248 0.177785 0.776531 0.002409
C39   C     C_R   0.630998 0.228682 0.775140 -0.027148
C40   C     C_R   0.471776 0.234448 0.822151 0.013273
C41   C     C_R   0.942947 0.172028 0.729111 -0.227043
C42   C     C_R   0.947091 0.216600 0.680942 0.594700
C43   C     C_R   0.794098 0.268140 0.679552 -0.032903
C44   C     C_R   0.634851 0.273860 0.726578 0.009391
C45   C     C_R   0.479304 0.324695 0.725118 0.175143
C46   C     C_R   0.322791 0.330537 0.772557 -0.156280
C47   C     C_R   0.318963 0.285895 0.820559 -0.145665
C48   C     C_R   0.797194 0.314144 0.632234 -0.181779
C49   C     C_R   0.642379 0.364795 0.630326 -0.110126
C50   C     C_R   0.483156 0.369143 0.676577 -0.162497
H15   H     H_    0.900371 0.093328 0.825092 0.161679
H16   H     H_    0.062903 0.133005 0.729377 0.153504
H17   H     H_    0.919803 0.310252 0.596407 0.179041
H18   H     H_    0.363899 0.408391 0.675893 0.113776
H19   H     H_    0.202426 0.369349 0.772250 0.110903
H20   H     H_    0.195159 0.291410 0.856081 0.178397
H21   H     H_    0.921587 0.147840 0.426723 0.150708
C51   C     C_R   0.515796 0.403288 0.251224 -0.137803
C52   C     C_R   0.448851 0.414981 0.187779 -0.089676
C53   C     C_R   0.439084 0.351218 0.123665 -0.110688
C54   C     C_R   0.495112 0.275252 0.122657 -0.123744
C55   C     C_R   0.560521 0.260949 0.186660 0.068579
C56   C     C_R   0.572107 0.326558 0.252137 0.060211
C57   C     C_R   0.616518 0.183226 0.185679 -0.183246
C58   C     C_R   0.684520 0.171048 0.251272 -0.011196
C59   C     C_R   0.708875 0.238774 0.315086 0.072977
C60   C     C_R   0.645835 0.315412 0.316223 -0.167960
C61   C     C_R   0.729224 0.093867 0.256792 0.003073
C62   C     C_R   0.823366 0.087521 0.318666 -0.103280
C63   C     C_R   0.855376 0.154152 0.378356 -0.160079
C64   C     C_R   0.792234 0.228191 0.377977 -0.132909
H22   H     H_    0.525154 0.455452 0.299077 0.117848
H23   H     H_    0.406323 0.474045 0.188238 0.168770
H24   H     H_    0.388943 0.360693 0.074232 0.145709
H25   H     H_    0.487219 0.228338 0.070851 0.141562
H26   H     H_    0.861844 0.029752 0.322874 0.155296
H27   H     H_    0.810628 0.276709 0.428110 0.122239
O11   O     O_R   0.775200 0.060470 0.937800 -0.542466
O12   O     O_R   0.441110 0.093720 0.087350 -0.543256
O13   O     O_R   0.266330 0.939630 0.062280 -0.553679
C65   C     C_R   0.609610 0.116731 0.115206 0.669799
O14   O     O_R   0.445750 0.069950 0.939820 -0.507135
O15   O     O_R   0.271000 0.915700 0.913700 -0.541375
C66   C     C_R   0.614589 0.086153 0.919061 0.754521
O16   O     O_R   0.770530 0.084400 0.086380 -0.529594
O17   O     O_3   0.602830 0.949510 0.991680 -0.378433
V3    V     V_3+5 0.329710 0.009370 0.001550 1.487496
O18   O     O_R   0.940990 0.906170 0.912570 -0.545599
C67   C     C_R   0.110181 0.883223 0.885173 0.676941
O19   O     O_R   0.936350 0.929940 0.060100 -0.525799
C68   C     C_R   0.105142 0.912333 0.079642 0.709539
V4    V     V_3+5 0.829160 0.990450 0.998310 1.471905
O20   O     O_3   0.105910 0.050480 0.008320 -0.351731
F1    F     F_    0.674524 0.613263 0.225647 -0.714001
F2    F     F_    0.314592 0.195129 0.915215 -0.704876
F3    F     F_    0.101066 0.209280 0.635770 -0.695696
C69   C     C_2   0.657078 0.018337 0.205413 0.327281
H28   H     H_    0.523403 0.017196 0.176789 0.041142
O21   O     O_2   0.741583 0.955709 0.197243 -0.559057
F4    F     F_    0.231655 0.726754 0.552167 -0.725951

loop_
_geom_bond_atom_site_label_1
_geom_bond_atom_site_label_2
_ccdc_geom_bond_type
O11   C66   A    
C54   C55   A    
C22   C23   A    
C62   C63   A    
C1    O6    A    
O18   C67   A    
C34   H13   S    
C69   H28   S    
C52   C53   A    
C33   C34   A    
C12   C15   A    
O12   C65   A    
C26   H11   S    
C13   C14   A    
C16   C17   A    
C30   H14   S    
O16   V4    S    
C31   F1    S    
O12   V3    S    
C15   C16   A    
C57   C65   S    
C55   C56   A    
O5    C3    A    
C17   C18   A    
C69   O21   D    
V2    O10   S    
O19   C68   A    
C35   F2    S    
C5    C6    A    
V4    O20   S    
C1    C49   S    
V3    O20   S    
O8    V2    S    
C35   C40   A    
C6    C7    A    
O14   C66   A    
C42   C43   A    
C36   C66   S    
C44   C45   A    
O1    V2    S    
C10   C14   A    
C4    C14   S    
C53   H24   S    
O7    V1    S    
C46   H19   S    
C62   H26   S    
O15   V3    S    
C7    H4    S    
C33   C68   S    
C35   C36   A    
C13   C18   A    
C54   H25   S    
O9    C4    A    
H1    C17   S    
C61   C62   A    
C41   H16   S    
O17   V3    S    
C59   C64   A    
O11   V4    S    
C29   C34   A    
C2    C60   S    
C48   C49   A    
O13   V3    S    
C41   C42   A    
C38   C41   A    
C19   C20   A    
C11   C12   A    
C6    H3    S    
C42   F3    S    
C20   C21   A    
O4    C2    A    
C53   C54   A    
C12   C13   A    
C26   C27   A    
C40   C47   A    
C27   C32   A    
C32   C33   A    
O14   V3    S    
O2    C1    A    
C49   C50   A    
C36   C37   A    
C52   H23   S    
C25   H10   S    
C28   C29   A    
C19   H8    S    
C21   H9    S    
C63   C64   A    
C43   C48   A    
C32   H12   S    
C64   H27   S    
C51   C52   A    
O18   V4    S    
O3    C4    A    
C21   C22   A    
C55   C57   A    
C39   C40   A    
O6    V2    S    
C48   H17   S    
O9    V2    S    
O13   C68   A    
C22   C25   A    
C9    C11   A    
C5    H2    S    
C51   C56   A    
O2    V1    S    
C47   H20   S    
C58   C59   A    
C25   C26   A    
C37   H15   S    
C27   C28   A    
C29   C30   A    
O1    C2    A    
C65   O16   A    
C50   H18   S    
C46   C47   A    
O5    V1    S    
O8    C3    A    
C24   C31   A    
C8    H5    S    
C51   H22   S    
C38   C39   A    
C3    C20   S    
O7    V2    S    
C19   C24   A    
O3    V1    S    
V1    O10   S    
C61   C69   S    
C58   C61   A    
O17   V4    S    
C57   C58   A    
C45   C50   A    
C5    C10   A    
H21   C63   S    
C59   C60   A    
O19   V4    S    
C23   C28   A    
C56   C60   A    
C43   C44   A    
O15   C67   A    
C37   C38   A    
O4    V1    S    
C45   C46   A    
C7    C8    A    
C15   H6    S    
C11   C67   S    
C30   C31   A    
C23   C24   A    
C16   H7    S    
C9    C10   A    
C18   F4    S    
C8    C9    A    
C39   C44   A    
