data_mof_unit_61377.cif
_audit_creation_date              2012-12-10T19:38:19-0500
_audit_creation_method            fapswitch 2.2
_symmetry_space_group_name_H-M    P1
_symmetry_Int_Tables_number       1
_space_group_crystal_system       triclinic
_cell_length_a                    15.883775
_cell_length_b                    15.88621
_cell_length_c                    17.121008
_cell_angle_alpha                 92.615947
_cell_angle_beta                  96.532601
_cell_angle_gamma                 92.097621
_cell_volume                      4283.86886796

loop_
_atom_site_label
_atom_site_type_symbol
_atom_type_description
_atom_site_fract_x
_atom_site_fract_y
_atom_site_fract_z
_atom_type_partial_charge
C1    C     C_R   0.510738 0.499751 0.651660 0.835594
C2    C     C_3   0.582294 0.052862 0.546017 0.002986
C3    C     C_3   0.500685 0.082944 0.497512 0.216634
C4    C     C_3   0.493903 0.045857 0.411581 -0.397453
C5    C     C_3   0.493926 0.946930 0.409297 0.331800
C6    C     C_1   0.500929 0.175179 0.498494 -0.013589
C7    C     C_1   0.498620 0.824600 0.498171 -0.055603
C8    C     C_1   0.499029 0.749215 0.499296 -0.172241
C9    C     C_R   0.516501 0.497048 0.738318 -0.087037
C10   C     C_R   0.441032 0.488462 0.772992 -0.344019
C11   C     C_R   0.441980 0.485686 0.854282 0.140205
C12   C     C_R   0.499735 0.659781 0.500182 0.824492
C13   C     C_R   0.520239 0.493930 0.903122 0.325901
C14   C     C_R   0.596341 0.499135 0.869004 0.053676
C15   C     C_R   0.595091 0.500915 0.786774 0.085301
C16   C     C_R   0.548997 0.541154 0.143347 -0.199349
C17   C     C_R   0.555428 0.538666 0.224917 0.105800
C18   C     C_R   0.470858 0.526507 0.097168 0.264454
C19   C     C_R   0.482676 0.516865 0.262234 -0.149553
C20   C     C_R   0.402359 0.509523 0.215445 0.119229
C21   C     C_R   0.397091 0.514602 0.133382 0.082962
C22   C     C_R   0.251947 0.546105 0.539114 0.258434
C23   C     C_R   0.489366 0.505040 0.348539 0.869299
C24   C     C_R   0.162229 0.550076 0.537118 -0.051736
C25   C     C_R   0.108720 0.495756 0.484182 0.363131
C26   C     C_R   0.146622 0.439657 0.434377 -0.050683
C27   C     C_R   0.236161 0.435519 0.439589 0.245785
C28   C     C_R   0.843943 0.446737 0.481921 0.041044
C29   C     C_R   0.754267 0.449801 0.469894 0.270379
C30   C     C_R   0.892291 0.513211 0.525141 0.222973
C31   C     C_R   0.758419 0.571369 0.556736 0.328473
C32   C     C_R   0.848379 0.575177 0.563613 -0.047189
C33   C     C_R   0.500275 0.340218 0.499959 0.843643
C34   C     C_3   0.581920 0.954694 0.543204 -0.514496
C35   C     C_3   0.424052 0.951711 0.540172 -0.043073
C36   C     C_3   0.422270 0.049055 0.534454 -0.458242
C37   C     C_1   0.500852 0.250675 0.499274 -0.122321
C38   C     C_3   0.498240 0.916871 0.496471 0.299853
Cu1   Cu    Cu3+1 0.584780 0.504030 0.503820 1.023262
Cu2   Cu    Cu3+1 0.415220 0.495970 0.496180 1.001515
H1    H     H_    0.581177 0.075590 0.608465 0.153367
H2    H     H_    0.637942 0.930893 0.516909 0.212488
H3    H     H_    0.435264 0.067774 0.378008 0.155765
H4    H     H_    0.605179 0.556595 0.115593 0.208882
H5    H     H_    0.588015 0.933113 0.604499 0.155429
H6    H     H_    0.380252 0.482820 0.736944 0.182836
H7    H     H_    0.436957 0.938257 0.603749 0.135132
H8    H     H_    0.421248 0.078979 0.594412 0.156080
H9    H     H_    0.363352 0.066911 0.498423 0.205260
H10   H     H_    0.546754 0.072523 0.381733 0.184906
N1    N     N_2   0.525650 0.494827 0.986408 -0.193784
N2    N     N_2   0.464293 0.526700 0.014128 -0.201138
N3    N     N_R   0.287860 0.489910 0.490440 -0.192248
N4    N     N_2   0.017392 0.497602 0.475326 -0.130496
N5    N     N_2   0.983715 0.516128 0.536246 -0.171653
N6    N     N_R   0.712150 0.510100 0.509550 -0.215712
O1    O     O_R   0.579470 0.503770 0.617500 -0.536017
O2    O     O_R   0.436280 0.496960 0.611050 -0.575946
O3    O     O_R   0.571630 0.623970 0.503220 -0.553093
O4    O     O_R   0.428430 0.617160 0.496770 -0.560648
O5    O     O_R   0.563720 0.503040 0.388950 -0.546225
O6    O     O_R   0.420530 0.496230 0.382500 -0.532099
O7    O     O_R   0.571570 0.382840 0.503230 -0.560516
O8    O     O_R   0.428370 0.376030 0.496780 -0.556431
N7    N     N_3   0.659611 0.089232 0.519046 -0.556593
H11   H     H_    0.669693 0.060301 0.465027 0.253899
H12   H     H_    0.711274 0.075840 0.559446 0.230067
I1    I     I_    0.677028 0.579961 0.282788 -0.293607
I2    I     I_    0.713959 0.506370 0.943549 -0.346869
N8    N     N_3   0.673317 0.506540 0.752681 -0.550849
H13   H     H_    0.708433 0.454183 0.768049 0.247340
H14   H     H_    0.707494 0.561098 0.776221 0.235711
N9    N     N_3   0.325351 0.498826 0.250820 -0.523446
H15   H     H_    0.288453 0.550859 0.238693 0.237578
H16   H     H_    0.291925 0.445072 0.224382 0.261381
N10   N     N_3   0.363486 0.471980 0.886547 -0.568622
H17   H     H_    0.334987 0.415050 0.861837 0.222409
H18   H     H_    0.323565 0.520428 0.869529 0.218749
N11   N     N_3   0.315847 0.505438 0.087042 -0.591035
H19   H     H_    0.306814 0.559271 0.054669 0.239141
H20   H     H_    0.316451 0.453399 0.047486 0.255794
I3    I     I_    0.689374 0.360945 0.383271 -0.212674
I4    I     I_    0.904110 0.334188 0.447613 -0.259346
N12   N     N_3   0.092675 0.386566 0.378259 -0.514706
H21   H     H_    0.103172 0.323578 0.389996 0.261449
H22   H     H_    0.108242 0.397898 0.321862 0.249478
I5    I     I_    0.285956 0.339999 0.368123 -0.374039
N13   N     N_3   0.715273 0.632335 0.599643 -0.500101
H23   H     H_    0.731010 0.692108 0.581086 0.219606
H24   H     H_    0.737652 0.630613 0.659294 0.220772
N14   N     N_3   0.125818 0.611231 0.586094 -0.570156
H25   H     H_    0.146578 0.671563 0.572917 0.217784
H26   H     H_    0.146381 0.601316 0.644996 0.218960
N15   N     N_3   0.894369 0.641982 0.611322 -0.595321
H27   H     H_    0.933969 0.615154 0.655627 0.249322
H28   H     H_    0.932555 0.674815 0.576062 0.255885
N16   N     N_3   0.306145 0.601818 0.592418 -0.513104
H29   H     H_    0.293236 0.664101 0.579781 0.195050
H30   H     H_    0.293489 0.591645 0.649894 0.187880
N17   N     N_3   0.341235 0.911542 0.510366 -0.581129
H31   H     H_    0.340687 0.848382 0.525067 0.225717
H32   H     H_    0.295054 0.939206 0.540908 0.224648
N18   N     N_3   0.569282 0.919178 0.373805 -0.603484
H33   H     H_    0.565966 0.853457 0.365382 0.242970
H34   H     H_    0.569042 0.942873 0.317749 0.219457
N19   N     N_3   0.417358 0.910247 0.361026 -0.572986
H35   H     H_    0.421872 0.920971 0.301785 0.210410
H36   H     H_    0.363585 0.941186 0.374567 0.252230

loop_
_geom_bond_atom_site_label_1
_geom_bond_atom_site_label_2
_ccdc_geom_bond_type
C32   N15   S    
C24   C25   A    
C5    N18   S    
Cu2   O4    S    
C18   C21   A    
N9    H15   S    
C19   C20   A    
C34   H2    S    
C3    C6    S    
C35   H7    S    
N16   H29   S    
C18   N2    S    
C7    C8    T    
C26   C27   A    
C28   C29   A    
N10   H18   S    
C11   N10   S    
N19   H35   S    
C2    H1    S    
Cu1   O1    S    
Cu2   O6    S    
C13   N1    S    
C12   O3    A    
C23   O6    A    
Cu1   N6    S    
C16   C17   A    
N7    H12   S    
C10   H6    S    
N8    H13   S    
C31   N6    A    
C9    C10   A    
C16   H4    S    
C33   O7    A    
C2    N7    S    
C22   N16   S    
C5    C38   S    
C28   I4    S    
N9    H16   S    
N16   H30   S    
C22   N3    A    
C5    N19   S    
Cu1   O5    S    
Cu2   O2    S    
N1    N2    D    
C35   C38   S    
C1    C9    S    
N12   H21   S    
N14   H25   S    
N11   H20   S    
C25   C26   A    
C33   C37   S    
C4    H10   S    
C35   C36   S    
C19   C23   S    
C1    O1    A    
N14   H26   S    
C31   C32   A    
C8    C12   S    
Cu1   O3    S    
C21   N11   S    
N17   H32   S    
C6    C37   T    
N18   H34   S    
C34   H5    S    
N10   H17   S    
N15   H28   S    
C25   N4    S    
C29   N6    A    
N13   H24   S    
N7    H11   S    
C14   I2    S    
C22   C24   A    
C35   N17   S    
C24   N14   S    
Cu1   Cu2   S    
C15   N8    S    
N4    N5    D    
C17   I1    S    
C26   N12   S    
C31   N13   S    
C20   C21   A    
C34   C38   S    
N12   H22   S    
C4    C5    S    
C27   N3    A    
C4    H3    S    
Cu1   O7    S    
C30   N5    S    
Cu2   O8    S    
C28   C30   A    
C2    C3    S    
C9    C15   A    
C29   I3    S    
C1    O2    A    
C27   I5    S    
C30   C32   A    
C11   C13   A    
C2    C34   S    
N19   H36   S    
C3    C36   S    
C33   O8    A    
N17   H31   S    
C17   C19   A    
C7    C38   S    
C20   N9    S    
C36   H8    S    
N15   H27   S    
C10   C11   A    
N11   H19   S    
C12   O4    A    
C23   O5    A    
N13   H23   S    
C16   C18   A    
Cu2   N3    S    
N18   H33   S    
C14   C15   A    
N8    H14   S    
C13   C14   A    
C36   H9    S    
C3    C4    S    
