data_mof_unit_60590.cif
_audit_creation_date              2012-12-10T20:04:47-0500
_audit_creation_method            fapswitch 2.2
_symmetry_space_group_name_H-M    P1
_symmetry_Int_Tables_number       1
_space_group_crystal_system       triclinic
_cell_length_a                    10.791088
_cell_length_b                    19.356256
_cell_length_c                    18.465295
_cell_angle_alpha                 89.487773
_cell_angle_beta                  104.013129
_cell_angle_gamma                 90.317764
_cell_volume                      3741.98586762

loop_
_atom_site_label
_atom_site_type_symbol
_atom_type_description
_atom_site_fract_x
_atom_site_fract_y
_atom_site_fract_z
_atom_type_partial_charge
C1    C     C_R   0.500065 0.365595 0.500408 0.890320
C2    C     C_R   0.499950 0.634403 0.499594 0.919608
C3    C     C_R   0.499867 0.709638 0.498872 -0.183241
C4    C     C_R   0.500237 0.290366 0.501135 -0.178181
C5    C     C_R   0.591027 0.963906 0.553743 -0.175795
C6    C     C_R   0.409330 0.036103 0.446261 -0.176684
C7    C     C_R   0.591492 0.035455 0.553718 -0.178992
C8    C     C_R   0.408864 0.964555 0.446287 -0.178079
C9    C     C_R   0.500622 0.071660 0.499988 0.140987
C10   C     C_R   0.499731 0.928350 0.500017 0.140966
C11   C     C_R   0.577269 0.544799 0.736375 -0.082012
C12   C     C_R   0.422028 0.455557 0.263522 -0.086287
C13   C     C_R   0.578920 0.545766 0.812606 -0.263341
C14   C     C_R   0.420430 0.454568 0.187300 -0.262777
C15   C     C_R   0.500439 0.500123 0.841452 0.027288
C16   C     C_R   0.499627 0.499854 0.158578 0.026395
C17   C     C_R   0.421710 0.454476 0.791464 -0.329539
C18   C     C_R   0.579088 0.545129 0.208660 -0.332985
C19   C     C_R   0.422915 0.455212 0.715659 0.828637
C20   C     C_R   0.577912 0.544374 0.284471 0.833082
C21   C     C_R   0.487206 0.438016 0.960724 -0.168180
C22   C     C_R   0.512917 0.561956 0.039350 -0.167268
C23   C     C_R   0.258625 0.497723 0.468988 0.811623
C24   C     C_R   0.741353 0.497775 0.531046 0.813446
C25   C     C_R   0.486705 0.437950 0.036686 -0.172919
C26   C     C_R   0.513344 0.562030 0.963377 -0.171787
C27   C     C_R   0.499600 0.499915 0.077255 0.157635
C28   C     C_R   0.500479 0.500061 0.922796 0.157336
C29   C     C_2   0.122027 0.488743 0.451208 0.448022
C30   C     C_2   0.877827 0.488779 0.548945 0.457275
C31   C     C_2   0.067876 0.470997 0.506350 -0.220259
C32   C     C_2   0.931688 0.471050 0.494066 -0.226523
C33   C     C_R   0.491750 0.746858 0.432036 0.669677
C34   C     C_R   0.508385 0.253141 0.567971 0.666008
C35   C     C_R   0.491720 0.818405 0.432776 -0.256327
C36   C     C_R   0.508522 0.181595 0.567234 -0.259286
C37   C     C_R   0.499742 0.853341 0.499706 0.018943
C38   C     C_R   0.500576 0.146667 0.500307 0.019920
C39   C     C_R   0.507936 0.816598 0.566226 -0.165130
C40   C     C_R   0.492370 0.183416 0.433789 -0.167786
C41   C     C_R   0.507919 0.745069 0.565837 -0.261842
C42   C     C_R   0.492281 0.254944 0.434175 -0.268390
H1    H     H_    0.358138 0.419060 0.810516 0.175515
H2    H     H_    0.643213 0.580238 0.189664 0.177389
H3    H     H_    0.479316 0.389090 0.931997 0.147543
H4    H     H_    0.520883 0.610866 0.068116 0.148284
H5    H     H_    0.486657 0.846625 0.381200 0.167867
H6    H     H_    0.513597 0.153369 0.618807 0.167947
H7    H     H_    0.513042 0.843269 0.618209 0.152107
H8    H     H_    0.487322 0.156751 0.381809 0.152004
H9    H     H_    0.514200 0.717642 0.617988 0.185557
H10   H     H_    0.485993 0.282375 0.382026 0.185234
H11   H     H_    0.662666 0.936318 0.594928 0.143093
H12   H     H_    0.337685 0.063690 0.405078 0.142536
H13   H     H_    0.663393 0.062564 0.594958 0.146289
H14   H     H_    0.336954 0.937448 0.405049 0.146863
H15   H     H_    0.638165 0.579831 0.714652 0.165916
H16   H     H_    0.360569 0.420814 0.285164 0.164414
N1    N     N_R   0.500020 0.499980 0.689440 -0.147516
N2    N     N_R   0.499980 0.500020 0.310560 -0.150587
O1    O     O_R   0.500000 0.398180 0.560840 -0.511827
O2    O     O_R   0.500000 0.601820 0.439160 -0.505878
O3    O     O_R   0.499950 0.398180 0.439200 -0.656660
O4    O     O_R   0.500050 0.601820 0.560800 -0.648196
O5    O     O_R   0.317830 0.500010 0.538110 -0.621701
O6    O     O_R   0.682170 0.499990 0.461890 -0.618119
O7    O     O_R   0.317770 0.500000 0.416470 -0.581704
O8    O     O_R   0.682230 0.500000 0.583530 -0.583566
Zn1   Zn    Zn3+2 0.500040 0.500000 0.581220 1.041773
Zn2   Zn    Zn3+2 0.499960 0.500000 0.418780 1.041682
H17   H     H_    0.875100 0.462374 0.437536 0.208585
H18   H     H_    0.124299 0.462267 0.563013 0.236478
H19   H     H_    0.642582 0.581298 0.848759 0.160627
H20   H     H_    0.356279 0.419311 0.151048 0.160458
F1    F     F_    0.346306 0.411075 0.668206 -0.629258
F2    F     F_    0.655457 0.588024 0.332078 -0.609905
H21   H     H_    0.478457 0.389004 0.063982 0.138986
H22   H     H_    0.521526 0.610989 0.936097 0.139590
F3    F     F_    0.948122 0.499785 0.619808 -0.642766
F4    F     F_    0.051914 0.499828 0.380165 -0.637305
F5    F     F_    0.483555 0.714660 0.366002 -0.621996
F6    F     F_    0.516512 0.285334 0.634000 -0.623310

loop_
_geom_bond_atom_site_label_1
_geom_bond_atom_site_label_2
_ccdc_geom_bond_type
C30   C32   D    
C7    H13   S    
C35   H5    S    
C8    H14   S    
C6    C9    A    
C39   C41   A    
C20   F2    S    
C26   H22   S    
C10   C37   S    
C25   H21   S    
C23   C29   S    
C5    H11   S    
C35   C37   A    
O5    Zn1   S    
C3    C33   A    
O2    Zn2   S    
C7    C9    A    
C23   O7    A    
C17   C19   A    
O8    Zn1   S    
C20   N2    A    
C18   C20   A    
C24   O6    A    
C12   H16   S    
C16   C27   S    
C40   C42   A    
C6    H12   S    
C11   N1    A    
C1    O3    A    
C2    O4    A    
C32   H17   S    
C21   H3    S    
C37   C39   A    
C4    C34   A    
C5    C7    A    
C6    C8    A    
C19   N1    A    
C17   H1    S    
C18   H2    S    
C31   C32   S    
O3    Zn2   S    
N2    Zn2   S    
O4    Zn1   S    
N1    Zn1   S    
C30   F3    S    
C8    C10   A    
C31   H18   S    
C39   H7    S    
C21   C28   A    
C12   C14   A    
C22   C27   A    
C13   C15   A    
C14   C16   A    
C14   H20   S    
O1    Zn1   S    
C15   C17   A    
C21   C25   A    
C3    C41   A    
C22   H4    S    
C13   H19   S    
C1    O1    A    
C25   C27   A    
C26   C28   A    
C1    C4    S    
C23   O5    A    
C19   F1    S    
C2    C3    S    
C5    C10   A    
C29   C31   D    
C38   C40   A    
C11   C13   A    
C15   C28   S    
O6    Zn2   S    
C29   F4    S    
C4    C42   A    
C40   H8    S    
C36   C38   A    
C9    C38   S    
C33   C35   A    
C36   H6    S    
C34   C36   A    
C24   C30   S    
C24   O8    A    
C12   N2    A    
C16   C18   A    
C22   C26   A    
C34   F6    S    
O7    Zn2   S    
C11   H15   S    
C33   F5    S    
C41   H9    S    
C2    O2    A    
C42   H10   S    
