data_mof_unit_63411.cif
_audit_creation_date              2012-12-10T16:58:23-0500
_audit_creation_method            fapswitch 2.2
_symmetry_space_group_name_H-M    P1
_symmetry_Int_Tables_number       1
_space_group_crystal_system       triclinic
_cell_length_a                    31.039532
_cell_length_b                    30.444958
_cell_length_c                    24.735478
_cell_angle_alpha                 89.999979
_cell_angle_beta                  128.44971
_cell_angle_gamma                 90.0
_cell_volume                      18306.1982644

loop_
_atom_site_label
_atom_site_type_symbol
_atom_type_description
_atom_site_fract_x
_atom_site_fract_y
_atom_site_fract_z
_atom_type_partial_charge
C1    C     C_R   0.807876 0.809919 0.497387 0.940370
C2    C     C_R   0.192124 0.809919 0.502613 0.940370
C3    C     C_R   0.307876 0.309919 0.497387 0.940370
C4    C     C_R   0.692124 0.309919 0.502613 0.940370
C5    C     C_R   0.645107 0.749861 0.289748 -0.032569
C6    C     C_R   0.354893 0.749861 0.710252 -0.032569
C7    C     C_R   0.145107 0.249861 0.289748 -0.032569
C8    C     C_R   0.854893 0.249861 0.710252 -0.032569
C9    C     C_R   0.464966 0.749648 0.930225 0.282895
C10   C     C_R   0.535034 0.749648 0.069775 0.282895
C11   C     C_R   0.964966 0.249648 0.930225 0.282895
C12   C     C_R   0.035034 0.249648 0.069775 0.282895
C13   C     C_2   0.885248 0.873770 0.452239 -0.152818
C14   C     C_2   0.114752 0.873770 0.547761 -0.152818
C15   C     C_2   0.385248 0.373770 0.452239 -0.152818
C16   C     C_2   0.614752 0.373770 0.547761 -0.152818
C17   C     C_2   0.913218 0.903299 0.503069 -0.335877
C18   C     C_2   0.086782 0.903299 0.496931 -0.335876
C19   C     C_2   0.413218 0.403299 0.503069 -0.335877
C20   C     C_2   0.586782 0.403299 0.496931 -0.335876
C21   C     C_2   0.857424 0.837637 0.458162 -0.153848
C22   C     C_2   0.142576 0.837637 0.541838 -0.153849
C23   C     C_2   0.357424 0.337637 0.458162 -0.153849
C24   C     C_2   0.642576 0.337637 0.541838 -0.153849
C25   C     C_2   0.835337 0.844380 0.489707 -0.338836
C26   C     C_2   0.164663 0.844380 0.510293 -0.338836
C27   C     C_2   0.335337 0.344380 0.489707 -0.338836
C28   C     C_2   0.664663 0.344380 0.510293 -0.338836
C29   C     C_R   0.837630 0.766775 0.746796 -0.193485
C30   C     C_R   0.162370 0.766775 0.253204 -0.193486
C31   C     C_R   0.337630 0.266775 0.746796 -0.193485
C32   C     C_R   0.662370 0.266775 0.253204 -0.193486
C33   C     C_R   0.873419 0.766754 0.818613 -0.159841
C34   C     C_R   0.126581 0.766754 0.181387 -0.159840
C35   C     C_R   0.373419 0.266754 0.818613 -0.159842
C36   C     C_R   0.626581 0.266754 0.181387 -0.159840
C37   C     C_R   0.927305 0.751001 0.854681 0.086684
C38   C     C_R   0.072695 0.751001 0.145319 0.086684
C39   C     C_R   0.427305 0.251001 0.854681 0.086684
C40   C     C_R   0.572695 0.251001 0.145319 0.086684
C41   C     C_R   0.944806 0.734914 0.818060 -0.160360
C42   C     C_R   0.055194 0.734914 0.181940 -0.160360
C43   C     C_R   0.444806 0.234914 0.818060 -0.160360
C44   C     C_R   0.555194 0.234914 0.181940 -0.160360
C45   C     C_R   0.682674 0.749945 0.365192 0.864450
C46   C     C_R   0.317326 0.749945 0.634808 0.864450
C47   C     C_R   0.182674 0.249945 0.365192 0.864450
C48   C     C_R   0.817326 0.249945 0.634808 0.864450
C49   C     C_R   0.908721 0.734235 0.746270 -0.190062
C50   C     C_R   0.091279 0.734235 0.253730 -0.190062
C51   C     C_R   0.408721 0.234236 0.746270 -0.190062
C52   C     C_R   0.591279 0.234235 0.253730 -0.190061
C53   C     C_R   0.855017 0.750340 0.710246 -0.031800
C54   C     C_R   0.144983 0.750340 0.289754 -0.031800
C55   C     C_R   0.355017 0.250340 0.710246 -0.031800
C56   C     C_R   0.644983 0.250340 0.289754 -0.031800
C57   C     C_R   0.034907 0.751233 0.069778 0.283463
C58   C     C_R   0.965093 0.751233 0.930222 0.283463
C59   C     C_R   0.534907 0.251233 0.069778 0.283463
C60   C     C_R   0.465093 0.251233 0.930222 0.283463
C61   C     C_2   0.614761 0.626213 0.547785 -0.152311
C62   C     C_2   0.385239 0.626213 0.452215 -0.152311
C63   C     C_2   0.114761 0.126213 0.547785 -0.152310
C64   C     C_2   0.885239 0.126213 0.452215 -0.152311
C65   C     C_2   0.586787 0.596696 0.496937 -0.335436
C66   C     C_2   0.413213 0.596696 0.503062 -0.335436
C67   C     C_2   0.086787 0.096696 0.496937 -0.335437
C68   C     C_2   0.913212 0.096696 0.503062 -0.335437
C69   C     C_2   0.642592 0.662344 0.541880 -0.153851
C70   C     C_2   0.357408 0.662344 0.458120 -0.153850
C71   C     C_2   0.142592 0.162344 0.541880 -0.153851
C72   C     C_2   0.857408 0.162344 0.458120 -0.153850
C73   C     C_2   0.664670 0.655597 0.510325 -0.336926
C74   C     C_2   0.335330 0.655597 0.489675 -0.336926
C75   C     C_2   0.164670 0.155597 0.510325 -0.336926
C76   C     C_2   0.835330 0.155597 0.489675 -0.336926
C77   C     C_R   0.441698 0.560624 0.500408 0.933240
C78   C     C_R   0.558302 0.560624 0.499592 0.933240
C79   C     C_R   0.941698 0.060624 0.500408 0.933240
C80   C     C_R   0.058302 0.060624 0.499592 0.933240
C81   C     C_R   0.941721 0.939360 0.500409 0.933276
C82   C     C_R   0.058279 0.939360 0.499591 0.933276
C83   C     C_R   0.441721 0.439360 0.500409 0.933276
C84   C     C_R   0.558279 0.439360 0.499591 0.933276
C85   C     C_R   0.692111 0.690056 0.502621 0.940483
C86   C     C_R   0.307888 0.690056 0.497379 0.940482
C87   C     C_R   0.192111 0.190056 0.502621 0.940483
C88   C     C_R   0.807888 0.190056 0.497379 0.940482
C89   C     C_R   0.817326 0.750061 0.634807 0.864553
C90   C     C_R   0.182674 0.750061 0.365193 0.864552
C91   C     C_R   0.317326 0.250061 0.634807 0.864553
C92   C     C_R   0.682674 0.250061 0.365193 0.864552
C93   C     C_R   0.610612 0.785988 0.253539 -0.189867
C94   C     C_R   0.389388 0.785988 0.746461 -0.189867
C95   C     C_R   0.110612 0.285988 0.253539 -0.189867
C96   C     C_R   0.889388 0.285988 0.746461 -0.189867
C97   C     C_R   0.575057 0.786071 0.181741 -0.159865
C98   C     C_R   0.424943 0.786071 0.818259 -0.159865
C99   C     C_R   0.075057 0.286071 0.181741 -0.159864
C100  C     C_R   0.924943 0.286071 0.818259 -0.159865
C101  C     C_R   0.572876 0.749697 0.145309 0.086562
C102  C     C_R   0.427124 0.749697 0.854690 0.086562
C103  C     C_R   0.072876 0.249697 0.145310 0.086562
C104  C     C_R   0.927124 0.249697 0.854690 0.086562
C105  C     C_R   0.607082 0.713412 0.181556 -0.160397
C106  C     C_R   0.392918 0.713412 0.818444 -0.160398
C107  C     C_R   0.107081 0.213412 0.181556 -0.160398
C108  C     C_R   0.892918 0.213412 0.818444 -0.160398
C109  C     C_R   0.643358 0.713663 0.253379 -0.193376
C110  C     C_R   0.356642 0.713663 0.746621 -0.193375
C111  C     C_R   0.143358 0.213663 0.253379 -0.193375
C112  C     C_R   0.856642 0.213663 0.746621 -0.193375
H1    H     H_    0.611511 0.814331 0.280698 0.155286
H2    H     H_    0.388489 0.814331 0.719302 0.155286
H3    H     H_    0.111512 0.314331 0.280698 0.155286
H4    H     H_    0.888489 0.314331 0.719302 0.155286
H5    H     H_    0.986136 0.722379 0.844877 0.148498
H6    H     H_    0.013864 0.722379 0.155123 0.148498
H7    H     H_    0.486136 0.222379 0.844877 0.148498
H8    H     H_    0.513864 0.222379 0.155123 0.148498
H9    H     H_    0.922992 0.721561 0.718966 0.155423
H10   H     H_    0.077008 0.721561 0.281034 0.155423
H11   H     H_    0.422992 0.221561 0.718966 0.155423
H12   H     H_    0.577008 0.221561 0.281034 0.155423
H13   H     H_    0.615370 0.624889 0.592149 0.167648
H14   H     H_    0.384630 0.624889 0.407851 0.167648
H15   H     H_    0.115370 0.124889 0.592149 0.167648
H16   H     H_    0.884630 0.124889 0.407851 0.167648
H17   H     H_    0.580937 0.600935 0.449115 0.158253
H18   H     H_    0.419062 0.600935 0.550885 0.158253
H19   H     H_    0.080937 0.100935 0.449115 0.158253
H20   H     H_    0.919062 0.100935 0.550885 0.158253
H21   H     H_    0.646499 0.693820 0.565268 0.165030
H22   H     H_    0.353501 0.693820 0.434732 0.165029
H23   H     H_    0.146499 0.193821 0.565268 0.165029
H24   H     H_    0.853501 0.193821 0.434732 0.165029
H25   H     H_    0.666349 0.622886 0.494094 0.157492
H26   H     H_    0.333651 0.622886 0.505906 0.157492
H27   H     H_    0.166349 0.122886 0.494094 0.157492
H28   H     H_    0.833651 0.122886 0.505906 0.157492
H29   H     H_    0.548816 0.814336 0.154777 0.148605
H30   H     H_    0.451184 0.814336 0.845222 0.148605
H31   H     H_    0.048816 0.314336 0.154778 0.148605
H32   H     H_    0.951184 0.314336 0.845222 0.148605
H33   H     H_    0.606247 0.685090 0.154419 0.147983
H34   H     H_    0.393752 0.685090 0.845581 0.147983
H35   H     H_    0.106247 0.185090 0.154419 0.147983
H36   H     H_    0.893752 0.185090 0.845581 0.147983
H37   H     H_    0.669547 0.685385 0.280435 0.154123
H38   H     H_    0.330453 0.685385 0.719565 0.154123
H39   H     H_    0.169547 0.185385 0.280435 0.154123
H40   H     H_    0.830453 0.185385 0.719565 0.154123
H41   H     H_    0.884647 0.875079 0.407881 0.167894
H42   H     H_    0.115353 0.875079 0.592119 0.167895
H43   H     H_    0.384647 0.375079 0.407881 0.167894
H44   H     H_    0.615353 0.375079 0.592119 0.167895
H45   H     H_    0.919059 0.899075 0.550888 0.158398
H46   H     H_    0.080940 0.899075 0.449112 0.158398
H47   H     H_    0.419059 0.399076 0.550888 0.158398
H48   H     H_    0.580940 0.399076 0.449112 0.158398
H49   H     H_    0.853523 0.806159 0.434781 0.166911
H50   H     H_    0.146477 0.806159 0.565219 0.166911
H51   H     H_    0.353523 0.306159 0.434781 0.166911
H52   H     H_    0.646477 0.306159 0.565219 0.166911
H53   H     H_    0.833658 0.877091 0.505938 0.158145
H54   H     H_    0.166342 0.877091 0.494062 0.158144
H55   H     H_    0.333658 0.377091 0.505938 0.158145
H56   H     H_    0.666342 0.377091 0.494062 0.158144
H57   H     H_    0.796242 0.779210 0.719896 0.153036
H58   H     H_    0.203758 0.779211 0.280104 0.153037
H59   H     H_    0.296242 0.279210 0.719896 0.153037
H60   H     H_    0.703758 0.279211 0.280104 0.153037
N1    N     N_R   0.517302 0.711241 0.034298 -0.176662
N2    N     N_R   0.482698 0.711241 0.965702 -0.176662
N3    N     N_R   0.017302 0.211241 0.034298 -0.176662
N4    N     N_R   0.982698 0.211241 0.965702 -0.176662
N5    N     N_R   0.482866 0.788044 0.965708 -0.176297
N6    N     N_R   0.517134 0.788044 0.034292 -0.176297
N7    N     N_R   0.982866 0.288044 0.965708 -0.176297
N8    N     N_R   0.017134 0.288044 0.034292 -0.176297
N9    N     N_R   0.020283 0.751177 0.965254 -0.176813
N10   N     N_R   0.979717 0.751177 0.034746 -0.176813
N11   N     N_R   0.520283 0.251177 0.965254 -0.176813
N12   N     N_R   0.479717 0.251177 0.034746 -0.176813
N13   N     N_R   0.054596 0.751338 0.033843 -0.176705
N14   N     N_R   0.945403 0.751338 0.966156 -0.176706
N15   N     N_R   0.554597 0.251338 0.033843 -0.176705
N16   N     N_R   0.445403 0.251338 0.966156 -0.176706
O1    O     O_R   0.820760 0.769680 0.499980 -0.615429
O2    O     O_R   0.179240 0.769680 0.500020 -0.615428
O3    O     O_R   0.320760 0.269680 0.499980 -0.615428
O4    O     O_R   0.679240 0.269680 0.500020 -0.615428
O5    O     O_R   0.483490 0.545220 0.557520 -0.626041
O6    O     O_R   0.516510 0.545220 0.442480 -0.626041
O7    O     O_R   0.983490 0.045220 0.557520 -0.626041
O8    O     O_R   0.016510 0.045220 0.442480 -0.626041
O9    O     O_R   0.926010 0.954760 0.442510 -0.614804
O10   O     O_R   0.073990 0.954760 0.557490 -0.614805
O11   O     O_R   0.426010 0.454760 0.442510 -0.614804
O12   O     O_R   0.573990 0.454760 0.557490 -0.614805
O13   O     O_R   0.983520 0.954760 0.557520 -0.626015
O14   O     O_R   0.016480 0.954760 0.442480 -0.626014
O15   O     O_R   0.483520 0.454760 0.557520 -0.626015
O16   O     O_R   0.516480 0.454760 0.442480 -0.626014
O17   O     O_R   0.769670 0.820760 0.499990 -0.621806
O18   O     O_R   0.230330 0.820760 0.500010 -0.621806
O19   O     O_R   0.269670 0.320760 0.499990 -0.621806
O20   O     O_R   0.730330 0.320760 0.500010 -0.621806
O21   O     O_R   0.724610 0.724460 0.398130 -0.626612
O22   O     O_R   0.275390 0.724460 0.601870 -0.626612
O23   O     O_R   0.224610 0.224460 0.398130 -0.626612
O24   O     O_R   0.775390 0.224460 0.601870 -0.626612
O25   O     O_R   0.673520 0.775530 0.398150 -0.622092
O26   O     O_R   0.326480 0.775530 0.601850 -0.622092
O27   O     O_R   0.173520 0.275530 0.398150 -0.622092
O28   O     O_R   0.826480 0.275530 0.601850 -0.622092
O29   O     O_R   0.730310 0.679220 0.500010 -0.621868
O30   O     O_R   0.269690 0.679220 0.499990 -0.621867
O31   O     O_R   0.230310 0.179220 0.500010 -0.621868
O32   O     O_R   0.769690 0.179220 0.499990 -0.621867
O33   O     O_R   0.679220 0.730290 0.500020 -0.615072
O34   O     O_R   0.320780 0.730290 0.499980 -0.615072
O35   O     O_R   0.179220 0.230290 0.500020 -0.615072
O36   O     O_R   0.820780 0.230290 0.499980 -0.615072
O37   O     O_R   0.826460 0.724450 0.601850 -0.622247
O38   O     O_R   0.173540 0.724450 0.398150 -0.622246
O39   O     O_R   0.326460 0.224450 0.601850 -0.622247
O40   O     O_R   0.673540 0.224450 0.398150 -0.622246
O41   O     O_R   0.775370 0.775520 0.601870 -0.626492
O42   O     O_R   0.224630 0.775520 0.398130 -0.626492
O43   O     O_R   0.275370 0.275520 0.601870 -0.626492
O44   O     O_R   0.724630 0.275520 0.398130 -0.626492
O45   O     O_R   0.425990 0.545230 0.442510 -0.614853
O46   O     O_R   0.574010 0.545230 0.557490 -0.614853
O47   O     O_R   0.925990 0.045230 0.442510 -0.614853
O48   O     O_R   0.074010 0.045230 0.557490 -0.614853
Zn1   Zn    Zn3+2 0.784100 0.715890 0.499990 0.953316
Zn2   Zn    Zn3+2 0.215900 0.715890 0.500010 0.953317
Zn3   Zn    Zn3+2 0.284100 0.215890 0.499990 0.953317
Zn4   Zn    Zn3+2 0.715900 0.215890 0.500010 0.953317
Zn5   Zn    Zn3+2 0.715880 0.784090 0.500010 0.953608
Zn6   Zn    Zn3+2 0.284120 0.784090 0.499990 0.953608
Zn7   Zn    Zn3+2 0.215880 0.284090 0.500010 0.953608
Zn8   Zn    Zn3+2 0.784120 0.284090 0.499990 0.953608
Zn9   Zn    Zn3+2 0.461590 0.499990 0.423210 0.957801
Zn10  Zn    Zn3+2 0.538410 0.499990 0.576790 0.957801
Zn11  Zn    Zn3+2 0.961590 0.999990 0.423210 0.957801
Zn12  Zn    Zn3+2 0.038410 0.999990 0.576790 0.957801
H61   H     H_    0.859143 0.779505 0.845868 0.147904
H62   H     H_    0.140857 0.779505 0.154132 0.147904
H63   H     H_    0.359143 0.279504 0.845868 0.147904
H64   H     H_    0.640857 0.279505 0.154132 0.147904

loop_
_geom_bond_atom_site_label_1
_geom_bond_atom_site_label_2
_ccdc_geom_bond_type
O28   Zn8   S    
C99   C103  A    
C34   H62   S    
C48   O28   A    
C89   O41   A    
C16   H44   S    
O38   Zn2   S    
O29   Zn1   S    
C58   N14   A    
O37   Zn1   S    
C4    O4    A    
C35   C39   A    
C8    C96   A    
C72   C76   D    
C43   C51   A    
C46   O26   A    
C77   O45   A    
C94   H2    S    
C79   O7    A    
O33   Zn5   S    
N1    N2    A    
C84   O12   A    
C15   C19   D    
O14   Zn11  S    
C30   C54   A    
C11   N4    A    
C50   C54   A    
C5    C109  A    
C75   H27   S    
C58   N9    A    
O42   Zn6   S    
O22   Zn2   S    
C99   H31   S    
C95   H3    S    
C90   O42   A    
O21   Zn1   S    
C82   O10   A    
C47   O23   A    
C8    C112  A    
C81   O9    A    
O1    Zn1   S    
C22   H50   S    
C95   C99   A    
C72   H24   S    
C94   C98   A    
C61   C69   S    
C29   C33   A    
C100  C104  A    
C51   H11   S    
C62   C70   S    
C78   O6    A    
O31   Zn3   S    
C68   H20   S    
C85   O29   A    
C30   H58   S    
C55   C91   S    
C18   C82   S    
C88   O36   A    
C97   H29   S    
C48   O24   A    
O35   Zn7   S    
C9    C102  S    
C6    C94   A    
O6    Zn9   S    
C47   O27   A    
C70   C74   D    
C45   O25   A    
O5    Zn10  S    
C112  H40   S    
C92   O44   A    
C69   C73   D    
C11   C104  S    
C2    O18   A    
C23   C27   D    
C20   H48   S    
C17   H45   S    
C76   C88   S    
C15   H43   S    
C37   C58   S    
C16   C20   D    
O20   Zn8   S    
C63   H15   S    
C44   C52   A    
C10   N1    A    
C15   C23   S    
C32   H60   S    
C49   H9    S    
C16   C24   S    
C40   C59   S    
C34   C38   A    
C98   H30   S    
C101  C105  A    
C6    C110  A    
C24   H52   S    
O40   Zn4   S    
O17   Zn5   S    
C73   H25   S    
C41   C49   A    
C57   N10   A    
C4    C28   S    
C4    O20   A    
C23   H51   S    
C57   N13   A    
C76   H28   S    
O3    Zn3   S    
C80   O8    A    
C63   C67   D    
C71   C75   D    
C21   H49   S    
C30   C34   A    
C10   N6    A    
C2    O2    A    
C36   C40   A    
C12   C103  S    
C83   O15   A    
C100  H32   S    
O10   Zn12  S    
C82   O14   A    
C62   C66   D    
O36   Zn8   S    
C81   O13   A    
C51   C55   A    
C64   H16   S    
C107  H35   S    
C46   O22   A    
C5    C45   S    
C59   N12   A    
O9    Zn11  S    
C86   O30   A    
C108  C112  A    
C42   H6    S    
C32   C56   A    
C7    C47   S    
C41   H5    S    
O43   Zn7   S    
C8    C48   S    
N10   N14   A    
C18   H46   S    
O19   Zn7   S    
O46   Zn10  S    
C38   C57   S    
C74   H26   S    
C93   C97   A    
C65   H17   S    
O48   Zn12  S    
C97   C101  A    
C109  H37   S    
C78   O46   A    
C105  H33   S    
C105  C109  A    
C35   H63   S    
N12   N16   A    
C13   C21   S    
C9    N2    A    
C2    C26   S    
C93   H1    S    
C74   C86   S    
C59   N15   A    
C13   H41   S    
O24   Zn4   S    
C67   H19   S    
C42   C50   A    
C12   N3    A    
C31   C55   A    
C75   C87   S    
C85   O33   A    
C12   N8    A    
C63   C71   S    
C87   O31   A    
C20   C84   S    
O8    Zn11  S    
C53   C89   S    
O23   Zn3   S    
C11   N7    A    
O30   Zn2   S    
O12   Zn10  S    
C43   H7    S    
C64   C68   D    
O39   Zn3   S    
C104  C108  A    
C1    O17   A    
O47   Zn11  S    
C24   C28   D    
C62   H14   S    
C106  C110  A    
C31   H59   S    
C66   C77   S    
C21   C25   D    
C26   H54   S    
N9    N13   A    
C65   C78   S    
C6    C46   S    
C91   O39   A    
C77   O5    A    
O44   Zn8   S    
C107  C111  A    
C14   C18   D    
C90   O38   A    
C10   C101  S    
C96   H4    S    
C67   C80   S    
O16   Zn9   S    
C89   O37   A    
C110  H38   S    
C111  H39   S    
C5    C93   A    
C32   C36   A    
C54   C90   S    
C69   H21   S    
C7    C111  A    
C7    C95   A    
O7    Zn12  S    
C96   C100  A    
C28   H56   S    
O27   Zn7   S    
C106  H34   S    
C13   C17   D    
O26   Zn6   S    
C103  C107  A    
C25   H53   S    
O2    Zn2   S    
C14   C22   S    
O25   Zn5   S    
C19   H47   S    
C73   C85   S    
O34   Zn6   S    
N3    N4    A    
C98   C102  A    
O13   Zn12  S    
C71   H23   S    
O18   Zn6   S    
C52   H12   S    
O45   Zn9   S    
O41   Zn5   S    
O15   Zn10  S    
C29   C53   A    
C60   N11   A    
C49   C53   A    
C39   C60   S    
C33   H61   S    
C31   C35   A    
C3    C27   S    
C3    O19   A    
C36   H64   S    
C80   O48   A    
C33   C37   A    
C102  C106  A    
C17   C81   S    
C64   C72   S    
C61   C65   D    
C37   C41   A    
C3    O3    A    
C45   O21   A    
C19   C83   S    
O4    Zn4   S    
O11   Zn9   S    
C79   O47   A    
N7    N8    A    
C66   H18   S    
C38   C42   A    
C88   O32   A    
C40   C44   A    
C50   H10   S    
C92   O40   A    
C68   C79   S    
C60   N16   A    
N5    N6    A    
C22   C26   D    
C39   C43   A    
C91   O43   A    
C70   H22   S    
C44   H8    S    
O32   Zn4   S    
C61   H13   S    
C86   O34   A    
C29   H57   S    
C84   O16   A    
C56   C92   S    
C83   O11   A    
C1    C25   S    
C27   H55   S    
C14   H42   S    
N11   N15   A    
C52   C56   A    
C9    N5    A    
C87   O35   A    
C108  H36   S    
C1    O1    A    
