data_mof_unit_54853.cif
_audit_creation_date              2012-12-11T14:29:43-0500
_audit_creation_method            fapswitch 2.2
_symmetry_space_group_name_H-M    P1
_symmetry_Int_Tables_number       1
_space_group_crystal_system       triclinic
_cell_length_a                    6.940598
_cell_length_b                    14.761999
_cell_length_c                    16.224896
_cell_angle_alpha                 90.595201
_cell_angle_beta                  89.887348
_cell_angle_gamma                 90.127514
_cell_volume                      1662.2588533

loop_
_atom_site_label
_atom_site_type_symbol
_atom_type_description
_atom_site_fract_x
_atom_site_fract_y
_atom_site_fract_z
_atom_type_partial_charge
O1    O     O_R   0.494400 0.416610 0.413880 -0.547932
O2    O     O_R   0.823920 0.406790 0.585520 -0.547207
O3    O     O_R   0.994250 0.583390 0.586120 -0.539102
C1    C     C_R   0.654111 0.383383 0.611804 0.728066
O4    O     O_R   0.824110 0.405730 0.414490 -0.545541
O5    O     O_R   0.994440 0.582310 0.413870 -0.555487
C2    C     C_R   0.654875 0.383718 0.386309 0.727984
O6    O     O_R   0.494210 0.417690 0.586130 -0.542093
O7    O     O_3   0.660810 0.557940 0.500000 -0.354026
V1    V     V_3+5 0.935650 0.489250 0.500000 1.440641
O8    O     O_R   0.324160 0.593210 0.414480 -0.500654
C3    C     C_R   0.155474 0.617992 0.389106 0.641004
O9    O     O_R   0.323970 0.594270 0.585510 -0.525702
C4    C     C_R   0.154936 0.616069 0.613948 0.703067
V2    V     V_3+5 0.435660 0.510750 0.500000 1.521156
O10   O     O_3   0.160630 0.442060 0.500000 -0.382564
H1    H     H_    0.014469 0.917254 0.504310 0.156757
C5    C     C_R   0.196636 0.563987 0.784501 -0.110469
C6    C     C_R   0.214143 0.536448 0.866029 -0.033828
C7    C     C_R   0.204996 0.599652 0.929981 -0.135152
C8    C     C_R   0.175996 0.690911 0.913018 -0.130872
C9    C     C_R   0.154660 0.720830 0.831000 0.072593
C10   C     C_R   0.166216 0.656110 0.765306 0.042657
C11   C     C_R   0.119405 0.813294 0.814024 -0.169416
C12   C     C_R   0.092731 0.840766 0.731326 0.066159
C13   C     C_R   0.103790 0.776021 0.665647 0.053297
C14   C     C_R   0.143601 0.683869 0.682455 -0.172828
C15   C     C_R   0.054926 0.932365 0.712416 -0.146217
C16   C     C_R   0.027259 0.959308 0.631223 -0.139171
C17   C     C_R   0.036516 0.896034 0.567260 -0.081446
C18   C     C_R   0.074094 0.805376 0.583957 -0.084591
H2    H     H_    0.204925 0.512179 0.736934 0.122770
H3    H     H_    0.233835 0.465598 0.879737 0.185012
H4    H     H_    0.219240 0.577784 0.993156 0.122937
H5    H     H_    0.168399 0.737433 0.964899 0.090211
H6    H     H_    0.046123 0.984049 0.760061 0.102405
H7    H     H_    0.998120 0.029672 0.617919 0.121423
H8    H     H_    0.079008 0.758643 0.532211 0.131212
C19   C     C_2   0.001602 0.706430 0.279208 -0.246750
C20   C     C_2   0.149478 0.696814 0.333113 0.296417
H9    H     H_    0.884751 0.657377 0.280196 0.138707
C21   C     C_2   0.980344 0.780664 0.218482 -0.038224
C22   C     C_2   0.125988 0.807484 0.169828 -0.240147
H10   H     H_    0.837808 0.809154 0.209966 0.177469
H11   H     H_    0.264782 0.774592 0.174586 0.187616
C23   C     C_2   0.759491 0.199687 0.772901 -0.247133
C24   C     C_2   0.620094 0.194101 0.831416 0.326364
H12   H     H_    0.865064 0.145651 0.768079 0.108650
C25   C     C_2   0.784564 0.275346 0.714045 -0.041406
C26   C     C_2   0.635669 0.310056 0.672289 -0.238742
H13   H     H_    0.930309 0.297673 0.700537 0.161762
H14   H     H_    0.492559 0.282454 0.681655 0.182606
C27   C     C_2   0.779294 0.209185 0.213763 -0.118337
C28   C     C_2   0.614193 0.182173 0.177130 -0.271796
H15   H     H_    0.915011 0.180325 0.193010 0.140389
H16   H     H_    0.476832 0.210454 0.195624 0.127941
C29   C     C_2   0.791777 0.277782 0.281651 -0.127080
C30   C     C_2   0.638344 0.315412 0.319539 -0.298486
H17   H     H_    0.935711 0.297183 0.301301 0.135195
H18   H     H_    0.493269 0.296608 0.301855 0.130362
O11   O     O_R   0.770210 0.079270 0.910680 -0.554382
O12   O     O_R   0.440150 0.091160 0.082270 -0.533339
O13   O     O_R   0.269970 0.914530 0.082860 -0.536184
C31   C     C_R   0.608836 0.113356 0.110397 0.787012
O14   O     O_R   0.440480 0.090100 0.911240 -0.509789
O15   O     O_R   0.270310 0.913460 0.910610 -0.542705
C32   C     C_R   0.609966 0.114372 0.885657 0.657825
O16   O     O_R   0.769870 0.080340 0.082930 -0.542653
O17   O     O_3   0.603660 0.938980 0.996790 -0.377938
V3    V     V_3+5 0.328750 0.007610 0.996740 1.523187
O18   O     O_R   0.940600 0.902510 0.911180 -0.543169
C33   C     C_R   0.109409 0.881086 0.882518 0.677929
O19   O     O_R   0.940270 0.903570 0.082200 -0.547140
C34   C     C_R   0.109470 0.880459 0.108837 0.719856
V4    V     V_3+5 0.828770 0.986010 0.996670 1.463553
O20   O     O_3   0.103730 0.054750 0.996710 -0.361592
S1    S     S_3+6 0.331284 0.780912 0.348112 -0.029868
O21   O     O_2   0.496188 0.762451 0.290244 -0.369557
O22   O     O_2   0.252727 0.874111 0.333111 -0.338323
O23   O     O_3   0.413943 0.776564 0.445397 -0.514240
H19   H     H_    0.518622 0.822215 0.448096 0.360009
S2    S     S_3+6 0.463893 0.285499 0.857341 -0.036114
O24   O     O_2   0.560295 0.374989 0.841649 -0.342101
O25   O     O_2   0.282432 0.278159 0.807268 -0.377673
O26   O     O_3   0.406183 0.279715 0.957934 -0.510675
H20   H     H_    0.305048 0.326117 0.966455 0.347643

loop_
_geom_bond_atom_site_label_1
_geom_bond_atom_site_label_2
_ccdc_geom_bond_type
O19   C34   A    
C6    C7    A    
C1    O6    A    
C19   H9    S    
S1    O21   D    
O11   V4    S    
O16   V4    S    
C23   C25   S    
C13   C14   A    
C31   O16   A    
C15   C16   A    
O5    C3    A    
C17   C18   A    
C29   H17   S    
C30   H18   S    
V2    O10   S    
O12   V3    S    
C5    C6    A    
C24   S2    S    
O12   C31   A    
O8    V2    S    
O15   C33   A    
O14   C32   A    
C26   H14   S    
O1    V2    S    
C10   C14   A    
C4    C14   S    
O7    V1    S    
C2    C30   S    
C7    H4    S    
C22   C34   S    
S1    O22   D    
C13   C18   A    
C8    C9    A    
H1    C17   S    
O19   V4    S    
C21   H10   S    
C24   C32   S    
C19   C21   S    
C23   H12   S    
C27   H15   S    
C28   H16   S    
C5    C10   A    
C11   C12   A    
C6    H3    S    
C19   C20   D    
O4    C2    A    
C27   C29   S    
C25   H13   S    
C12   C13   A    
C27   C28   D    
C1    C26   S    
C12   C15   A    
C3    C20   S    
O2    C1    A    
V4    O20   S    
C16   C17   A    
O11   C32   A    
O13   V3    S    
C22   H11   S    
O26   H20   S    
O3    C4    A    
S2    O24   D    
O6    V2    S    
S2    O25   D    
O9    V2    S    
V3    O20   S    
C9    C11   A    
C5    H2    S    
C21   C22   D    
O2    V1    S    
C11   C33   S    
S1    O23   S    
C23   C24   D    
O1    C2    A    
O23   H19   S    
O5    V1    S    
O8    C3    A    
C8    H5    S    
O13   C34   A    
S2    O26   S    
C18   H8    S    
O7    V2    S    
O4    V1    S    
O3    V1    S    
V1    O10   S    
O18   V4    S    
C29   C30   D    
O15   V3    S    
C28   C31   S    
O17   V4    S    
C20   S1    S    
O17   V3    S    
O18   C33   A    
C7    C8    A    
C15   H6    S    
C25   C26   D    
C16   H7    S    
C9    C10   A    
O9    C4    A    
O14   V3    S    
