data_mof_unit_40717.cif
_audit_creation_date              2012-12-10T18:59:58-0500
_audit_creation_method            fapswitch 2.2
_symmetry_space_group_name_H-M    P1
_symmetry_Int_Tables_number       1
_space_group_crystal_system       triclinic
_cell_length_a                    10.840242
_cell_length_b                    10.678921
_cell_length_c                    9.961198
_cell_angle_alpha                 89.055709
_cell_angle_beta                  88.947822
_cell_angle_gamma                 91.867932
_cell_volume                      1152.15368997

loop_
_atom_site_label
_atom_site_type_symbol
_atom_type_description
_atom_site_fract_x
_atom_site_fract_y
_atom_site_fract_z
_atom_type_partial_charge
C1    C     C_R   0.495735 0.260366 0.501049 0.973168
C2    C     C_R   0.503160 0.739635 0.499101 0.969749
C3    C     C_R   0.872579 0.498380 0.498812 -0.123469
C4    C     C_R   0.128061 0.502316 0.500436 -0.116408
C5    C     C_R   0.933064 0.441531 0.607472 0.026042
C6    C     C_R   0.067657 0.558738 0.391931 0.037502
C7    C     C_R   0.588027 0.071963 0.428055 -0.320887
C8    C     C_R   0.409325 0.927891 0.571403 -0.327708
C9    C     C_R   0.594123 0.941922 0.425078 0.523540
C10   C     C_R   0.404744 0.058077 0.576774 0.566242
C11   C     C_R   0.503058 0.872447 0.498101 -0.172999
C12   C     C_R   0.495202 0.127523 0.502515 -0.136827
C13   C     C_R   0.564186 0.590308 0.069669 0.139213
C14   C     C_R   0.434306 0.410139 0.931746 0.129034
C15   C     C_R   0.564741 0.590540 0.926733 0.088242
C16   C     C_R   0.436758 0.408701 0.074020 0.118303
C17   C     C_R   0.260527 0.501085 0.500532 0.936405
C18   C     C_R   0.739688 0.499533 0.499231 0.918895
C19   C     C_R   0.228852 0.803655 0.162208 0.495180
C20   C     C_R   0.738708 0.194082 0.802297 0.532324
C21   C     C_R   0.177688 0.744707 0.278995 0.468849
C22   C     C_R   0.807562 0.256123 0.698119 0.481820
C23   C     C_R   0.133339 0.619447 0.274160 0.031182
C24   C     C_R   0.864689 0.374053 0.719355 -0.024425
C25   C     C_R   0.138829 0.554913 0.152578 -0.209205
C26   C     C_R   0.857168 0.428400 0.846221 -0.243178
C27   C     C_R   0.188291 0.613997 0.036916 -0.231823
C28   C     C_R   0.793572 0.365817 0.951362 -0.203446
C29   C     C_R   0.231471 0.738170 0.040860 -0.300650
C30   C     C_R   0.735061 0.249679 0.930761 -0.321225
C31   C     C_R   0.940289 0.557035 0.391798 -0.000770
C32   C     C_R   0.061219 0.442128 0.606460 0.040704
H1    H     H_    0.266588 0.783597 0.949346 0.157194
H2    H     H_    0.687511 0.204885 0.015947 0.146852
H3    H     H_    0.103023 0.459255 0.147249 0.158209
H4    H     H_    0.900759 0.519300 0.863472 0.163434
H5    H     H_    0.191854 0.564123 0.943479 0.170802
H6    H     H_    0.788840 0.407724 0.049301 0.166187
H7    H     H_    0.656179 0.131957 0.375814 0.190119
H8    H     H_    0.340142 0.867838 0.621982 0.177711
N1    N     N_R   0.499970 0.499970 0.857200 -0.130340
N2    N     N_R   0.500030 0.500030 0.142800 -0.120751
O1    O     O_R   0.499990 0.316750 0.614620 -0.597794
O2    O     O_R   0.500010 0.683250 0.385380 -0.583861
O3    O     O_R   0.499990 0.316780 0.385290 -0.665618
O4    O     O_R   0.500010 0.683220 0.614710 -0.659934
O5    O     O_R   0.316760 0.500000 0.614660 -0.624419
O6    O     O_R   0.683240 0.500000 0.385340 -0.616172
O7    O     O_R   0.316760 0.500020 0.385330 -0.650278
O8    O     O_R   0.683240 0.499980 0.614670 -0.637606
Zn1   Zn    Zn3+2 0.500000 0.499980 0.653120 0.946973
Zn2   Zn    Zn3+2 0.500000 0.500020 0.346880 0.952110
N3    N     N_3   0.633071 0.689624 0.858244 -0.483169
H9    H     H_    0.687803 0.653958 0.782065 0.244057
H10   H     H_    0.570958 0.752772 0.820273 0.208583
N4    N     N_3   0.373250 0.306916 0.143214 -0.457187
H11   H     H_    0.319899 0.339930 0.222081 0.238361
H12   H     H_    0.438783 0.245432 0.177352 0.203981
O9    O     O_3   0.267594 0.928136 0.166184 -0.603317
C33   C     C_3   0.396380 0.936015 0.146084 -0.322007
H13   H     H_    0.443303 0.875706 0.219539 0.195858
H14   H     H_    0.429272 0.033496 0.162260 0.183694
H15   H     H_    0.422653 0.911184 0.041958 0.131056
O10   O     O_3   0.681979 0.079158 0.771911 -0.600578
C34   C     C_3   0.588343 0.040325 0.864574 -0.355050
H16   H     H_    0.523077 0.116145 0.885483 0.202122
H17   H     H_    0.629162 0.003443 0.957961 0.149466
H18   H     H_    0.534088 0.962590 0.820172 0.184483
O11   O     O_3   0.179947 0.805736 0.400146 -0.620304
C35   C     C_3   0.077465 0.883067 0.408426 -0.314370
H19   H     H_    0.078137 0.928223 0.507542 0.181478
H20   H     H_    0.989012 0.828129 0.402225 0.174156
H21   H     H_    0.082283 0.958650 0.330217 0.199103
O12   O     O_3   0.813213 0.206081 0.571184 -0.627551
C36   C     C_3   0.893636 0.104788 0.570595 -0.301258
H22   H     H_    0.839331 0.015001 0.579499 0.229169
H23   H     H_    0.964593 0.107907 0.650243 0.125649
H24   H     H_    0.944083 0.106701 0.472835 0.171832
N5    N     N_3   0.882210 0.619574 0.282561 -0.479058
H25   H     H_    0.819111 0.682192 0.320727 0.246452
H26   H     H_    0.839586 0.552342 0.222590 0.210275
N6    N     N_3   0.124187 0.374284 0.708483 -0.448059
H27   H     H_    0.103142 0.411686 0.801949 0.171857
H28   H     H_    0.093428 0.280721 0.707938 0.196735
O13   O     O_3   0.688616 0.878000 0.361225 -0.627757
C37   C     C_3   0.750895 0.948853 0.258259 -0.403505
H29   H     H_    0.815516 0.019513 0.301099 0.185812
H30   H     H_    0.685254 0.993304 0.189059 0.152394
H31   H     H_    0.807736 0.885420 0.197819 0.196842
O14   O     O_3   0.311320 0.121874 0.642784 -0.624421
C38   C     C_3   0.251109 0.050635 0.747023 -0.334151
H32   H     H_    0.317616 0.005432 0.814525 0.163198
H33   H     H_    0.184989 0.980570 0.705574 0.165746
H34   H     H_    0.196325 0.113779 0.809833 0.189667
N7    N     N_3   0.631501 0.685996 0.138038 -0.374706
H35   H     H_    0.722204 0.687376 0.100873 0.173566
H36   H     H_    0.595476 0.771666 0.109893 0.177491
N8    N     N_3   0.364201 0.312770 0.868202 -0.420283
H37   H     H_    0.276778 0.306669 0.914331 0.169455
H38   H     H_    0.346088 0.340757 0.771270 0.288008

loop_
_geom_bond_atom_site_label_1
_geom_bond_atom_site_label_2
_ccdc_geom_bond_type
C27   C29   A    
N7    H35   S    
O1    Zn1   S    
C20   C30   A    
N3    H9    S    
C2    O4    A    
C13   N7    S    
C33   H15   S    
C15   N3    S    
C19   C21   A    
C24   C26   A    
C37   H30   S    
N8    H37   S    
C29   H1    S    
N4    H11   S    
C3    C18   S    
C33   H14   S    
N6    H28   S    
C9    O13   S    
C1    O1    A    
C2    O2    A    
C34   H17   S    
C35   H19   S    
C5    C32   A    
O2    Zn2   S    
C6    C31   A    
O9    C33   S    
C1    C12   S    
C2    C11   S    
C13   N2    A    
C14   N8    S    
N3    H10   S    
C7    C12   A    
O12   C36   S    
C30   H2    S    
C15   N1    A    
C4    C6    A    
C17   O7    A    
C38   H32   S    
N5    H26   S    
C37   H29   S    
O5    Zn1   S    
O3    Zn2   S    
C19   O9    S    
O13   C37   S    
O4    Zn1   S    
C21   O11   S    
C33   H13   S    
C20   O10   S    
C36   H22   S    
C16   N4    S    
C38   H33   S    
C9    C11   A    
C28   H6    S    
C34   H18   S    
C35   H21   S    
O8    Zn1   S    
C3    C31   A    
C36   H23   S    
C4    C32   A    
C10   C12   A    
C25   H3    S    
C14   N1    A    
C4    C17   S    
C26   H4    S    
C20   C22   A    
C34   H16   S    
N8    H38   S    
C13   C15   A    
C14   C16   A    
C22   O12   S    
C19   C29   A    
C16   N2    A    
C18   O8    A    
C7    C9    A    
C17   O5    A    
O7    Zn2   S    
C3    C5    A    
C37   H31   S    
C18   O6    A    
N7    H36   S    
C31   N5    S    
C25   C27   A    
C32   N6    S    
C26   C28   A    
O10   C34   S    
C21   C23   A    
C38   H34   S    
C1    O3    A    
O14   C38   S    
C5    C24   S    
C27   H5    S    
C8    C11   A    
C6    C23   S    
C28   C30   A    
N4    H12   S    
C22   C24   A    
C23   C25   A    
O11   C35   S    
C36   H24   S    
N5    H25   S    
O6    Zn2   S    
C10   O14   S    
C8    C10   A    
N6    H27   S    
C7    H7    S    
C35   H20   S    
C8    H8    S    
N1    Zn1   S    
N2    Zn2   S    
