data_mof_unit_39390.cif
_audit_creation_date              2012-12-10T17:08:36-0500
_audit_creation_method            fapswitch 2.2
_symmetry_space_group_name_H-M    P1
_symmetry_Int_Tables_number       1
_space_group_crystal_system       triclinic
_cell_length_a                    15.723474
_cell_length_b                    10.654441
_cell_length_c                    10.034499
_cell_angle_alpha                 90.407576
_cell_angle_beta                  89.778504
_cell_angle_gamma                 89.964856
_cell_volume                      1680.97226143

loop_
_atom_site_label
_atom_site_type_symbol
_atom_type_description
_atom_site_fract_x
_atom_site_fract_y
_atom_site_fract_z
_atom_type_partial_charge
C1    C     C_R   0.499688 0.262507 0.499321 0.954987
C2    C     C_2   0.523636 0.868776 0.502387 -0.446954
C3    C     C_2   0.547299 0.070220 0.406329 -0.289953
C4    C     C_R   0.338407 0.499915 0.500327 0.902690
C5    C     C_2   0.498579 0.130001 0.495668 -0.395276
C6    C     C_2   0.551712 0.436109 0.926427 -0.152213
C7    C     C_2   0.541640 0.421294 0.074530 -0.141765
C8    C     C_R   0.505969 0.737403 0.500265 0.956890
C9    C     C_R   0.661631 0.499774 0.499735 0.899212
C10   C     C_3   0.049800 0.369973 0.468733 -0.446519
C11   C     C_3   0.050420 0.592901 0.384477 -0.166167
C12   C     C_3   0.951677 0.368746 0.471143 -0.396687
C13   C     C_3   0.950882 0.597065 0.387484 -0.164053
C14   C     C_1   0.750481 0.500453 0.499137 -0.179169
C15   C     C_3   0.082894 0.504631 0.497829 0.301866
C16   C     C_3   0.527142 0.935267 0.158757 0.099529
C17   C     C_3   0.429674 0.928107 0.152171 -0.356080
C18   C     C_3   0.396192 0.994719 0.028790 -0.996115
C19   C     C_R   0.416036 0.525229 0.896173 0.284703
C20   C     C_R   0.383920 0.647952 0.891491 -0.164313
C21   C     C_R   0.298851 0.671964 0.924008 -0.168010
C22   C     C_R   0.244906 0.573213 0.958981 -0.126558
C23   C     C_3   0.917318 0.503412 0.495407 0.303870
C24   C     C_R   0.275988 0.450356 0.961939 -0.157631
C25   C     C_R   0.361026 0.425994 0.929623 -0.130188
C26   C     C_R   0.091861 0.723199 0.383695 0.135604
C27   C     C_R   0.154943 0.749590 0.287700 -0.149314
C28   C     C_R   0.194963 0.866568 0.284879 -0.140238
C29   C     C_R   0.172769 0.959242 0.377589 -0.118333
C30   C     C_R   0.110397 0.935003 0.473316 -0.143684
C31   C     C_R   0.070192 0.818001 0.476780 -0.154244
C32   C     C_R   0.910263 0.580475 0.249628 0.132430
C33   C     C_R   0.847676 0.666536 0.208208 -0.139174
C34   C     C_3   0.949915 0.548222 0.633693 -0.444591
C35   C     C_R   0.808360 0.653321 0.084172 -0.106783
C36   C     C_R   0.831132 0.554639 0.999105 -0.124988
C37   C     C_R   0.893165 0.468825 0.038068 -0.153358
C38   C     C_R   0.932378 0.481099 0.162334 -0.155635
C39   C     C_3   0.048033 0.545398 0.636212 -0.389430
C40   C     C_1   0.825785 0.501525 0.497916 -0.107324
C41   C     C_1   0.174358 0.501986 0.500424 -0.102010
C42   C     C_1   0.249624 0.500657 0.500940 -0.167066
C43   C     C_2   0.541251 0.934220 0.391704 0.542720
H1    H     H_    0.926288 0.327699 0.377527 0.171540
H2    H     H_    0.073132 0.336087 0.369989 0.161738
H3    H     H_    0.485609 0.585999 0.105683 0.184854
H4    H     H_    0.070715 0.546579 0.290051 0.119062
H5    H     H_    0.930912 0.691490 0.423392 0.119591
H6    H     H_    0.069234 0.477489 0.713179 0.173759
H7    H     H_    0.073816 0.637913 0.667301 0.171722
H8    H     H_    0.924675 0.486493 0.713719 0.176903
H9    H     H_    0.553111 0.886631 0.069118 0.152238
H10   H     H_    0.549859 0.033613 0.151547 0.122899
H11   H     H_    0.409617 0.828084 0.149272 0.226633
H12   H     H_    0.074258 0.303306 0.544549 0.175151
H13   H     H_    0.401060 0.973120 0.241941 0.218139
H14   H     H_    0.413439 0.095798 0.032262 0.269668
H15   H     H_    0.325859 0.986817 0.025127 0.257054
H16   H     H_    0.423208 0.951595 0.936867 0.260057
H17   H     H_    0.424955 0.724670 0.862599 0.135268
H18   H     H_    0.274545 0.766946 0.920934 0.139146
H19   H     H_    0.178844 0.591705 0.982666 0.120786
H20   H     H_    0.233954 0.373841 0.987872 0.126674
H21   H     H_    0.383904 0.330118 0.929117 0.120788
H22   H     H_    0.174036 0.679063 0.215473 0.120393
H23   H     H_    0.929666 0.306156 0.552721 0.169992
H24   H     H_    0.243275 0.885160 0.210672 0.132171
H25   H     H_    0.203836 0.049846 0.375186 0.121533
H26   H     H_    0.093027 0.007115 0.544948 0.120677
H27   H     H_    0.021791 0.803151 0.551635 0.112975
H28   H     H_    0.828457 0.743628 0.272492 0.120317
H29   H     H_    0.760091 0.719719 0.054076 0.132297
H30   H     H_    0.800738 0.544688 0.902981 0.126879
H31   H     H_    0.910967 0.392523 0.971819 0.120384
H32   H     H_    0.980390 0.413194 0.188490 0.113050
H33   H     H_    0.926980 0.644949 0.656121 0.163704
H34   H     H_    0.522738 0.912729 0.600421 0.121482
H35   H     H_    0.589762 0.122253 0.341238 0.158964
H36   H     H_    0.454525 0.083188 0.562329 0.140253
H37   H     H_    0.605089 0.388835 0.879146 0.155662
H38   H     H_    0.572424 0.342289 0.121962 0.155331
N1    N     N_2   0.500900 0.501330 0.852150 -0.142253
N2    N     N_2   0.500920 0.501360 0.147810 -0.184219
O1    O     O_R   0.499990 0.319060 0.613040 -0.621131
O2    O     O_R   0.500010 0.319100 0.386900 -0.613902
O3    O     O_R   0.377130 0.499990 0.613120 -0.607333
O4    O     O_R   0.377160 0.500030 0.386980 -0.612205
O5    O     O_R   0.499990 0.680900 0.613100 -0.637063
O6    O     O_R   0.500010 0.680940 0.386960 -0.558604
O7    O     O_R   0.622840 0.499970 0.613020 -0.624199
O8    O     O_R   0.622870 0.500010 0.386880 -0.599675
O9    O     O_3   0.559572 0.872275 0.271688 -0.627621
Zn1   Zn    Zn3+2 0.499980 0.499970 0.650990 0.934658
Zn2   Zn    Zn3+2 0.500020 0.500030 0.349010 0.963139

loop_
_geom_bond_atom_site_label_1
_geom_bond_atom_site_label_2
_ccdc_geom_bond_type
C7    N2    D    
C37   H31   S    
C6    N1    D    
C41   C42   T    
C13   C32   S    
C11   H4    S    
C35   C36   A    
C9    O8    A    
C4    O4    A    
C1    O1    A    
C12   C23   S    
C3    C43   S    
C34   H8    S    
C29   C30   A    
C1    C5    S    
C28   C29   A    
C10   C15   S    
C30   C31   A    
C4    O3    A    
C23   C40   S    
O4    Zn2   S    
C13   C23   S    
O6    Zn2   S    
C16   H10   S    
C11   C15   S    
C18   H15   S    
C31   H27   S    
C19   C20   A    
C16   C17   S    
C32   C38   A    
C20   H17   S    
C19   N1    S    
C21   H18   S    
C26   C31   A    
N1    Zn1   S    
C21   C22   A    
C38   H32   S    
C1    O2    A    
C34   C39   S    
C28   H24   S    
C24   C25   A    
C15   C41   S    
C11   C26   S    
N2    Zn2   S    
C12   H23   S    
C8    O5    A    
C25   H21   S    
C9    C14   S    
C37   C38   A    
C27   H22   S    
O3    Zn1   S    
C22   H19   S    
C29   H25   S    
O2    Zn2   S    
C18   H14   S    
C6    H37   S    
C2    C43   D    
C23   C34   S    
C10   H2    S    
C17   C18   S    
C26   C27   A    
C10   H12   S    
C17   H13   S    
C15   C39   S    
C10   C12   S    
C7    H38   S    
C35   H29   S    
C16   O9    S    
C24   H20   S    
C22   C24   A    
C5    H36   S    
C30   H26   S    
O7    Zn1   S    
O5    Zn1   S    
C36   C37   A    
C39   H6    S    
C2    C8    S    
C16   H9    S    
C3    C5    D    
C9    O7    A    
C13   H5    S    
C6    C7    S    
C43   O9    S    
C32   C33   A    
C12   H1    S    
C2    H34   S    
O8    Zn2   S    
C11   C13   S    
C4    C42   S    
C33   C35   A    
O1    Zn1   S    
C19   C25   A    
C36   H30   S    
C33   H28   S    
C14   C40   T    
H3    N2    S    
C18   H16   S    
C39   H7    S    
C20   C21   A    
C27   C28   A    
C8    O6    A    
C3    H35   S    
C17   H11   S    
C34   H33   S    
