data_mof_unit_29898.cif
_audit_creation_date              2012-12-10T19:42:31-0500
_audit_creation_method            fapswitch 2.2
_symmetry_space_group_name_H-M    P1
_symmetry_Int_Tables_number       1
_space_group_crystal_system       triclinic
_cell_length_a                    10.903263
_cell_length_b                    10.901919
_cell_length_c                    9.80821
_cell_angle_alpha                 98.586123
_cell_angle_beta                  98.770304
_cell_angle_gamma                 93.202619
_cell_volume                      1135.62790641

loop_
_atom_site_label
_atom_site_type_symbol
_atom_type_description
_atom_site_fract_x
_atom_site_fract_y
_atom_site_fract_z
_atom_type_partial_charge
C1    C     C_R   0.501156 0.262037 0.499431 0.809537
C2    C     C_R   0.498844 0.737963 0.500569 0.809537
C3    C     C_R   0.872240 0.497845 0.503898 -0.082267
C4    C     C_R   0.127759 0.502155 0.496102 -0.082267
C5    C     C_R   0.959034 0.525851 0.630227 -0.003951
C6    C     C_R   0.040966 0.474150 0.369773 -0.003951
C7    C     C_R   0.308103 0.088750 0.018634 -0.144556
C8    C     C_R   0.691895 0.911249 0.981367 -0.144557
C9    C     C_R   0.333966 0.054662 0.150894 -0.199849
C10   C     C_R   0.666033 0.945338 0.849106 -0.199849
C11   C     C_R   0.454384 0.078010 0.228741 0.121086
C12   C     C_R   0.545615 0.921990 0.771258 0.121089
C13   C     C_R   0.550468 0.134113 0.171064 0.271622
C14   C     C_R   0.449531 0.865888 0.828936 0.271618
C15   C     C_R   0.522329 0.169822 0.038453 -0.136882
C16   C     C_R   0.477670 0.830178 0.961547 -0.136880
C17   C     C_R   0.401559 0.147476 0.963170 -0.198694
C18   C     C_R   0.598439 0.852523 0.036830 -0.198694
C19   C     C_R   0.474243 0.915319 0.375714 -0.283434
C20   C     C_R   0.525756 0.084681 0.624286 -0.283434
C21   C     C_R   0.497360 0.872151 0.503459 -0.063877
C22   C     C_R   0.502640 0.127849 0.496541 -0.063877
C23   C     C_R   0.261989 0.500896 0.499217 0.799437
C24   C     C_R   0.738011 0.499105 0.500783 0.799437
C25   C     C_R   0.521797 0.958264 0.630168 0.025711
C26   C     C_R   0.478202 0.041736 0.369831 0.025711
C27   C     C_2   0.511128 0.510101 0.078891 -0.096772
C28   C     C_2   0.488872 0.489899 0.921108 -0.096771
C29   C     C_R   0.165372 0.512647 0.036610 -0.116017
C30   C     C_R   0.834628 0.487355 0.963391 -0.116018
C31   C     C_R   0.132004 0.540203 0.169270 -0.046946
C32   C     C_R   0.867996 0.459798 0.830730 -0.046946
C33   C     C_R   0.076013 0.446245 0.228739 0.132371
C34   C     C_R   0.923987 0.553756 0.771261 0.132371
C35   C     C_R   0.049100 0.326109 0.151176 -0.162777
C36   C     C_R   0.950900 0.673893 0.848823 -0.162777
C37   C     C_R   0.080322 0.299695 0.017476 -0.139660
C38   C     C_R   0.919679 0.700307 0.982524 -0.139660
C39   C     C_R   0.139994 0.392273 0.961000 -0.151311
C40   C     C_R   0.860006 0.607729 0.039000 -0.151311
C41   C     C_R   0.914686 0.471147 0.376204 -0.250610
C42   C     C_R   0.085314 0.528853 0.623796 -0.250610
Cu1   Cu    Cu3+1 0.521120 0.521140 0.639640 0.953114
Cu2   Cu    Cu3+1 0.478880 0.478860 0.360360 0.953114
H1    H     H_    0.165143 0.371030 0.858025 0.120191
H2    H     H_    0.834857 0.628971 0.141975 0.120191
H3    H     H_    0.593808 0.214867 0.993287 0.113501
H4    H     H_    0.406190 0.785133 0.006713 0.113501
H5    H     H_    0.453638 0.850159 0.278807 0.155805
H6    H     H_    0.546361 0.149840 0.721193 0.155805
H7    H     H_    0.416767 0.419948 0.865267 0.156548
H8    H     H_    0.583233 0.580052 0.134732 0.156548
H9    H     H_    0.621006 0.618247 0.904707 0.226796
H10   H     H_    0.378994 0.381753 0.095293 0.226796
H11   H     H_    0.210328 0.584715 0.992197 0.114060
H12   H     H_    0.789672 0.415287 0.007803 0.114060
H13   H     H_    0.151097 0.634006 0.226495 0.105119
H14   H     H_    0.848903 0.365995 0.773506 0.105120
H15   H     H_    0.003546 0.253290 0.194072 0.116039
H16   H     H_    0.996453 0.746711 0.805928 0.116039
H17   H     H_    0.057290 0.207664 0.957189 0.112974
H18   H     H_    0.942710 0.792337 0.042810 0.112974
H19   H     H_    0.849013 0.448639 0.279564 0.155654
H20   H     H_    0.150987 0.551361 0.720436 0.155655
H21   H     H_    0.380299 0.174999 0.861244 0.128226
H22   H     H_    0.619699 0.825001 0.138755 0.128226
H23   H     H_    0.215633 0.068600 0.958482 0.121077
H24   H     H_    0.784365 0.931400 0.041519 0.121077
H25   H     H_    0.260050 0.010068 0.192946 0.126260
H26   H     H_    0.739949 0.989932 0.807055 0.126260
N1    N     N_2   0.447120 0.447110 0.150550 -0.278314
N2    N     N_2   0.552880 0.552890 0.849450 -0.278314
O1    O     O_R   0.517830 0.337490 0.617920 -0.596938
O2    O     O_R   0.482170 0.662510 0.382080 -0.596938
O3    O     O_R   0.482150 0.301790 0.382070 -0.555609
O4    O     O_R   0.517850 0.698210 0.617930 -0.555609
O5    O     O_R   0.337480 0.517860 0.617920 -0.580792
O6    O     O_R   0.662520 0.482140 0.382080 -0.580792
O7    O     O_R   0.301810 0.482160 0.382070 -0.573538
O8    O     O_R   0.698190 0.517840 0.617930 -0.573538
N3    N     N_3   0.674393 0.157645 0.249319 -0.598628
H27   H     H_    0.733039 0.201836 0.193359 0.196269
H28   H     H_    0.709019 0.071679 0.260921 0.200030
N4    N     N_3   0.325606 0.842356 0.750681 -0.598637
H29   H     H_    0.290980 0.928319 0.739077 0.200032
H30   H     H_    0.266962 0.798168 0.806640 0.196272

loop_
_geom_bond_atom_site_label_1
_geom_bond_atom_site_label_2
_ccdc_geom_bond_type
Cu1   O1    S    
C30   C32   A    
C5    C42   A    
Cu1   N2    S    
C14   N4    S    
C16   H4    S    
N3    H27   S    
C27   N1    D    
C40   H2    S    
C35   H15   S    
C19   C21   A    
N4    H30   S    
C20   C22   A    
C28   H7    S    
C20   C25   A    
C13   N3    S    
Cu2   N1    S    
C7    C9    A    
C19   C26   A    
C20   H6    S    
C24   O8    A    
H10   N1    S    
C7    C17   A    
C6    C41   A    
C31   C33   A    
C32   H14   S    
C2    O2    A    
C39   H1    S    
C1    C22   S    
C3    C24   S    
C28   N2    D    
N3    H28   S    
C37   C39   A    
C1    O3    A    
N4    H29   S    
C4    C6    A    
C4    C23   S    
C15   H3    S    
C29   H11   S    
C11   C26   S    
C36   H16   S    
Cu1   O8    S    
C30   H12   S    
C8    C18   A    
C32   C34   A    
Cu2   O3    S    
Cu1   Cu2   S    
C19   H5    S    
C5    C34   S    
C29   C39   A    
C2    C21   S    
C30   C40   A    
C23   O5    A    
Cu2   O2    S    
C9    C11   A    
C10   C12   A    
C10   H26   S    
C8    C10   A    
C12   C14   A    
C8    H24   S    
C13   C15   A    
C14   C16   A    
C18   H22   S    
C41   H19   S    
C42   H20   S    
C2    O4    A    
C27   H8    S    
C24   O6    A    
Cu1   O4    S    
C15   C17   A    
C21   C25   A    
C3    C41   A    
C35   C37   A    
Cu2   O7    S    
C9    H25   S    
C3    C5    A    
C37   H17   S    
Cu1   O5    S    
C17   H21   S    
C6    C33   S    
C12   C25   S    
C1    O1    A    
C31   H13   S    
Cu2   O6    S    
C29   C31   A    
C38   C40   A    
C11   C13   A    
C4    C42   A    
C36   C38   A    
C33   C35   A    
C34   C36   A    
C7    H23   S    
C16   C18   A    
C22   C26   A    
C27   C28   S    
C23   O7    A    
H9    N2    S    
C38   H18   S    
