data_mof_unit_33061.cif
_audit_creation_date              2012-12-10T18:58:46-0500
_audit_creation_method            fapswitch 2.2
_symmetry_space_group_name_H-M    P1
_symmetry_Int_Tables_number       1
_space_group_crystal_system       triclinic
_cell_length_a                    12.993546
_cell_length_b                    10.929901
_cell_length_c                    9.669965
_cell_angle_alpha                 90.512607
_cell_angle_beta                  95.790115
_cell_angle_gamma                 90.359147
_cell_volume                      1366.21411997

loop_
_atom_site_label
_atom_site_type_symbol
_atom_type_description
_atom_site_fract_x
_atom_site_fract_y
_atom_site_fract_z
_atom_type_partial_charge
C1    C     C_R   0.496805 0.263383 0.498957 0.845032
C2    C     C_R   0.027051 0.465554 0.561701 -0.074992
C3    C     C_R   0.973014 0.522558 0.446095 -0.000791
C4    C     C_R   0.866687 0.534678 0.439522 -0.323602
C5    C     C_R   0.864666 0.429612 0.658512 0.509124
C6    C     C_R   0.972286 0.419490 0.668227 0.562684
C7    C     C_R   0.484250 0.064458 0.615584 -0.059896
C8    C     C_R   0.487339 0.131435 0.495441 -0.113888
C9    C     C_R   0.479662 0.065569 0.369141 -0.321209
C10   C     C_R   0.476195 0.936565 0.368097 0.465715
C11   C     C_R   0.487618 0.870967 0.495071 -0.190832
C12   C     C_R   0.300789 0.500035 0.474187 0.816503
C13   C     C_R   0.485796 0.940660 0.615464 -0.308632
C14   C     C_3   0.503006 0.935326 0.772275 0.770586
C15   C     C_3   0.498183 0.077822 0.769528 0.855795
C16   C     C_R   0.590239 0.505561 0.084545 0.077750
C17   C     C_R   0.412281 0.477661 0.061404 0.525794
C18   C     C_R   0.411743 0.480845 0.914766 0.564477
C19   C     C_R   0.590230 0.503537 0.938574 0.152771
C20   C     C_3   0.672979 0.597701 0.941680 -0.489814
C21   C     C_3   0.674728 0.599733 0.099279 0.279014
C22   C     C_R   0.497072 0.737383 0.499326 0.770106
C23   C     C_R   0.698976 0.496419 0.526421 0.857135
C24   C     C_R   0.811629 0.487532 0.543192 -0.253749
C25   C     C_R   0.187702 0.502756 0.460361 -0.204580
C26   C     C_R   0.025596 0.566147 0.337539 -0.203852
C27   C     C_R   0.132148 0.555344 0.343712 0.643125
C28   C     C_R   0.134466 0.456260 0.567960 -0.206710
Cu1   Cu    Cu3+1 0.499990 0.499980 0.640670 1.047990
Cu2   Cu    Cu3+1 0.500010 0.500020 0.359330 1.029907
H1    H     H_    0.826734 0.581731 0.353721 0.165416
H2    H     H_    0.745395 0.561504 0.905535 0.215465
H3    H     H_    0.644089 0.682413 0.890529 0.262442
H4    H     H_    0.747048 0.561443 0.151667 0.071445
H5    H     H_    0.984180 0.608826 0.247810 0.153475
H6    H     H_    0.176590 0.412301 0.655907 0.275933
H7    H     H_    0.477502 0.112905 0.271203 0.166807
N1    N     N_R   0.500660 0.500930 0.148010 -0.266046
N2    N     N_R   0.500660 0.500890 0.852110 -0.257287
O1    O     O_R   0.500000 0.319640 0.618810 -0.510013
O2    O     O_R   0.500010 0.319680 0.381230 -0.603232
O3    O     O_R   0.348990 0.499960 0.599490 -0.538361
O4    O     O_R   0.349000 0.500000 0.361910 -0.490192
O5    O     O_R   0.499990 0.680320 0.618770 -0.599063
O6    O     O_R   0.500000 0.680360 0.381190 -0.506874
O7    O     O_R   0.651000 0.500000 0.638090 -0.534503
O8    O     O_R   0.651010 0.500040 0.400510 -0.589867
O9    O     O_3   0.601893 0.893257 0.831272 -0.583802
C29   C     C_3   0.682534 0.901287 0.742310 0.054341
H8    H     H_    0.681770 0.988860 0.684807 0.189375
H9    H     H_    0.676253 0.823958 0.666607 0.137648
C30   C     C_3   0.787341 0.893925 0.827165 -0.738588
H10   H     H_    0.799422 0.801115 0.870576 0.216308
H11   H     H_    0.849600 0.912553 0.759335 0.210165
H12   H     H_    0.792699 0.962832 0.912678 0.277357
O10   O     O_3   0.408393 0.129192 0.816927 -0.595707
C31   C     C_3   0.423940 0.152748 0.961055 0.100074
H13   H     H_    0.476852 0.232452 0.982624 0.166824
H14   H     H_    0.457485 0.072464 0.018941 0.166591
C32   C     C_3   0.320175 0.182996 0.012995 -0.696008
H15   H     H_    0.265953 0.104622 0.995655 0.224196
H16   H     H_    0.330803 0.205501 0.125704 0.218199
H17   H     H_    0.284510 0.261661 0.955337 0.329367
F1    F     F_    0.589650 0.138982 0.815379 -0.677303
F2    F     F_    0.321858 0.452812 0.113371 -0.592880
F3    F     F_    0.320005 0.463023 0.838765 -0.636191
O11   O     O_3   0.642701 0.713499 0.150811 -0.493269
C33   C     C_3   0.730750 0.789287 0.184089 0.105260
H18   H     H_    0.788823 0.779766 0.107560 0.118718
H19   H     H_    0.768294 0.766051 0.288556 0.114150
C34   C     C_3   0.699385 0.923072 0.187601 -0.655241
H20   H     H_    0.666383 0.943851 0.286217 0.223867
H21   H     H_    0.768550 0.982511 0.182935 0.182391
H22   H     H_    0.641993 0.944288 0.098329 0.302787
F4    F     F_    0.812508 0.379396 0.759034 -0.613540
F5    F     F_    0.022415 0.363344 0.780072 -0.608631
F6    F     F_    0.180151 0.599385 0.236828 -0.651513
O12   O     O_3   0.464972 0.875963 0.242218 -0.538871
C35   C     C_3   0.358836 0.870803 0.193904 0.028550
H23   H     H_    0.339735 0.948080 0.123575 0.159251
H24   H     H_    0.305772 0.872861 0.278125 0.126986
C36   C     C_3   0.338369 0.752811 0.113599 -0.538970
H25   H     H_    0.344499 0.677100 0.188234 0.303851
H26   H     H_    0.259852 0.752821 0.056538 0.217384
H27   H     H_    0.397857 0.738905 0.040789 0.248504
O13   O     O_3   0.422426 0.885460 0.846004 -0.596925
C37   C     C_3   0.336810 0.828228 0.766386 0.079441
H28   H     H_    0.322039 0.738726 0.813924 0.189177
H29   H     H_    0.346257 0.805612 0.657399 0.142791
C38   C     C_3   0.240105 0.905415 0.769648 -0.785920
H30   H     H_    0.250698 0.994814 0.719356 0.279894
H31   H     H_    0.173218 0.857142 0.712245 0.209475
H32   H     H_    0.222923 0.920253 0.878490 0.243926

loop_
_geom_bond_atom_site_label_1
_geom_bond_atom_site_label_2
_ccdc_geom_bond_type
C37   H28   S    
C16   C21   S    
Cu1   O3    S    
C1    C8    S    
Cu2   O6    S    
C19   C20   S    
C10   O12   S    
C7    C8    A    
C25   C28   A    
C26   C27   A    
C32   H17   S    
C12   O4    A    
C16   C19   A    
C5    C6    A    
C4    C24   A    
C31   H14   S    
O10   C31   S    
Cu2   N1    S    
C32   H16   S    
C12   O3    A    
C1    O1    A    
C22   O5    A    
C8    C9    A    
C29   H9    S    
C23   C24   S    
Cu2   O2    S    
C9    C10   A    
C30   H12   S    
C7    C15   S    
C23   O7    A    
C13   C14   S    
C21   O11   S    
C2    C6    A    
C30   H11   S    
C31   H13   S    
C23   O8    A    
O11   C33   S    
Cu2   O8    S    
C14   O13   S    
C35   H24   S    
O12   C35   S    
C33   H18   S    
C31   C32   S    
C14   O9    S    
C21   H4    S    
C32   H15   S    
C5    F4    S    
C18   N2    A    
Cu1   Cu2   S    
C34   H22   S    
C38   H31   S    
C15   F1    S    
C29   C30   S    
Cu1   N2    S    
C9    H7    S    
C17   C18   A    
C19   N2    A    
C20   H3    S    
C1    O2    A    
O9    C29   S    
C29   H8    S    
C36   H26   S    
C37   H29   S    
Cu1   O5    S    
Cu2   O4    S    
C18   F3    S    
C3    C4    A    
C30   H10   S    
C38   H32   S    
C34   H21   S    
C20   H2    S    
O13   C37   S    
C3    C26   A    
C27   F6    S    
C35   C36   S    
C6    F5    S    
C25   C27   A    
C36   H27   S    
C12   C25   S    
C11   C22   S    
C17   F2    S    
Cu1   O7    S    
C15   O10   S    
C2    C3    A    
C34   H20   S    
C11   C13   A    
C38   H30   S    
C5    C24   A    
C33   C34   S    
Cu1   O1    S    
C17   N1    A    
C4    H1    S    
C10   C11   A    
C35   H23   S    
C26   H5    S    
C7    C13   A    
C22   O6    A    
C20   C21   S    
C28   H6    S    
C33   H19   S    
C36   H25   S    
C37   C38   S    
C14   C15   S    
C2    C28   A    
C16   N1    A    
