data_mof_unit_44268.cif
_audit_creation_date              2012-12-10T18:35:46-0500
_audit_creation_method            fapswitch 2.2
_symmetry_space_group_name_H-M    P1
_symmetry_Int_Tables_number       1
_space_group_crystal_system       triclinic
_cell_length_a                    13.39159
_cell_length_b                    13.92901
_cell_length_c                    15.148219
_cell_angle_alpha                 89.64751
_cell_angle_beta                  92.310927
_cell_angle_gamma                 72.573009
_cell_volume                      2693.23853957

loop_
_atom_site_label
_atom_site_type_symbol
_atom_type_description
_atom_site_fract_x
_atom_site_fract_y
_atom_site_fract_z
_atom_type_partial_charge
C1    C     C_R   0.499171 0.499746 0.669645 0.885858
C2    C     C_R   0.982277 0.452149 0.489301 0.121308
C3    C     C_R   0.874442 0.471718 0.466402 0.039810
C4    C     C_R   0.032551 0.525390 0.469234 0.066919
C5    C     C_R   0.980164 0.609943 0.414385 0.050133
C6    C     C_R   0.878606 0.619321 0.380628 -0.080656
C7    C     C_R   0.826734 0.551412 0.406328 -0.105863
C8    C     C_R   0.133441 0.517087 0.503900 -0.181270
C9    C     C_R   0.134919 0.667660 0.425258 -0.205957
C10   C     C_R   0.818132 0.409824 0.502622 -0.227218
C11   C     C_R   0.565237 0.416030 0.905397 0.361818
C12   C     C_R   0.701162 0.445200 0.499909 0.842991
C13   C     C_R   0.566153 0.418655 0.813812 -0.177268
C14   C     C_R   0.496898 0.498239 0.765378 -0.155100
C15   C     C_R   0.422398 0.573414 0.808112 -0.228138
C16   C     C_R   0.416015 0.569423 0.899785 0.407327
C17   C     C_R   0.490456 0.491628 0.949365 -0.125855
C18   C     C_R   0.515329 0.574823 0.087956 -0.122966
C19   C     C_R   0.513608 0.583285 0.179667 0.330819
C20   C     C_R   0.500426 0.501999 0.231493 -0.174290
C21   C     C_R   0.486098 0.417770 0.187736 -0.172791
C22   C     C_R   0.481337 0.414438 0.096128 -0.026752
C23   C     C_R   0.500318 0.500767 0.329335 0.827736
C24   C     C_R   0.495881 0.493105 0.046148 0.114733
C25   C     C_R   0.410329 0.915760 0.458581 -0.224258
C26   C     C_R   0.416951 0.812355 0.459311 0.120190
C27   C     C_R   0.577468 0.773678 0.543800 0.575256
C28   C     C_R   0.575562 0.874722 0.537674 -0.251246
C29   C     C_R   0.491090 0.948580 0.498529 0.066263
C30   C     C_R   0.545147 0.093647 0.568751 -0.240729
C31   C     C_R   0.549091 0.193533 0.566758 0.114636
C32   C     C_R   0.439462 0.227264 0.437369 0.549411
C33   C     C_R   0.436516 0.127280 0.435763 -0.257386
C34   C     C_R   0.299866 0.553934 0.496371 0.819883
C35   C     C_R   0.490451 0.057598 0.501082 0.076507
C36   C     C_R   0.031725 0.681841 0.393748 0.392108
C37   C     C_R   0.186393 0.583926 0.478811 -0.099984
C38   C     C_R   0.876290 0.317828 0.547001 0.409538
C39   C     C_R   0.984982 0.292611 0.555888 -0.187940
C40   C     C_R   0.037068 0.358852 0.529503 -0.227649
Cu1   Cu    Cu3+1 0.500000 0.403570 0.500010 1.053145
Cu2   Cu    Cu3+1 0.500000 0.596430 0.499990 1.061039
H1    H     H_    0.176162 0.719609 0.404907 0.178845
H2    H     H_    0.623067 0.359866 0.780649 0.228092
H3    H     H_    0.367294 0.633408 0.769519 0.191940
H4    H     H_    0.528164 0.634024 0.047572 0.207538
H5    H     H_    0.476368 0.354412 0.224140 0.224215
H6    H     H_    0.466562 0.350376 0.064136 0.181865
H7    H     H_    0.341558 0.969145 0.427805 0.159551
H8    H     H_    0.353594 0.789616 0.428632 0.167261
H9    H     H_    0.837403 0.680194 0.335626 0.221786
H10   H     H_    0.641456 0.895811 0.565525 0.198109
H11   H     H_    0.583676 0.045973 0.624333 0.178813
H12   H     H_    0.589532 0.219187 0.620227 0.200851
H13   H     H_    0.391133 0.105079 0.383410 0.185647
H14   H     H_    0.173940 0.458093 0.550509 0.154578
H15   H     H_    0.121214 0.333139 0.538877 0.167171
H16   H     H_    0.030863 0.221983 0.586532 0.188008
H17   H     H_    0.749286 0.561154 0.377684 0.184994
N1    N     N_R   0.500000 0.741310 0.499980 -0.236413
N2    N     N_R   0.500060 0.258650 0.499980 -0.214671
O1    O     O_R   0.499990 0.418570 0.628550 -0.597238
O2    O     O_R   0.499990 0.581440 0.628540 -0.525136
O3    O     O_R   0.650980 0.378820 0.499990 -0.515494
O4    O     O_R   0.650980 0.541690 0.499970 -0.534288
O5    O     O_R   0.500010 0.418560 0.371460 -0.549914
O6    O     O_R   0.500010 0.581430 0.371450 -0.523003
O7    O     O_R   0.349020 0.458310 0.500030 -0.551024
O8    O     O_R   0.349020 0.621180 0.500010 -0.615116
S1    S     S_3+6 0.312431 0.661262 0.948945 0.035791
O9    O     O_2   0.349466 0.749462 0.974399 -0.260074
O10   O     O_2   0.220456 0.696609 0.884023 -0.229942
O11   O     O_3   0.274439 0.613198 0.039346 -0.519409
H18   H     H_    0.234049 0.672385 0.072302 0.387379
S2    S     S_3+6 0.517599 0.701036 0.221771 0.052070
O12   O     O_2   0.604871 0.686709 0.290610 -0.274046
O13   O     O_2   0.534018 0.768480 0.149459 -0.220121
O14   O     O_3   0.402636 0.757768 0.266672 -0.523427
H19   H     H_    0.348997 0.761231 0.218792 0.357545
S3    S     S_3+6 0.685110 0.700771 0.613842 0.047813
O15   O     O_2   0.782262 0.679411 0.562018 -0.304019
O16   O     O_2   0.697775 0.765781 0.689821 -0.261060
O17   O     O_3   0.678843 0.592518 0.658535 -0.502916
H20   H     H_    0.750251 0.558792 0.683860 0.374633
Cl1   Cl    Cl    0.353938 0.310800 0.360944 -0.605695
Cl2   Cl    Cl    0.971944 0.788750 0.326174 -0.534396
S4    S     S_3+6 0.819687 0.231777 0.595630 0.025775
O18   O     O_2   0.738194 0.287179 0.657388 -0.300964
O19   O     O_2   0.769906 0.184222 0.524496 -0.288838
O20   O     O_3   0.909920 0.140494 0.653837 -0.474970
H21   H     H_    0.941325 0.088718 0.610154 0.362253
Cl3   Cl    Cl    0.662851 0.319433 0.962575 -0.514461

loop_
_geom_bond_atom_site_label_1
_geom_bond_atom_site_label_2
_ccdc_geom_bond_type
C33   H13   S    
C22   H6    S    
S4    O18   D    
C34   C37   S    
C11   C13   A    
Cu1   Cu2   S    
C31   N2    A    
C19   C20   A    
Cu1   N2    S    
C4    C8    A    
C1    O1    A    
C8    H14   S    
C30   C35   A    
C18   C24   A    
C5    C6    A    
C23   O5    A    
C28   C29   A    
C32   N2    A    
C3    C7    A    
C27   N1    A    
C26   H8    S    
C38   C39   A    
C12   O3    A    
C15   C16   A    
C5    C36   A    
C1    O2    A    
C18   C19   A    
O11   H18   S    
C23   O6    A    
C11   Cl3   S    
C16   C17   A    
C9    C36   A    
S1    O9    D    
C6    H9    S    
C13   C14   A    
Cu1   O1    S    
S3    O17   S    
C18   H4    S    
C7    H17   S    
Cu1   O7    S    
C25   C29   A    
C30   H11   S    
C9    H1    S    
C17   C24   S    
C16   S1    S    
S3    O16   D    
C27   S3    S    
Cu2   N1    S    
C39   C40   A    
O14   H19   S    
C4    C5    A    
C36   Cl2   S    
C25   C26   A    
C39   H16   S    
Cu2   O8    S    
C2    C4    A    
S2    O12   D    
Cu2   O4    S    
O17   H20   S    
C20   C23   S    
S1    O11   S    
C9    C37   A    
S2    O13   D    
C34   O8    A    
C6    C7    A    
C10   C12   S    
S4    O19   D    
Cu2   O6    S    
C22   C24   A    
C8    C37   A    
C15   H3    S    
C34   O7    A    
C11   C17   A    
C40   H15   S    
S3    O15   D    
Cu1   O5    S    
C12   O4    A    
C29   C35   S    
C38   S4    S    
C10   C38   A    
C32   C33   A    
C19   S2    S    
C2    C3    A    
C3    C10   A    
C28   H10   S    
O20   H21   S    
C30   C31   A    
C32   Cl1   S    
C33   C35   A    
C31   H12   S    
S2    O14   S    
C25   H7    S    
C2    C40   A    
C20   C21   A    
S4    O20   S    
C27   C28   A    
C14   C15   A    
S1    O10   D    
C1    C14   S    
Cu1   O3    S    
C21   C22   A    
C26   N1    A    
Cu2   O2    S    
C13   H2    S    
C21   H5    S    
