data_mof_unit_17431.cif
_audit_creation_date              2012-12-11T15:50:29-0500
_audit_creation_method            fapswitch 2.2
_symmetry_space_group_name_H-M    P1
_symmetry_Int_Tables_number       1
_space_group_crystal_system       triclinic
_cell_length_a                    19.030368
_cell_length_b                    11.159973
_cell_length_c                    18.684363
_cell_angle_alpha                 90.260688
_cell_angle_beta                  90.574491
_cell_angle_gamma                 89.820958
_cell_volume                      3967.89563542

loop_
_atom_site_label
_atom_site_type_symbol
_atom_type_description
_atom_site_fract_x
_atom_site_fract_y
_atom_site_fract_z
_atom_type_partial_charge
C1    C     C_R   0.271328 0.044091 0.852789 0.540789
C2    C     C_R   0.727443 0.040907 0.146055 0.544220
C3    C     C_R   0.771322 0.544103 0.852780 0.549795
C4    C     C_R   0.227438 0.540896 0.146049 0.535260
C5    C     C_3   0.549774 0.760540 0.964967 -0.145152
C6    C     C_3   0.496987 0.719543 0.021856 -0.139070
C7    C     C_3   0.049751 0.260583 0.964984 -0.145337
C8    C     C_3   0.996973 0.219531 0.021866 -0.138942
C9    C     C_R   0.242366 0.571429 0.072192 0.014309
C10   C     C_R   0.744649 0.602355 0.917771 0.005339
C11   C     C_R   0.742376 0.071441 0.072195 0.012028
C12   C     C_R   0.244658 0.102359 0.917772 0.006903
C13   C     C_R   0.291807 0.506072 0.033430 0.014784
C14   C     C_R   0.690395 0.552752 0.957859 -0.002034
C15   C     C_R   0.791809 0.006071 0.033427 0.014024
C16   C     C_R   0.190378 0.052805 0.957843 -0.001565
C17   C     C_R   0.294541 0.512476 0.959248 0.011734
C18   C     C_R   0.681307 0.582950 0.029440 0.023266
C19   C     C_R   0.794537 0.012466 0.959243 0.011900
C20   C     C_R   0.181284 0.083007 0.029422 0.022818
C21   C     C_R   0.191206 0.636135 0.959916 -0.184420
C22   C     C_R   0.776593 0.721742 0.021887 -0.171903
C23   C     C_R   0.691218 0.136151 0.959918 -0.183838
C24   C     C_R   0.276614 0.221722 0.021895 -0.171945
C25   C     C_R   0.190532 0.633998 0.033779 -0.175884
C26   C     C_R   0.782498 0.697465 0.948797 -0.169824
C27   C     C_R   0.690547 0.134023 0.033782 -0.176488
C28   C     C_R   0.282531 0.197434 0.948810 -0.168988
C29   C     C_3   0.369653 0.506642 0.040910 -0.290642
C30   C     C_3   0.672575 0.425387 0.970396 -0.273045
C31   C     C_3   0.869657 0.006622 0.040896 -0.290336
C32   C     C_3   0.172508 0.925455 0.970363 -0.272942
C33   C     C_3   0.372864 0.505721 0.959552 -0.275161
C34   C     C_3   0.661738 0.457803 0.048404 -0.268564
C35   C     C_3   0.872859 0.005692 0.959536 -0.275057
C36   C     C_3   0.161663 0.957875 0.048369 -0.268493
C37   C     C_R   0.246929 0.585461 0.921605 0.016136
C38   C     C_R   0.728440 0.660203 0.064067 0.008165
C39   C     C_R   0.746928 0.085454 0.921601 0.016282
C40   C     C_R   0.228437 0.160217 0.064064 0.007607
C41   C     C_R   0.509540 0.822988 0.428328 0.018521
C42   C     C_R   0.502603 0.835341 0.578479 0.017503
C43   C     C_R   0.997289 0.336540 0.421624 0.016023
C44   C     C_R   0.990476 0.322242 0.571706 0.019313
C45   C     C_R   0.469802 0.822403 0.855011 0.543384
C46   C     C_R   0.533757 0.821079 0.143042 0.545900
C47   C     C_R   0.969784 0.322403 0.855022 0.548666
C48   C     C_R   0.033731 0.321080 0.143056 0.540899
C49   C     C_R   0.534876 0.730335 0.472241 0.022024
C50   C     C_R   0.529471 0.734249 0.546055 0.009714
C51   C     C_R   0.969111 0.236322 0.453085 0.009754
C52   C     C_R   0.963847 0.231490 0.526918 0.020345
C53   C     C_R   0.484010 0.933257 0.535857 -0.169340
C54   C     C_R   0.480652 0.923601 0.461024 -0.183385
C55   C     C_R   0.020275 0.422272 0.539960 -0.181477
C56   C     C_R   0.017075 0.432948 0.465209 -0.169379
C57   C     C_3   0.608681 0.686429 0.477100 -0.247254
C58   C     C_3   0.602567 0.689268 0.557072 -0.290305
C59   C     C_3   0.895355 0.195342 0.441862 -0.290734
C60   C     C_3   0.889462 0.191336 0.521818 -0.249016
C61   C     C_R   0.255929 0.607182 0.416099 -0.002370
C62   C     C_R   0.775875 0.520083 0.562652 -0.010486
C63   C     C_R   0.723896 0.019840 0.437086 -0.010916
C64   C     C_R   0.244303 0.106297 0.583723 -0.001685
C65   C     C_R   0.209127 0.679012 0.453561 -0.006343
C66   C     C_R   0.816238 0.606799 0.531051 0.003770
C67   C     C_R   0.683771 0.107407 0.468972 0.003765
C68   C     C_R   0.291066 0.177815 0.546597 -0.005107
C69   C     C_R   0.215535 0.694069 0.526223 0.018877
C70   C     C_R   0.807683 0.634915 0.460820 0.010854
C71   C     C_R   0.692475 0.135282 0.539265 0.012787
C72   C     C_R   0.284702 0.192839 0.473978 0.016779
C73   C     C_R   0.317347 0.562019 0.527180 0.000023
C74   C     C_R   0.725310 0.471958 0.444939 -0.038790
C75   C     C_R   0.775430 0.972138 0.554191 -0.039677
C76   C     C_R   0.182808 0.062156 0.472375 0.000156
C77   C     C_R   0.314615 0.560049 0.452016 -0.137621
C78   C     C_R   0.731150 0.448463 0.519194 -0.163620
C79   C     C_R   0.769140 0.948312 0.479951 -0.163676
C80   C     C_R   0.185724 0.059625 0.547541 -0.137944
C81   C     C_3   0.132333 0.656167 0.461143 -0.276751
C82   C     C_3   0.893351 0.600718 0.524594 -0.269387
C83   C     C_3   0.606656 0.102560 0.475590 -0.270317
C84   C     C_3   0.367888 0.154415 0.538895 -0.275977
C85   C     C_3   0.138545 0.686091 0.538739 -0.278390
C86   C     C_3   0.884856 0.638462 0.448231 -0.268823
C87   C     C_3   0.615367 0.140262 0.552110 -0.268459
C88   C     C_3   0.361599 0.183439 0.461302 -0.279255
C89   C     C_R   0.260393 0.636267 0.851317 0.541181
C90   C     C_R   0.725875 0.684032 0.141162 0.561530
C91   C     C_R   0.760389 0.136251 0.851310 0.537991
C92   C     C_R   0.225872 0.184038 0.141161 0.560708
C93   C     C_R   0.264463 0.627036 0.564337 0.032925
C94   C     C_R   0.760170 0.572770 0.418270 0.020379
C95   C     C_R   0.740110 0.072715 0.581445 0.021386
C96   C     C_R   0.235667 0.126779 0.435506 0.031294
C97   C     C_R   0.269937 0.048789 0.648231 0.547958
C98   C     C_R   0.710077 0.998475 0.361843 0.559860
C99   C     C_R   0.789673 0.498832 0.637985 0.556548
C100  C     C_R   0.230156 0.549295 0.351613 0.550383
C101  C     C_R   0.471288 0.823860 0.648393 0.548438
C102  C     C_R   0.531741 0.822352 0.353951 0.535628
C103  C     C_R   0.968255 0.321918 0.646062 0.534265
C104  C     C_R   0.028702 0.324339 0.351661 0.549875
C105  C     C_R   0.263043 0.644515 0.640696 0.543047
C106  C     C_R   0.742281 0.631766 0.352528 0.533825
C107  C     C_R   0.757812 0.131597 0.647389 0.527066
C108  C     C_R   0.236963 0.144850 0.359232 0.549591
C109  C     C_3   0.458108 0.904852 0.032249 0.020199
C110  C     C_3   0.510311 0.944902 0.974689 0.045626
C111  C     C_3   0.958046 0.404806 0.032277 0.020678
C112  C     C_3   0.010241 0.444916 0.974722 0.045437
C113  C     C_3   0.438055 0.794830 0.986270 -0.135066
C114  C     C_3   0.569256 0.870645 0.011435 -0.126165
C115  C     C_3   0.938023 0.294782 0.986283 -0.135690
C116  C     C_3   0.069202 0.370689 0.011461 -0.125659
C117  C     C_3   0.491685 0.834250 0.929468 0.054179
C118  C     C_3   0.515553 0.829385 0.067496 0.051926
C119  C     C_3   0.991646 0.334259 0.929487 0.052926
C120  C     C_3   0.015509 0.329376 0.067516 0.053302
Cr1   Cr    Cr6+3 0.229640 0.835880 0.747370 1.005225
Cr2   Cr    Cr6+3 0.770360 0.835880 0.252630 0.985952
Cr3   Cr    Cr6+3 0.729640 0.335880 0.747370 0.996765
Cr4   Cr    Cr6+3 0.270360 0.335880 0.252630 0.994646
Cr5   Cr    Cr6+3 0.387390 0.989720 0.750850 0.983479
Cr6   Cr    Cr6+3 0.612610 0.989720 0.249150 0.979850
Cr7   Cr    Cr6+3 0.887390 0.489720 0.750850 0.976864
Cr8   Cr    Cr6+3 0.112610 0.489720 0.249150 0.987553
Cr9   Cr    Cr6+3 0.385770 0.677220 0.749340 1.001481
Cr10  Cr    Cr6+3 0.614230 0.677220 0.250660 0.984835
Cr11  Cr    Cr6+3 0.885770 0.177220 0.749340 0.985752
Cr12  Cr    Cr6+3 0.114230 0.177220 0.250660 1.001551
H1    H     H_    0.382473 0.770089 0.975560 0.105996
H2    H     H_    0.623599 0.900670 0.023752 0.124248
H3    H     H_    0.882447 0.270013 0.975568 0.106381
H4    H     H_    0.123538 0.400746 0.023784 0.124406
H5    H     H_    0.477897 0.018959 0.561449 0.127606
H6    H     H_    0.469098 0.001569 0.429202 0.117296
H7    H     H_    0.032697 0.499343 0.572556 0.116926
H8    H     H_    0.023288 0.518762 0.440456 0.126998
H9    H     H_    0.612321 0.595071 0.456242 0.168069
H10   H     H_    0.637911 0.756124 0.583115 0.137846
H11   H     H_    0.860902 0.264487 0.416771 0.137103
H12   H     H_    0.884717 0.099818 0.541500 0.168558
H13   H     H_    0.125182 0.611053 0.574623 0.139812
H14   H     H_    0.902415 0.569967 0.408825 0.140125
H15   H     H_    0.597779 0.072162 0.591251 0.139593
H16   H     H_    0.374473 0.107691 0.425235 0.140388
H17   H     H_    0.148453 0.681238 0.060574 0.139125
H18   H     H_    0.822605 0.743301 0.918990 0.134812
H19   H     H_    0.648475 0.181276 0.060580 0.138832
H20   H     H_    0.322661 0.243235 0.919016 0.134926
H21   H     H_    0.891801 0.924611 0.065895 0.127018
H22   H     H_    0.219014 0.867053 0.961755 0.155967
H23   H     H_    0.391801 0.424634 0.065909 0.126702
H24   H     H_    0.719099 0.367031 0.961777 0.155904
H25   H     H_    0.398542 0.584135 0.935746 0.178015
H26   H     H_    0.606000 0.451074 0.065142 0.135057
H27   H     H_    0.898542 0.084096 0.935723 0.178373
H28   H     H_    0.105917 0.951201 0.065089 0.134929
H29   H     H_    0.391997 0.419131 0.937651 0.118767
H30   H     H_    0.700491 0.414547 0.085100 0.144040
H31   H     H_    0.891980 0.919099 0.937633 0.118626
H32   H     H_    0.200389 0.914566 0.085070 0.144807
O1    O     O_R   0.214300 0.709080 0.827500 -0.532990
O2    O     O_R   0.785700 0.709080 0.172500 -0.538358
O3    O     O_R   0.714300 0.209080 0.827500 -0.533918
O4    O     O_R   0.285700 0.209080 0.172500 -0.536489
O5    O     O_R   0.445900 0.919370 0.676500 -0.513593
O6    O     O_R   0.554100 0.919370 0.323500 -0.521139
O7    O     O_R   0.945900 0.419370 0.676500 -0.523889
O8    O     O_R   0.054100 0.419370 0.323500 -0.510228
O9    O     O_R   0.456660 0.717710 0.669820 -0.522715
O10   O     O_R   0.543340 0.717710 0.330180 -0.519842
O11   O     O_R   0.956660 0.217710 0.669820 -0.520672
O12   O     O_R   0.043340 0.217710 0.330180 -0.522081
O13   O     O_R   0.320590 0.625770 0.672930 -0.508950
O14   O     O_R   0.679410 0.625770 0.327070 -0.513482
O15   O     O_R   0.820590 0.125770 0.672930 -0.516275
O16   O     O_R   0.179410 0.125770 0.327070 -0.505573
O17   O     O_3   0.334270 0.834280 0.749190 -0.249185
O18   O     O_3   0.665730 0.834280 0.250810 -0.289304
O19   O     O_3   0.834270 0.334280 0.749190 -0.267696
O20   O     O_3   0.165730 0.334280 0.250810 -0.270207
O21   O     O_R   0.236190 0.958390 0.823150 -0.499713
O22   O     O_R   0.763810 0.958390 0.176850 -0.507990
O23   O     O_R   0.736190 0.458390 0.823150 -0.492826
O24   O     O_R   0.263810 0.458390 0.176850 -0.515274
O25   O     O_R   0.332090 0.075280 0.831290 -0.543830
O26   O     O_R   0.667910 0.075280 0.168710 -0.529550
O27   O     O_R   0.832090 0.575280 0.831290 -0.540387
O28   O     O_R   0.167910 0.575280 0.168710 -0.533087
O29   O     O_R   0.446280 0.918040 0.826620 -0.510743
O30   O     O_R   0.553720 0.918040 0.173380 -0.512787
O31   O     O_R   0.946280 0.418040 0.826620 -0.507689
O32   O     O_R   0.053720 0.418040 0.173380 -0.515889
O33   O     O_R   0.457080 0.716270 0.831760 -0.530680
O34   O     O_R   0.542920 0.716270 0.168240 -0.528937
O35   O     O_R   0.957080 0.216270 0.831760 -0.527601
O36   O     O_R   0.042920 0.216270 0.168240 -0.532223
O37   O     O_R   0.320980 0.624440 0.823040 -0.506331
O38   O     O_R   0.679020 0.624440 0.176960 -0.500970
O39   O     O_R   0.820980 0.124440 0.823040 -0.506057
O40   O     O_R   0.179020 0.124440 0.176960 -0.499990
O41   O     O_R   0.213880 0.710510 0.665560 -0.522860
O42   O     O_R   0.786120 0.710510 0.334440 -0.531419
O43   O     O_R   0.713880 0.210510 0.665560 -0.532686
O44   O     O_R   0.286120 0.210510 0.334440 -0.520442
O45   O     O_R   0.235800 0.959720 0.673040 -0.509013
O46   O     O_R   0.764200 0.959720 0.326960 -0.506214
O47   O     O_R   0.735800 0.459720 0.673040 -0.506818
O48   O     O_R   0.264200 0.459720 0.326960 -0.508207
O49   O     O_R   0.331670 0.076720 0.669350 -0.525181
O50   O     O_R   0.668330 0.076720 0.330650 -0.519607
O51   O     O_R   0.831670 0.576720 0.669350 -0.521110
O52   O     O_R   0.168330 0.576720 0.330650 -0.522807
H33   H     H_    0.892832 0.105389 0.416144 0.150148
H34   H     H_    0.851516 0.257709 0.543743 0.134961
H35   H     H_    0.647511 0.751508 0.456190 0.136137
H36   H     H_    0.603720 0.598754 0.581693 0.148646
C121  C     C_3   0.362918 0.467507 0.562403 -0.259834
C122  C     C_3   0.441602 0.483623 0.551425 -0.433989
H37   H     H_    0.469054 0.396513 0.558475 0.105873
H38   H     H_    0.453442 0.517229 0.497096 0.153143
H39   H     H_    0.462738 0.545019 0.592424 0.202266
H40   H     H_    0.351864 0.450009 0.619335 0.167369
H41   H     H_    0.347577 0.384749 0.536007 0.146264
C123  C     C_3   0.692181 0.383404 0.393261 -0.251386
C124  C     C_3   0.612039 0.384535 0.393374 -0.429858
H42   H     H_    0.591776 0.376486 0.448669 0.130873
H43   H     H_    0.591214 0.467294 0.368328 0.175165
H44   H     H_    0.592372 0.309195 0.359923 0.143135
H45   H     H_    0.709662 0.399990 0.337628 0.154938
H46   H     H_    0.712775 0.293698 0.405590 0.165952
C125  C     C_3   0.810640 0.885168 0.605161 -0.251876
C126  C     C_3   0.890746 0.887933 0.603120 -0.430741
H47   H     H_    0.909865 0.877867 0.547454 0.131899
H48   H     H_    0.911233 0.972105 0.626888 0.176604
H49   H     H_    0.912008 0.814525 0.636863 0.138159
H50   H     H_    0.794250 0.902116 0.661205 0.153642
H51   H     H_    0.790675 0.795022 0.593444 0.166504
C127  C     C_3   0.136927 0.968511 0.436685 -0.259304
C128  C     C_3   0.058314 0.985530 0.448302 -0.433453
H52   H     H_    0.046848 0.019988 0.502738 0.153486
H53   H     H_    0.036819 0.046537 0.407512 0.202380
H54   H     H_    0.030838 0.898593 0.441407 0.106028
H55   H     H_    0.147641 0.950919 0.379594 0.168937
H56   H     H_    0.152315 0.885505 0.462460 0.145976
H57   H     H_    0.350526 0.502041 0.423303 0.133074
H58   H     H_    0.703736 0.373618 0.542100 0.145920
H59   H     H_    0.796866 0.873599 0.456531 0.147095
H60   H     H_    0.149899 0.001854 0.575945 0.132665
H61   H     H_    0.125954 0.559043 0.453377 0.170671
H62   H     H_    0.906352 0.506015 0.530812 0.159136
H63   H     H_    0.593649 0.008061 0.468899 0.158563
H64   H     H_    0.374582 0.057376 0.546573 0.171708
H65   H     H_    0.097457 0.715514 0.429121 0.138548
H66   H     H_    0.923125 0.663798 0.558807 0.143221
H67   H     H_    0.576758 0.165919 0.441813 0.141768
H68   H     H_    0.402561 0.214205 0.570935 0.138197
H69   H     H_    0.114636 0.773273 0.554116 0.139953
H70   H     H_    0.903839 0.730893 0.438089 0.133263
H71   H     H_    0.596656 0.233080 0.562702 0.133541
H72   H     H_    0.385730 0.269902 0.445846 0.140151
C129  C     C_3   0.404187 0.978559 0.074123 -0.267528
C130  C     C_3   0.434841 0.095799 0.103418 -0.412453
H73   H     H_    0.491549 0.087505 0.116339 0.174966
H74   H     H_    0.428104 0.168767 0.063904 0.131040
H75   H     H_    0.407270 0.122052 0.153038 0.174410
H76   H     H_    0.358160 0.998316 0.039133 0.148765
H77   H     H_    0.385297 0.923342 0.119324 0.142936
C131  C     C_3   0.525678 0.070969 0.947831 -0.272928
C132  C     C_3   0.461610 0.137541 0.919057 -0.400314
H78   H     H_    0.460997 0.135803 0.859706 0.184776
H79   H     H_    0.412807 0.097330 0.939404 0.188112
H80   H     H_    0.463694 0.232922 0.936059 0.097025
H81   H     H_    0.547723 0.123115 0.993295 0.134138
H82   H     H_    0.565000 0.063513 0.904631 0.144542
C133  C     C_3   0.904099 0.478424 0.074174 -0.267972
C134  C     C_3   0.934723 0.595646 0.103527 -0.412930
H83   H     H_    0.991446 0.587409 0.116389 0.175048
H84   H     H_    0.927922 0.668681 0.064067 0.131610
H85   H     H_    0.907188 0.621753 0.153196 0.173473
H86   H     H_    0.858073 0.498194 0.039187 0.148799
H87   H     H_    0.885215 0.423139 0.119349 0.141176
C135  C     C_3   0.025594 0.571006 0.947895 -0.272850
C136  C     C_3   0.961515 0.637574 0.919146 -0.400636
H88   H     H_    0.960893 0.635866 0.859794 0.184997
H89   H     H_    0.912721 0.597337 0.939495 0.187732
H90   H     H_    0.963593 0.732945 0.936168 0.097058
H91   H     H_    0.047646 0.623131 0.993366 0.134093
H92   H     H_    0.064912 0.563594 0.904689 0.145370
H93   H     H_    0.586260 0.703962 0.933799 0.131771
H94   H     H_    0.496862 0.626148 0.041585 0.128845
H95   H     H_    0.086254 0.204042 0.933812 0.131633
H96   H     H_    0.996872 0.126129 0.041585 0.128849
H97   H     H_    0.151810 0.690590 0.933742 0.135410
H98   H     H_    0.813554 0.781209 0.046835 0.143125
H99   H     H_    0.651826 0.190613 0.933744 0.135653
H100  H     H_    0.313585 0.281169 0.046849 0.142936
H101  H     H_    0.386554 0.591150 0.067039 0.137617
H102  H     H_    0.623327 0.398962 0.942091 0.134527
H103  H     H_    0.886565 0.091125 0.067024 0.137938
H104  H     H_    0.123259 0.899078 0.942044 0.134154

loop_
_geom_bond_atom_site_label_1
_geom_bond_atom_site_label_2
_ccdc_geom_bond_type
Cr2   O42   S    
C73   C93   A    
C75   C95   A    
C48   C120  S    
Cr10  O10   S    
C135  H91   S    
C53   H5    S    
C47   O31   A    
C63   C98   S    
C69   C93   A    
C5    C6    S    
C20   C40   A    
C46   O34   A    
C71   C95   A    
C22   C38   A    
C24   H100  S    
C29   C33   S    
C132  H80   S    
C55   H7    S    
C9    C13   A    
Cr3   O19   S    
C72   C88   S    
Cr4   O4    S    
C11   C15   A    
C30   H102  S    
C12   C16   A    
C131  C132  S    
C84   H64   S    
C131  H82   S    
C136  H89   S    
Cr5   O5    S    
C107  O43   A    
Cr10  O38   S    
C29   H23   S    
C30   H24   S    
C98   O50   A    
C59   C60   S    
C113  H1    S    
Cr4   O44   S    
Cr9   O9    S    
C41   C49   A    
C123  C124  S    
C109  C118  S    
C51   C52   A    
C7    C119  S    
C59   H33   S    
C62   C66   A    
C35   H31   S    
C111  C133  S    
C33   H29   S    
C129  H76   S    
C124  H42   S    
Cr7   O31   S    
C66   C82   S    
C92   O4    A    
C11   C27   A    
C68   C72   A    
C88   H16   S    
C32   H22   S    
C64   C97   S    
C48   O36   A    
C1    O21   A    
C78   H58   S    
C121  H41   S    
C100  O52   A    
Cr11  O15   S    
C107  O15   A    
C2    O26   A    
C105  O13   A    
C3    O23   A    
C106  O42   A    
C37   C89   S    
C38   C90   S    
C73   C121  S    
C4    O24   A    
C18   C38   A    
C19   C35   S    
C76   C96   A    
C110  C131  S    
C32   H104  S    
C44   C55   A    
Cr7   O51   S    
C66   C70   A    
C56   H8    S    
Cr7   O27   S    
C62   C99   S    
C72   C96   A    
C61   C65   A    
C73   C77   A    
C31   H103  S    
C81   H61   S    
C75   C79   A    
C86   H70   S    
C60   H12   S    
C90   O38   A    
C102  O6    A    
C67   C83   S    
C82   H66   S    
C125  H50   S    
C101  O9    A    
C111  C112  S    
C108  O44   A    
C7    C8    S    
C104  O12   A    
C99   O47   A    
C53   C54   A    
C97   O45   A    
C21   H97   S    
C64   C68   A    
C91   O3    A    
C85   H13   S    
Cr4   O20   S    
C124  H44   S    
C42   C53   A    
Cr2   O22   S    
C45   O33   A    
Cr12  O36   S    
C49   C57   S    
C126  H47   S    
C25   H17   S    
Cr6   O26   S    
C43   C104  S    
C125  H51   S    
C74   C123  S    
C52   C60   S    
C58   H36   S    
C61   C77   A    
Cr2   O46   S    
Cr10  O14   S    
C110  C114  S    
Cr9   O37   S    
C44   C52   A    
C59   H11   S    
C103  O7    A    
C47   O35   A    
C1    C12   S    
Cr5   O49   S    
C2    C11   S    
C44   C103  S    
C46   O30   A    
C30   C34   S    
C134  H83   S    
C109  C129  S    
C10   C14   A    
Cr4   O24   S    
C122  H39   S    
C127  H56   S    
C116  C120  S    
Cr8   O28   S    
C84   C88   S    
C7    C116  S    
C121  C122  S    
Cr6   O6    S    
C60   H34   S    
C133  C134  S    
C128  H54   S    
C114  H2    S    
C122  H38   S    
C123  H45   S    
C130  H74   S    
C42   C50   A    
C113  C117  S    
Cr8   O52   S    
C115  C119  S    
C22   C26   A    
C61   C100  S    
C42   C101  S    
C87   H71   S    
C112  C116  S    
C69   C85   S    
C88   H72   S    
C45   C117  S    
C21   C25   A    
C62   C78   A    
C76   C80   A    
C34   H30   S    
C130  H75   S    
C28   H20   S    
C16   C32   S    
Cr1   O1    S    
C126  H49   S    
C135  H92   S    
Cr12  O16   S    
C57   C58   S    
C115  H3    S    
C132  H79   S    
C96   C108  S    
Cr9   O33   S    
C49   C50   A    
C80   H60   S    
C4    C9    S    
C106  O14   A    
C81   C85   S    
C83   H67   S    
C1    O25   A    
Cr5   O29   S    
C83   C87   S    
C55   C56   A    
C4    O28   A    
C134  H85   S    
Cr1   O41   S    
C9    C25   A    
C15   C19   A    
C87   H15   S    
C12   C28   A    
C133  H87   S    
C13   C29   S    
C70   C94   A    
C128  H52   S    
C46   C118  S    
Cr12  O12   S    
C39   C91   S    
Cr6   O50   S    
Cr11  O19   S    
C125  C126  S    
C101  O5    A    
Cr11  O39   S    
C92   O40   A    
C104  O8    A    
C97   O49   A    
C90   O2    A    
C64   C80   A    
C22   H98   S    
C17   C33   S    
C86   H14   S    
C110  C117  S    
C33   H25   S    
C45   O29   A    
Cr12  O40   S    
Cr5   O17   S    
C68   C84   S    
C24   C28   A    
C26   H18   S    
Cr4   O48   S    
C82   C86   S    
Cr9   O13   S    
C121  H40   S    
C83   H63   S    
C50   C58   S    
C76   C127  S    
C5    H93   S    
Cr6   O30   S    
C65   C81   S    
C136  H88   S    
C103  O11   A    
C127  C128  S    
C136  H90   S    
C133  H86   S    
C15   C31   S    
C95   C107  S    
C71   C87   S    
C31   C35   S    
C77   H57   S    
C32   C36   S    
C23   H99   S    
Cr1   O17   S    
C27   H19   S    
C79   H59   S    
C112  C119  S    
C105  O41   A    
C116  H4    S    
C13   C17   A    
C8    H96   S    
C57   H9    S    
C129  H77   S    
C124  H43   S    
C109  C110  S    
Cr12  O20   S    
C43   C51   A    
C65   C69   A    
Cr11  O11   S    
C126  H48   S    
C67   C71   A    
C20   C36   S    
C21   C37   A    
C74   C78   A    
C74   C94   A    
C36   H32   S    
C82   H62   S    
Cr7   O7    S    
C91   O39   A    
C29   H101  S    
C89   O37   A    
C131  H81   S    
Cr2   O2    S    
C5    C114  S    
Cr7   O19   S    
C14   C18   A    
Cr8   O20   S    
C63   C79   A    
C41   C102  S    
C98   O46   A    
C134  H84   S    
C135  C136  S    
C108  O16   A    
C58   H10   S    
C8    C115  S    
C93   C105  S    
C128  H53   S    
Cr3   O47   S    
C75   C125  S    
Cr1   O45   S    
C129  C130  S    
C123  H46   S    
C16   C20   A    
Cr3   O3    S    
C10   C26   A    
C47   C119  S    
C48   O32   A    
C112  C135  S    
C14   C30   S    
C31   H21   S    
C63   C67   A    
Cr10  O18   S    
C7    H95   S    
C57   H35   S    
C100  O48   A    
C5    C117  S    
C111  C120  S    
Cr11  O35   S    
C2    O22   A    
C6    C113  S    
C3    O27   A    
C132  H78   S    
Cr3   O43   S    
C17   C37   A    
C40   C92   S    
C18   C34   S    
C89   O1    A    
C114  C118  S    
C19   C39   A    
C34   H26   S    
Cr8   O8    S    
C23   C27   A    
Cr6   O18   S    
C51   C59   S    
C70   C86   S    
C8    C120  S    
Cr9   O17   S    
C94   C106  S    
C84   H68   S    
Cr8   O32   S    
C85   H69   S    
Cr5   O25   S    
C6    H94   S    
C109  C113  S    
C102  O10   A    
C81   H65   S    
C127  H55   S    
C3    C10   S    
C54   H6    S    
C99   O51   A    
C23   C39   A    
C24   C40   A    
Cr3   O23   S    
C122  H37   S    
C35   H27   S    
C41   C54   A    
C130  H73   S    
C36   H28   S    
Cr1   O21   S    
C43   C56   A    
Cr2   O18   S    
C111  C115  S    
Cr10  O34   S    
C6    C118  S    
