data_mof_unit_29210.cif
_audit_creation_date              2013-03-05T16:35:54-0500
_audit_creation_method            fapswitch 2.2
_symmetry_space_group_name_H-M    P1
_symmetry_Int_Tables_number       1
_space_group_crystal_system       triclinic
_cell_length_a                    23.615867
_cell_length_b                    9.090191
_cell_length_c                    7.781613
_cell_angle_alpha                 89.400235
_cell_angle_beta                  89.945616
_cell_angle_gamma                 89.410541
_cell_volume                      1670.31968318

loop_
_atom_site_label
_atom_site_type_symbol
_atom_site_description
_atom_site_fract_x
_atom_site_fract_y
_atom_site_fract_z
_atom_type_partial_charge
O1    O     O_R   0.500000 0.288390 0.642760 -0.574975
O2    O     O_R   0.500000 0.711610 0.357240 -0.575421
O3    O     O_R   0.500000 0.711610 0.642760 -0.583786
O4    O     O_R   0.500000 0.288390 0.357240 -0.575396
C1    C     C_R   0.500051 0.220005 0.500548 0.849693
C2    C     C_R   0.499985 0.779993 0.499452 0.836751
O5    O     O_R   0.417880 0.500000 0.642820 -0.560393
O6    O     O_R   0.582120 0.500000 0.357180 -0.550953
O7    O     O_R   0.582120 0.500000 0.642820 -0.605597
O8    O     O_R   0.417880 0.500000 0.357180 -0.562456
C3    C     C_R   0.208254 0.508622 0.488754 0.309573
C4    C     C_R   0.791048 0.479973 0.488252 0.323600
C5    C     C_R   0.390635 0.502063 0.499949 0.877605
C6    C     C_R   0.609360 0.498349 0.499977 0.840549
Cu1   Cu    Cu3+1 0.500000 0.500000 0.669080 1.008650
Cu2   Cu    Cu3+1 0.500000 0.500000 0.330920 1.026381
C7    C     C_R   0.299023 0.576710 0.361063 0.016906
C8    C     C_R   0.700214 0.412772 0.366885 0.048730
C9    C     C_R   0.296890 0.441577 0.633801 0.017877
C10   C     C_R   0.704215 0.561983 0.627007 0.015017
C11   C     C_R   0.327939 0.507067 0.498780 -0.084180
C12   C     C_R   0.672004 0.491007 0.498766 -0.126189
C13   C     C_R   0.877846 0.600612 0.411768 0.589986
C14   C     C_R   0.120516 0.370439 0.498680 0.589213
C15   C     C_R   0.881344 0.360830 0.539945 0.589642
C16   C     C_R   0.115868 0.629309 0.455127 0.625890
N1    N     N_R   0.851778 0.479990 0.479161 -0.415109
N2    N     N_R   0.146985 0.503031 0.480442 -0.431477
C17   C     C_R   0.941228 0.359159 0.536640 -0.105224
C18   C     C_R   0.056983 0.622174 0.428160 -0.062388
C19   C     C_R   0.937516 0.608498 0.408170 -0.072066
C20   C     C_R   0.061201 0.364702 0.519190 -0.103652
C21   C     C_R   0.969172 0.485990 0.472300 -0.064212
C22   C     C_R   0.029019 0.490736 0.472807 -0.093234
C23   C     C_R   0.974226 0.237520 0.598375 0.166283
C24   C     C_R   0.025887 0.741153 0.356997 0.187274
C25   C     C_R   0.966751 0.733477 0.342660 0.101251
C26   C     C_R   0.033393 0.239567 0.587181 0.161630
C27   C     C_1   0.500040 0.065365 0.500756 -0.168044
C28   C     C_1   0.500017 0.934631 0.499244 -0.168898
C29   C     C_R   0.239375 0.574256 0.354083 0.102339
C30   C     C_R   0.759877 0.408392 0.361728 0.101444
C31   C     C_R   0.237164 0.445090 0.630288 0.111497
C32   C     C_R   0.763584 0.555645 0.620808 0.154899
N3    N     N_1   0.500000 0.500000 0.076820 -0.040223
N4    N     N_1   0.500000 0.500000 0.923180 -0.044225
O9    O     O_2   0.845367 0.712158 0.350716 -0.562934
O10   O     O_2   0.151638 0.245402 0.494362 -0.545665
O11   O     O_2   0.852184 0.245640 0.603166 -0.564861
O12   O     O_2   0.141637 0.760986 0.459178 -0.503485
N5    N     N_3   0.949503 0.109795 0.676976 -0.536543
H1    H     H_    0.923760 0.057138 0.588243 0.256169
H2    H     H_    0.926368 0.141103 0.785419 0.263013
N6    N     N_3   0.054755 0.866238 0.286189 -0.507286
H3    H     H_    0.047294 0.869943 0.153771 0.241374
H4    H     H_    0.037286 0.961565 0.339255 0.242125
N7    N     N_3   0.938298 0.854376 0.258114 -0.590349
H5    H     H_    0.911502 0.907684 0.344742 0.268545
H6    H     H_    0.915666 0.815495 0.152819 0.268963
N8    N     N_3   0.064049 0.117827 0.662896 -0.533305
H7    H     H_    0.092572 0.157369 0.753706 0.250645
H8    H     H_    0.085789 0.060156 0.567821 0.287576
N9    N     N_3   0.209901 0.637112 0.209427 -0.547799
H9    H     H_    0.224827 0.587487 0.098044 0.198690
H10   H     H_    0.219037 0.749233 0.201680 0.255441
N10   N     N_3   0.789702 0.332632 0.227916 -0.565126
H11   H     H_    0.777830 0.378407 0.109425 0.221155
H12   H     H_    0.778218 0.221925 0.230938 0.239691
N11   N     N_3   0.205126 0.382622 0.769309 -0.565808
H13   H     H_    0.216226 0.434637 0.882693 0.206529
H14   H     H_    0.215569 0.271006 0.781470 0.248474
N12   N     N_3   0.796881 0.627068 0.748762 -0.559577
H15   H     H_    0.785841 0.584087 0.869218 0.238033
H16   H     H_    0.786635 0.739245 0.746674 0.260532
N13   N     N_3   0.330570 0.652680 0.230184 -0.560320
H17   H     H_    0.317761 0.763061 0.227114 0.224074
H18   H     H_    0.322085 0.605752 0.111145 0.221531
N14   N     N_3   0.668003 0.335391 0.240835 -0.559407
H19   H     H_    0.678603 0.223534 0.248212 0.222123
H20   H     H_    0.678496 0.375472 0.118561 0.224191
N15   N     N_3   0.326291 0.367549 0.771640 -0.559792
H21   H     H_    0.314411 0.257124 0.774252 0.225405
H22   H     H_    0.314708 0.415843 0.887861 0.217919
N16   N     N_3   0.677973 0.645045 0.761804 -0.586415
H23   H     H_    0.655996 0.573297 0.842978 0.249122
H24   H     H_    0.649866 0.722081 0.707663 0.232767

loop_
_geom_bond_atom_site_label_1
_geom_bond_atom_site_label_2
_geom_bond_distance
_ccdc_geom_bond_type
N10   H12   1.044971 S    
N9    H10   1.045073 S    
O7    C6    1.283900 A    
O3    C2    1.271018 A    
N15   H21   1.045015 S    
N3    N4    1.195568 T    
O1    C1    1.274933 A    
C24   C25   1.403607 A    
C9    C11   1.410819 A    
N16   H24   1.045578 S    
C16   O12   1.349035 S    
N14   H20   1.045768 S    
N7    H6    1.045340 S    
Cu1   Cu2   2.631431 S    
C17   C21   1.420680 A    
N8    H8    1.042906 S    
N11   H14   1.045031 S    
C4    C30   1.399736 A    
C10   C32   1.403445 A    
C19   C21   1.421274 A    
C3    C31   1.411611 A    
O1    Cu1   1.936580 S    
C20   C26   1.416761 A    
O2    Cu2   1.936579 S    
O5    Cu1   1.950266 S    
N10   H11   1.044980 S    
O6    Cu2   1.950264 S    
O2    C2    1.274931 A    
N15   H22   1.044431 S    
C9    C31   1.410801 A    
C15   O11   1.347614 S    
C15   C17   1.414346 A    
N6    H4    1.044705 S    
C13   O9    1.347888 S    
C18   C22   1.411194 A    
C4    N1    1.435884 S    
N5    H1    1.043645 S    
C14   O10   1.347861 S    
C23   C26   1.400222 A    
N16   H23   1.044725 S    
N12   H16   1.045564 S    
C27   C28   1.188580 T    
N14   H19   1.045666 S    
O4    C1    1.271023 A    
C10   N16   1.435323 S    
C7    C11   1.412040 A    
C19   C25   1.424978 A    
N8    H7    1.045696 S    
N5    H2    1.045248 S    
C13   C19   1.411954 A    
O4    Cu2   1.932316 S    
N13   H17   1.045044 S    
C14   C20   1.411127 A    
C8    N14   1.436120 S    
C21   C22   1.414437 A    
C5    C11   1.480887 S    
N13   H18   1.044299 S    
C26   N8    1.437555 S    
C10   C12   1.419778 A    
C16   C18   1.408830 A    
C13   N1    1.362896 A    
C1    C27   1.405697 S    
C23   N5    1.435768 S    
C2    C28   1.405685 S    
C29   N9    1.434544 S    
O3    Cu1   1.932315 S    
C30   N10   1.434668 S    
N6    H3    1.045687 S    
O6    C6    1.284373 A    
C8    C12   1.416699 A    
C14   N2    1.369425 A    
N12   H15   1.045549 S    
O8    C5    1.283517 A    
Cu2   N3    1.977307 S    
C15   N1    1.363411 A    
C17   C23   1.425671 A    
C16   N2    1.369181 A    
C18   C24   1.409807 A    
C6    C12   1.480229 S    
C8    C30   1.409684 A    
O7    Cu1   1.949878 S    
C4    C32   1.400797 A    
O8    Cu2   1.949881 S    
N7    H5    1.043743 S    
C3    N2    1.449859 S    
C32   N12   1.434142 S    
N11   H13   1.040425 S    
C7    C29   1.410145 A    
C24   N6    1.436448 S    
N9    H9    1.040825 S    
O5    C5    1.284922 A    
C31   N11   1.435147 S    
C3    C29   1.410248 A    
C7    N13   1.436536 S    
Cu1   N4    1.977307 S    
C9    N15   1.436002 S    
C25   N7    1.436183 S    
C20   C22   1.412247 A    
