data_mof_unit_27132.cif
_audit_creation_date              2012-12-11T14:27:04-0500
_audit_creation_method            fapswitch 2.2
_symmetry_space_group_name_H-M    P1
_symmetry_Int_Tables_number       1
_space_group_crystal_system       triclinic
_cell_length_a                    15.031868
_cell_length_b                    14.867591
_cell_length_c                    14.925154
_cell_angle_alpha                 109.309119
_cell_angle_beta                  109.889065
_cell_angle_gamma                 109.329993
_cell_volume                      2564.037913

loop_
_atom_site_label
_atom_site_type_symbol
_atom_type_description
_atom_site_fract_x
_atom_site_fract_y
_atom_site_fract_z
_atom_type_partial_charge
C1    C     C_R   0.989498 0.797431 0.084481 -0.167544
C2    C     C_R   0.221138 0.745755 0.313370 -0.118533
C3    C     C_R   0.902142 0.407769 0.204528 -0.134621
C4    C     C_R   0.786355 0.202788 0.694791 -0.159441
C5    C     C_R   0.301490 0.590797 0.999282 -0.167971
C6    C     C_R   0.927153 0.498168 0.294919 0.140699
C7    C     C_R   0.303190 0.498760 0.939639 0.067537
C8    C     C_R   0.323173 0.769989 0.323821 0.153366
C9    C     C_R   0.056758 0.233295 0.058832 0.134868
C10   C     C_3   0.465720 0.378659 0.844957 -0.117852
C11   C     C_3   0.365205 0.381034 0.847239 -0.486276
C12   C     C_R   0.689963 0.143757 0.689272 0.140601
C13   C     C_3   0.582185 0.520756 0.048033 -0.602302
C14   C     C_3   0.560633 0.589375 0.913758 0.559351
C15   C     C_3   0.571090 0.495497 0.933303 0.169319
C16   C     C_R   0.036763 0.589956 0.775294 -0.145917
C17   C     C_3   0.398429 0.496919 0.934487 0.268552
C18   C     C_3   0.485789 0.532028 0.052080 -0.103765
C19   C     C_3   0.450075 0.579819 0.900219 -0.590480
C20   C     C_2   0.441453 0.859970 0.523481 -0.173581
C21   C     C_2   0.427561 0.818341 0.422372 -0.227498
C22   C     C_2   0.549096 0.952712 0.616618 0.071101
C23   C     C_R   0.966435 0.497994 0.672566 0.122573
C24   C     C_2   0.601653 0.034258 0.600620 -0.313705
C25   C     C_2   0.846514 0.414200 0.475261 -0.112821
C26   C     C_2   0.932036 0.500908 0.571231 -0.188681
C27   C     C_2   0.834610 0.407915 0.371474 -0.115531
C28   C     C_R   0.686094 0.406536 0.933138 -0.141517
C29   C     C_2   0.882408 0.498953 0.367278 -0.197050
C30   C     C_2   0.162112 0.141982 0.088712 -0.141192
C31   C     C_2   0.107294 0.187923 0.118824 -0.206783
C32   C     C_2   0.160786 0.050190 0.104934 -0.126311
C33   C     C_2   0.065124 0.969799 0.077307 -0.209801
C34   C     C_R   0.672803 0.496556 0.944660 0.106474
C35   C     C_R   0.945106 0.406627 0.685030 -0.114240
C36   C     C_R   0.775303 0.589805 0.019948 -0.128630
C37   C     C_R   0.696405 0.202602 0.786715 -0.097203
C38   C     C_R   0.083416 0.800301 0.996700 0.037084
C39   C     C_R   0.044301 0.858876 0.049860 0.081037
C40   C     C_R   0.445936 0.326161 0.727293 0.177997
C41   C     C_R   0.410586 0.364120 0.654516 -0.036523
C42   C     C_R   0.391319 0.313170 0.547318 -0.148539
C43   C     C_R   0.403466 0.221277 0.509440 -0.095177
C44   C     C_R   0.432768 0.178864 0.578020 -0.092185
C45   C     C_R   0.991260 0.589938 0.296042 -0.167190
C46   C     C_R   0.452465 0.229798 0.685351 -0.193837
C47   C     C_R   0.444774 0.478358 0.112128 0.199843
C48   C     C_R   0.423528 0.371011 0.088511 -0.167181
C49   C     C_R   0.398825 0.329741 0.153680 -0.138560
C50   C     C_R   0.389096 0.392166 0.239330 -0.066265
C51   C     C_R   0.405616 0.496863 0.261007 -0.098572
C52   C     C_R   0.434534 0.540299 0.198848 -0.160126
C53   C     C_3   0.605578 0.688924 0.828873 -0.245639
C54   C     C_R   0.593912 0.956057 0.724104 0.157948
C55   C     C_R   0.528137 0.931956 0.770373 -0.185318
C56   C     C_R   0.209273 0.408000 0.906707 -0.137255
C57   C     C_R   0.571938 0.936294 0.871794 -0.124481
C58   C     C_R   0.681116 0.964066 0.927534 -0.131750
C59   C     C_R   0.746627 0.986344 0.881471 -0.123236
C60   C     C_R   0.703392 0.982145 0.780224 -0.131185
C61   C     C_R   0.164051 0.844039 0.965032 0.086658
C62   C     C_R   0.143741 0.890390 0.897267 -0.172665
C63   C     C_R   0.219557 0.932197 0.867140 -0.133081
C64   C     C_R   0.315563 0.927079 0.903273 -0.090950
C65   C     C_R   0.335717 0.879728 0.969279 -0.125093
C66   C     C_R   0.260263 0.838233 0.999996 -0.158680
C67   C     C_R   0.312246 0.745564 0.221798 -0.175791
C68   C     C_R   0.978252 0.256200 0.069309 -0.152553
C69   C     C_R   0.071736 0.256273 0.980120 -0.119381
H1    H     H_    0.963783 0.826288 0.142293 0.098921
H2    H     H_    0.301822 0.358515 0.765414 0.157809
H3    H     H_    0.813187 0.172418 0.638662 0.092438
H4    H     H_    0.326880 0.317110 0.865820 0.149800
H5    H     H_    0.590423 0.456353 0.066295 0.196091
H6    H     H_    0.627173 0.669180 0.990022 -0.007674
H7    H     H_    0.392370 0.553624 0.814481 0.188492
H8    H     H_    0.465968 0.663021 0.952465 0.127970
H9    H     H_    0.658595 0.599080 0.115561 0.165153
H10   H     H_    0.518796 0.622082 0.102779 0.097862
H11   H     H_    0.371909 0.839915 0.535805 0.121770
H12   H     H_    0.177384 0.322859 0.849483 0.083982
H13   H     H_    0.071828 0.672670 0.791063 0.127601
H14   H     H_    0.498807 0.836407 0.412506 0.134728
H15   H     H_    0.570925 0.025635 0.519274 0.146115
H16   H     H_    0.796372 0.339905 0.472000 0.119154
H17   H     H_    0.985538 0.574887 0.576644 0.130848
H18   H     H_    0.805051 0.327169 0.305501 0.113696
H19   H     H_    0.905366 0.578959 0.429658 0.129259
H20   H     H_    0.188484 0.154506 0.032561 0.135354
H21   H     H_    0.082126 0.174087 0.175553 0.134284
H22   H     H_    0.230731 0.038708 0.117797 0.144453
H23   H     H_    0.376000 0.754602 0.201672 0.090974
H24   H     H_    0.624890 0.321832 0.891496 0.084459
H25   H     H_    0.995242 0.981779 0.064343 0.134962
H26   H     H_    0.897281 0.321368 0.621123 0.086932
H27   H     H_    0.793788 0.674229 0.054939 0.084031
H28   H     H_    0.641324 0.173316 0.814747 0.092147
H29   H     H_    0.011424 0.673257 0.346238 0.091128
H30   H     H_    0.394020 0.430687 0.678160 0.137346
H31   H     H_    0.365157 0.344004 0.492925 0.111320
H32   H     H_    0.387728 0.181465 0.426160 0.107616
H33   H     H_    0.438684 0.105416 0.547495 0.120147
H34   H     H_    0.948421 0.248209 0.124230 0.100709
H35   H     H_    0.470399 0.191773 0.734396 0.092959
H36   H     H_    0.430310 0.320358 0.022908 0.103555
H37   H     H_    0.387390 0.249076 0.137736 0.114599
H38   H     H_    0.368862 0.359405 0.288945 0.108791
H39   H     H_    0.397929 0.545273 0.327285 0.117327
H40   H     H_    0.449928 0.622927 0.219271 0.097168
H41   H     H_    0.690347 0.749323 0.898822 0.135076
H42   H     H_    0.548940 0.719777 0.836208 0.144389
H43   H     H_    0.605717 0.680650 0.752297 0.181983
H44   H     H_    0.443718 0.911551 0.729219 0.099740
H45   H     H_    0.128982 0.249391 0.953978 0.098106
H46   H     H_    0.521279 0.917742 0.907240 0.101707
H47   H     H_    0.714597 0.967136 0.005871 0.094816
H48   H     H_    0.830857 0.006546 0.924044 0.114407
H49   H     H_    0.755299 0.999082 0.745468 0.113643
H50   H     H_    0.069143 0.893972 0.867763 0.124386
H51   H     H_    0.203789 0.968428 0.815642 0.103660
H52   H     H_    0.374102 0.959808 0.879940 0.094761
H53   H     H_    0.409963 0.875449 0.997053 0.093153
H54   H     H_    0.277606 0.802855 0.051699 0.115991
H55   H     H_    0.200309 0.753611 0.376975 0.093106
H56   H     H_    0.839762 0.323751 0.168918 0.086679
H57   H     H_    0.358244 0.675555 0.029876 0.083850
H58   H     H_    0.474662 0.321639 0.875690 0.100118
N1    N     N_R   0.993980 0.704500 0.053430 -0.043007
N2    N     N_R   0.053690 0.556380 0.849240 -0.040813
N3    N     N_R   0.790390 0.443640 0.997160 -0.041270
N4    N     N_R   0.998260 0.443670 0.792970 -0.042789
N5    N     N_R   0.845830 0.556350 0.053430 -0.040667
N6    N     N_R   0.792820 0.295510 0.849240 -0.042419
N7    N     N_R   0.051260 0.704510 0.997160 -0.061016
N8    N     N_R   0.001740 0.556330 0.207030 -0.038642
N9    N     N_R   0.154170 0.443650 0.946570 -0.034741
N10   N     N_R   0.207180 0.704490 0.150760 -0.047381
N11   N     N_R   0.948740 0.295490 0.002840 -0.039547
N12   N     N_R   0.006020 0.295500 0.946570 -0.047963
N13   N     N_R   0.149890 0.704480 0.207030 -0.044254
N14   N     N_R   0.946310 0.443620 0.150760 -0.041080
N15   N     N_R   0.209610 0.556360 0.002840 -0.032444
N16   N     N_R   0.850110 0.295520 0.792970 -0.040355
Ni1   Ni    Ni4+2 0.997880 0.629240 0.129060 0.207512
Ni2   Ni    Ni4+2 0.002120 0.370760 0.870940 0.207909
Ni3   Ni    Ni4+2 0.129260 0.629260 0.000000 0.214121
Ni4   Ni    Ni4+2 0.870740 0.370740 0.000000 0.216552
O1    O     O_3   0.571035 0.585030 0.821764 -0.626099

loop_
_geom_bond_atom_site_label_1
_geom_bond_atom_site_label_2
_ccdc_geom_bond_type
C53   H41   S    
N5    Ni1   S    
C69   N12   A    
C6    C45   A    
C27   C29   D    
C41   C42   A    
N15   Ni3   S    
C68   N11   A    
N11   N12   A    
C3    N14   A    
C68   H34   S    
C3    C6    A    
C33   H25   S    
C4    N16   A    
C37   H28   S    
C57   C58   A    
C56   H12   S    
C57   H46   S    
C54   C60   A    
C40   C46   A    
C33   C39   S    
C13   C18   S    
C19   H7    S    
C9    C69   A    
N1    N7    A    
C10   C15   S    
C36   N5    A    
N8    Ni1   S    
C30   C31   D    
C11   H2    S    
C32   H22   S    
C64   H52   S    
C14   O1    S    
C10   C40   S    
C23   C26   S    
C12   C37   A    
C19   H8    S    
C29   H19   S    
N9    N15   A    
C54   C55   A    
C61   C66   A    
C11   C17   S    
C21   H14   S    
C51   H39   S    
C7    C17   S    
C5    H57   S    
C1    N1    A    
C60   H49   S    
N6    Ni4   S    
C4    C12   A    
C15   C34   S    
C28   N3    A    
N9    Ni2   S    
C38   C61   S    
C53   H42   S    
C28   C34   A    
C59   C60   A    
C59   H48   S    
C48   H36   S    
C18   C47   S    
C58   H47   S    
C7    C56   A    
C30   H20   S    
C16   H13   S    
C56   N9    A    
C44   C46   A    
C8    C21   S    
C9    C31   S    
N7    Ni3   S    
N10   N13   A    
C69   H45   S    
N6    N16   A    
C45   N8    A    
C20   H11   S    
C51   C52   A    
N10   Ni3   S    
C22   C54   S    
C11   H4    S    
C5    C7    A    
C44   H33   S    
C18   H10   S    
C55   H44   S    
C25   C26   D    
C46   H35   S    
C53   O1    S    
C28   H24   S    
N3    N5    A    
C43   C44   A    
C43   H32   S    
C62   C63   A    
C42   H31   S    
C36   H27   S    
C1    C39   A    
C47   C48   A    
N11   Ni4   S    
C26   H17   S    
C31   H21   S    
C25   H16   S    
C50   C51   A    
N2    Ni3   S    
C65   H53   S    
C13   H5    S    
C27   H18   S    
C16   N2    A    
N1    Ni1   S    
C62   H50   S    
C47   C52   A    
C53   H43   S    
C40   C41   A    
C20   C22   S    
C49   C50   A    
C16   C23   A    
C23   C35   A    
C55   C57   A    
C50   H38   S    
C22   C24   D    
C42   C43   A    
C10   H58   S    
C35   N4    A    
C4    H3    S    
N16   Ni2   S    
C13   H9    S    
N12   Ni2   S    
N3    Ni4   S    
C14   C15   S    
C14   C19   S    
C2    C8    A    
N13   Ni1   S    
C41   H30   S    
C3    H56   S    
C49   H37   S    
C2    H55   S    
C25   C27   S    
C12   C24   S    
C1    H1    S    
C17   C18   S    
C45   H29   S    
C2    N13   A    
C64   C65   A    
C13   C15   S    
C58   C59   A    
C9    C68   A    
C32   C33   D    
C30   C32   S    
C63   H51   S    
C5    N15   A    
C38   C39   A    
C52   H40   S    
C48   C49   A    
C67   H23   S    
C17   C19   S    
N4    Ni2   S    
C34   C36   A    
C38   N7    A    
C24   H15   S    
C61   C62   A    
C67   N10   A    
C37   N6    A    
C10   C11   S    
N14   Ni4   S    
C63   C64   A    
N8    N14   A    
C6    C29   S    
C20   C21   D    
C8    C67   A    
C65   C66   A    
C66   H54   S    
C14   H6    S    
C35   H26   S    
N2    N4    A    
