data_mof_unit_27923.cif
_audit_creation_date              2013-03-05T16:23:34-0500
_audit_creation_method            fapswitch 2.2
_symmetry_space_group_name_H-M    P1
_symmetry_Int_Tables_number       1
_space_group_crystal_system       triclinic
_cell_length_a                    15.862793
_cell_length_b                    15.097664
_cell_length_c                    13.966434
_cell_angle_alpha                 88.325548
_cell_angle_beta                  88.954938
_cell_angle_gamma                 91.867377
_cell_volume                      3341.01645738

loop_
_atom_site_label
_atom_site_type_symbol
_atom_site_description
_atom_site_fract_x
_atom_site_fract_y
_atom_site_fract_z
_atom_type_partial_charge
O1    O     O_R   0.500010 0.371450 0.581430 -0.600964
O2    O     O_R   0.499990 0.628550 0.418570 -0.599730
O3    O     O_R   0.500010 0.371460 0.418560 -0.581948
O4    O     O_R   0.499990 0.628540 0.581440 -0.579447
C1    C     C_R   0.502892 0.329663 0.501451 0.780647
C2    C     C_R   0.497536 0.669461 0.498614 0.785926
O5    O     O_R   0.379080 0.499990 0.581420 -0.584504
O6    O     O_R   0.620920 0.500010 0.418580 -0.598119
O7    O     O_R   0.379080 0.500000 0.418550 -0.579353
O8    O     O_R   0.620920 0.500000 0.581450 -0.575633
C3    C     C_R   0.339904 0.499529 0.500721 0.816063
C4    C     C_R   0.660075 0.499829 0.499333 0.812542
Cu1   Cu    Cu3+1 0.500000 0.499990 0.596430 0.916794
Cu2   Cu    Cu3+1 0.500000 0.500010 0.403570 0.916298
C5    C     C_3   0.969446 0.422153 0.543963 0.113075
C6    C     C_3   0.030199 0.572283 0.457617 0.113235
C7    C     C_3   0.026913 0.427372 0.453380 0.113390
C8    C     C_3   0.972920 0.567030 0.548250 0.115032
H1    H     H_    0.950483 0.505519 0.334683 0.135977
H2    H     H_    0.049272 0.488744 0.666913 0.134764
C9    C     C_1   0.250226 0.499345 0.502076 -0.199340
C10   C     C_1   0.749689 0.498410 0.498244 -0.190382
C11   C     C_3   0.026245 0.492546 0.592378 -0.245953
C12   C     C_3   0.973548 0.501788 0.409223 -0.247886
C13   C     C_3   0.082943 0.497937 0.500983 0.073265
C14   C     C_3   0.916850 0.496666 0.500557 0.069460
C15   C     C_1   0.174694 0.498863 0.502085 -0.080348
C16   C     C_1   0.825156 0.497267 0.498828 -0.082606
C17   C     C_R   0.498385 0.088668 0.591129 0.076190
C18   C     C_R   0.420023 0.902054 0.451900 0.076586
C19   C     C_R   0.520064 0.181140 0.590405 0.063318
C20   C     C_R   0.421255 0.807586 0.454278 0.056806
C21   C     C_R   0.507260 0.232021 0.504387 -0.079154
C22   C     C_R   0.491504 0.765301 0.494812 -0.049728
C23   C     C_R   0.499424 0.188597 0.417701 -0.231116
C24   C     C_R   0.558742 0.814307 0.531022 -0.252379
C25   C     C_R   0.498202 0.097383 0.415982 -0.214034
C26   C     C_R   0.557739 0.905485 0.529287 -0.194720
C27   C     C_R   0.491515 0.046927 0.501171 0.076056
C28   C     C_R   0.488506 0.949908 0.493631 0.064380
C29   C     C_R   0.561643 0.545852 0.104164 -0.275474
C30   C     C_R   0.451323 0.439077 0.896017 -0.285466
C31   C     C_R   0.557797 0.552069 0.204356 0.297325
C32   C     C_R   0.447046 0.442549 0.795572 0.289415
N1    N     N_R   0.500000 0.500020 0.258690 -0.183498
N2    N     N_R   0.500000 0.499980 0.741310 -0.182032
C33   C     C_R   0.441537 0.449443 0.212878 0.052836
C34   C     C_R   0.552217 0.557583 0.787108 0.048915
C35   C     C_R   0.439418 0.448956 0.111978 -0.290837
C36   C     C_R   0.553048 0.559443 0.888013 -0.289375
C37   C     C_R   0.501078 0.497116 0.054708 0.111427
C38   C     C_R   0.502488 0.498530 0.945390 0.114077
C39   C     C_3   0.063938 0.352390 0.396292 -0.406486
C40   C     C_3   0.995115 0.293071 0.353358 -0.345816
C41   C     C_3   0.033625 0.219375 0.296154 -0.857983
H3    H     H_    0.073833 0.248018 0.236298 0.251766
H4    H     H_    0.072351 0.177007 0.343252 0.255018
H5    H     H_    0.982531 0.177397 0.265821 0.242048
H6    H     H_    0.954154 0.262266 0.411159 0.221399
H7    H     H_    0.955383 0.333403 0.305276 0.217628
H8    H     H_    0.104589 0.382529 0.337553 0.197411
H9    H     H_    0.104531 0.312478 0.443631 0.189439
C42   C     C_3   0.937144 0.641922 0.606479 -0.406408
C43   C     C_3   0.007183 0.700061 0.648939 -0.345170
C44   C     C_3   0.970346 0.773093 0.708479 -0.860091
H10   H     H_    0.931020 0.816432 0.663174 0.251890
H11   H     H_    0.931120 0.743811 0.768826 0.251947
H12   H     H_    0.022348 0.814205 0.738259 0.241192
H13   H     H_    0.047482 0.658744 0.695357 0.217200
H14   H     H_    0.047395 0.731397 0.590761 0.220604
H15   H     H_    0.896359 0.682628 0.560216 0.187461
H16   H     H_    0.896922 0.611688 0.665538 0.197706
H17   H     H_    0.394938 0.410265 0.254523 0.126902
H18   H     H_    0.592638 0.603779 0.745399 0.128389
H19   H     H_    0.388708 0.410880 0.081007 0.124646
H20   H     H_    0.593047 0.609670 0.918944 0.124528
C45   C     C_3   0.928422 0.341405 0.597194 -0.407226
C46   C     C_3   0.993516 0.276354 0.633421 -0.348607
C47   C     C_3   0.950915 0.199819 0.691653 -0.855579
H21   H     H_    0.917086 0.225151 0.755068 0.254153
H22   H     H_    0.905351 0.162962 0.646844 0.251891
H23   H     H_    0.999337 0.153515 0.716854 0.240831
H24   H     H_    0.028187 0.248638 0.572154 0.222166
H25   H     H_    0.039496 0.311207 0.679313 0.221062
H26   H     H_    0.892240 0.365768 0.659326 0.195949
H27   H     H_    0.883347 0.307500 0.549379 0.190001
C48   C     C_3   0.069186 0.653336 0.403074 -0.414430
C49   C     C_3   0.002232 0.717622 0.369529 -0.341843
C50   C     C_3   0.041477 0.792697 0.306338 -0.870871
H28   H     H_    0.091175 0.829278 0.345711 0.250989
H29   H     H_    0.069444 0.765895 0.240146 0.252823
H30   H     H_    0.992078 0.839653 0.285607 0.243777
H31   H     H_    0.953288 0.681734 0.328264 0.217921
H32   H     H_    0.971355 0.747148 0.432280 0.221427
H33   H     H_    0.115379 0.687792 0.449124 0.190980
H34   H     H_    0.103689 0.629093 0.339649 0.204577
C51   C     C_3   0.482947 0.035514 0.685765 -0.431171
C52   C     C_3   0.394799 0.990393 0.694585 -0.352216
C53   C     C_3   0.380227 0.945344 0.793102 -0.856784
H35   H     H_    0.428055 0.894378 0.805861 0.258555
H36   H     H_    0.383960 0.994923 0.850225 0.248287
H37   H     H_    0.316571 0.912415 0.796654 0.240336
H38   H     H_    0.346042 0.040780 0.683965 0.211890
H39   H     H_    0.386887 0.938684 0.640832 0.233645
H40   H     H_    0.532184 0.985696 0.695268 0.200322
H41   H     H_    0.485855 0.078447 0.748277 0.195995
C54   C     C_3   0.346938 0.950850 0.406065 -0.421595
C55   C     C_3   0.286240 0.987548 0.480546 -0.355834
C56   C     C_3   0.208617 0.025486 0.433405 -0.861197
H42   H     H_    0.227650 0.079736 0.381211 0.254617
H43   H     H_    0.172910 0.972826 0.395881 0.250588
H44   H     H_    0.166667 0.052735 0.489031 0.240827
H45   H     H_    0.265368 0.933955 0.532773 0.213034
H46   H     H_    0.318540 0.041598 0.519145 0.227079
H47   H     H_    0.370644 0.005169 0.357130 0.192396
H48   H     H_    0.310277 0.908078 0.358037 0.208106
C57   C     C_3   0.564807 0.222643 0.675464 -0.409485
C58   C     C_3   0.651685 0.265221 0.647192 -0.307561
C59   C     C_3   0.687777 0.318096 0.729374 -0.822228
H49   H     H_    0.644430 0.371194 0.749228 0.270736
H50   H     H_    0.697358 0.273824 0.792888 0.239331
H51   H     H_    0.749316 0.349581 0.706816 0.230379
H52   H     H_    0.695853 0.212280 0.628907 0.200068
H53   H     H_    0.648671 0.310314 0.583517 0.219019
H54   H     H_    0.523434 0.270433 0.710258 0.215392
H55   H     H_    0.579689 0.173303 0.731972 0.177267
C60   C     C_3   0.346515 0.751670 0.419974 -0.406252
C61   C     C_3   0.353855 0.735224 0.312074 -0.320696
C62   C     C_3   0.273901 0.690286 0.275463 -0.872594
H56   H     H_    0.260630 0.626361 0.315133 0.264688
H57   H     H_    0.219874 0.734310 0.284428 0.255663
H58   H     H_    0.282046 0.676871 0.198157 0.242947
H59   H     H_    0.366241 0.798391 0.270746 0.200940
H60   H     H_    0.407097 0.691671 0.297621 0.248484
H61   H     H_    0.341517 0.686933 0.459618 0.184698
H62   H     H_    0.286163 0.783082 0.438056 0.192625
H63   H     H_    0.496400 0.225147 0.350021 0.167811
H64   H     H_    0.612811 0.781568 0.560294 0.136773
H65   H     H_    0.499981 0.065954 0.347268 0.136374
H66   H     H_    0.611366 0.942092 0.557198 0.138590
H67   H     H_    0.612464 0.581282 0.065847 0.124189
H68   H     H_    0.412463 0.389482 0.934436 0.125658
C63   C     C_3   0.619431 0.619320 0.245720 -0.388176
C64   C     C_3   0.603091 0.714407 0.209565 -0.392400
C65   C     C_3   0.657595 0.782428 0.261284 -0.845373
H69   H     H_    0.641947 0.780074 0.339181 0.259056
H70   H     H_    0.725514 0.769064 0.250576 0.249637
H71   H     H_    0.645579 0.850013 0.232268 0.242991
H72   H     H_    0.617380 0.721664 0.131525 0.213010
H73   H     H_    0.535811 0.729474 0.221638 0.222719
H74   H     H_    0.617487 0.620288 0.323380 0.261780
H75   H     H_    0.684740 0.601940 0.225013 0.166636
C66   C     C_3   0.378921 0.382909 0.754259 -0.395571
C67   C     C_3   0.290962 0.418595 0.774620 -0.344451
C68   C     C_3   0.221817 0.359880 0.732374 -0.870424
H76   H     H_    0.230384 0.356689 0.653476 0.257538
H77   H     H_    0.222809 0.291787 0.764580 0.252181
H78   H     H_    0.159515 0.388042 0.748176 0.233858
H79   H     H_    0.279282 0.421547 0.853152 0.206974
H80   H     H_    0.287007 0.486848 0.743338 0.239397
H81   H     H_    0.385649 0.373644 0.677548 0.252937
H82   H     H_    0.382763 0.315257 0.787363 0.153001

loop_
_geom_bond_atom_site_label_1
_geom_bond_atom_site_label_2
_geom_bond_distance
_ccdc_geom_bond_type
C18   C20   1.426439 A    
C48   C49   1.532414 S    
C18   C54   1.533545 S    
C68   H77   1.110733 S    
C31   C63   1.520096 S    
C8    C14   1.537770 S    
C41   H3    1.110916 S    
C61   C62   1.522555 S    
C65   H69   1.110764 S    
C33   C35   1.410458 A    
C40   H7    1.111543 S    
C39   C40   1.531350 S    
O5    C3    1.297019 A    
O1    C1    1.299637 A    
C32   C66   1.516965 S    
C20   C60   1.525434 S    
C23   C25   1.377543 A    
C12   C14   1.545932 S    
C36   H20   1.077977 S    
C56   H43   1.110588 S    
Cu1   N2    2.023453 S    
C8    C42   1.529917 S    
C52   H38   1.111225 S    
C4    C10   1.422211 S    
C55   C56   1.526824 S    
C55   H46   1.107970 S    
O4    Cu1   1.945976 S    
C58   C59   1.526501 S    
C19   C57   1.533919 S    
C64   H73   1.109379 S    
C49   H31   1.111600 S    
C39   H8    1.111593 S    
C46   H24   1.108400 S    
C35   C37   1.419950 A    
C48   H33   1.110448 S    
C30   H68   1.078394 S    
C6    C48   1.529465 S    
C36   C38   1.420053 A    
C54   C55   1.532326 S    
C19   C21   1.428201 A    
C43   H14   1.109001 S    
C50   H29   1.110762 S    
C57   H55   1.103349 S    
C62   H58   1.110331 S    
C51   H40   1.108854 S    
C5    C11   1.549297 S    
C9    C15   1.197939 T    
C45   H26   1.109947 S    
C6    C12   1.548864 S    
C10   C16   1.197966 T    
Cu1   Cu2   2.693556 S    
C68   H78   1.109557 S    
C29   C31   1.405558 A    
O2    C2    1.293489 A    
C30   C32   1.405266 A    
C65   H70   1.110810 S    
C32   N2    1.386598 A    
C51   C52   1.536603 S    
Cu2   N1    2.023453 S    
C49   H32   1.108195 S    
C40   H6    1.108782 S    
N1    C33   1.362553 A    
C25   C27   1.394377 A    
N2    C34   1.362510 A    
C7    C12   1.549105 S    
C42   C43   1.532117 S    
C8    C11   1.549325 S    
C34   H18   1.081850 S    
C60   H62   1.110400 S    
C33   H17   1.081798 S    
O4    C2    1.297232 A    
C56   H42   1.111016 S    
C56   H44   1.110537 S    
C27   C28   1.470886 S    
C47   H22   1.111020 S    
C46   C47   1.525592 S    
C5    C14   1.539134 S    
C44   H11   1.110923 S    
C45   C46   1.530638 S    
C3    C9    1.422226 S    
C2    C22   1.452721 S    
C1    C21   1.477452 S    
C20   C22   1.420589 A    
C55   H45   1.111586 S    
O7    Cu2   1.925704 S    
C67   H80   1.111549 S    
C64   H72   1.110730 S    
C61   H60   1.106418 S    
O7    C3    1.294814 A    
C39   H9    1.110130 S    
C53   H35   1.111048 S    
H2    C11   1.110010 S    
O5    Cu1   1.933348 S    
O6    C4    1.297410 A    
C44   H12   1.110385 S    
C48   H34   1.110181 S    
C17   C27   1.426303 A    
C35   H19   1.077831 S    
C18   C28   1.427706 A    
C58   H53   1.106768 S    
C43   H13   1.111546 S    
C49   C50   1.525346 S    
C50   H30   1.110375 S    
C31   N1    1.388070 A    
C54   H47   1.103992 S    
C67   C68   1.525712 S    
C59   H50   1.110696 S    
O8    C4    1.294370 A    
C51   H41   1.103238 S    
C63   H75   1.112196 S    
C53   H36   1.110859 S    
C42   H15   1.109815 S    
C45   H27   1.110317 S    
C52   C53   1.527310 S    
C41   H4    1.111287 S    
O1    Cu1   1.958012 S    
C60   C61   1.537371 S    
C7    C39   1.530114 S    
C65   H71   1.110433 S    
C62   H56   1.110851 S    
C59   H51   1.108118 S    
C6    C13   1.538417 S    
C5    C7    1.544384 S    
C40   C41   1.525745 S    
O6    Cu2   1.933346 S    
C63   H74   1.085048 S    
C60   H61   1.108987 S    
C64   C65   1.527144 S    
O3    C1    1.304480 A    
O8    Cu1   1.925703 S    
C47   H23   1.110432 S    
C59   H49   1.110992 S    
O3    Cu2   1.945979 S    
C13   C15   1.455400 S    
C29   H67   1.077895 S    
C14   C16   1.455488 S    
C17   C51   1.537642 S    
C66   H82   1.112748 S    
C7    C13   1.538892 S    
C43   C44   1.525306 S    
C24   C26   1.376682 A    
H1    C12   1.110254 S    
C50   H28   1.110898 S    
C37   C38   1.526059 S    
C17   C19   1.426622 A    
C61   H59   1.110294 S    
C23   H63   1.083133 S    
C26   C28   1.397272 A    
C5    C45   1.529734 S    
C24   H64   1.084299 S    
C52   H39   1.104592 S    
C34   C36   1.410682 A    
C21   C23   1.399149 A    
C22   C24   1.389564 A    
C58   H52   1.112135 S    
C11   C13   1.546663 S    
O2    Cu2   1.958009 S    
C54   H48   1.104636 S    
C47   H21   1.111072 S    
C46   H25   1.109692 S    
C67   H79   1.111446 S    
C53   H37   1.110528 S    
C42   H16   1.111582 S    
C6    C8    1.543249 S    
C44   H10   1.111057 S    
C25   H65   1.083253 S    
C41   H5    1.110306 S    
C66   H81   1.088285 S    
C68   H76   1.110441 S    
C26   H66   1.084022 S    
C66   C67   1.536690 S    
C57   C58   1.541416 S    
C57   H54   1.107778 S    
C29   C37   1.396185 A    
C63   C64   1.539399 S    
C30   C38   1.396077 A    
C62   H57   1.109039 S    
