data_mof_unit_40534.cif
_audit_creation_date              2013-03-05T16:45:07-0500
_audit_creation_method            fapswitch 2.2
_symmetry_space_group_name_H-M    P1
_symmetry_Int_Tables_number       1
_space_group_crystal_system       triclinic
_cell_length_a                    15.029056
_cell_length_b                    15.101175
_cell_length_c                    9.899124
_cell_angle_alpha                 89.574002
_cell_angle_beta                  89.474377
_cell_angle_gamma                 90.187987
_cell_volume                      2246.50035765

loop_
_atom_site_label
_atom_site_type_symbol
_atom_site_description
_atom_site_fract_x
_atom_site_fract_y
_atom_site_fract_z
_atom_type_partial_charge
O1    O     O_R   0.408400 0.908380 0.614690 -0.574310
O2    O     O_R   0.408400 0.091620 0.614690 -0.607122
O3    O     O_R   0.908400 0.408380 0.614690 -0.546793
O4    O     O_R   0.908400 0.591620 0.614690 -0.604473
O5    O     O_R   0.408370 0.908370 0.385350 -0.628581
O6    O     O_R   0.408370 0.091630 0.385350 -0.620306
O7    O     O_R   0.908370 0.408370 0.385350 -0.634759
O8    O     O_R   0.908370 0.591630 0.385350 -0.624264
C1    C     C_R   0.379908 0.880384 0.500121 0.894361
C2    C     C_R   0.381796 0.121754 0.500080 0.871879
C3    C     C_R   0.880390 0.379989 0.500542 0.910861
C4    C     C_R   0.882455 0.622512 0.499934 0.894099
Zn1   Zn    Zn3+2 0.500010 0.000000 0.653130 1.008447
Zn2   Zn    Zn3+2 0.000010 0.500000 0.653130 1.016278
Zn3   Zn    Zn3+2 0.499980 0.000000 0.346870 0.955932
Zn4   Zn    Zn3+2 0.999980 0.500000 0.346870 0.959483
O9    O     O_R   0.591610 0.091610 0.614650 -0.621901
O10   O     O_R   0.591610 0.908390 0.614650 -0.599517
O11   O     O_R   0.091610 0.591610 0.614650 -0.619768
O12   O     O_R   0.091610 0.408390 0.614650 -0.607292
O13   O     O_R   0.591590 0.091600 0.385310 -0.629893
O14   O     O_R   0.591590 0.908400 0.385310 -0.621923
O15   O     O_R   0.091590 0.591600 0.385310 -0.620143
O16   O     O_R   0.091590 0.408400 0.385310 -0.624880
C5    C     C_R   0.619613 0.119912 0.499418 0.873298
C6    C     C_R   0.622681 0.882720 0.499716 0.873642
C7    C     C_R   0.119558 0.619998 0.499048 0.859898
C8    C     C_R   0.121999 0.382169 0.499924 0.862995
C9    C     C_R   0.287984 0.224477 0.622664 0.112810
C10   C     C_R   0.314895 0.750590 0.401406 0.107605
C11   C     C_R   0.804503 0.740663 0.619424 0.103655
C12   C     C_R   0.813515 0.249368 0.598249 0.269600
C13   C     C_R   0.325513 0.196978 0.501086 -0.099056
C14   C     C_R   0.310634 0.817607 0.496726 -0.081640
C15   C     C_R   0.828686 0.699935 0.498733 -0.093585
C16   C     C_R   0.811613 0.316801 0.502333 -0.110695
C17   C     C_R   0.310549 0.245385 0.381982 -0.204644
C18   C     C_R   0.233744 0.829641 0.574587 -0.129291
C19   C     C_R   0.802406 0.737373 0.375230 -0.206729
C20   C     C_R   0.740689 0.325105 0.412471 -0.179311
H1    H     H_    0.344103 0.229393 0.287996 0.177098
H2    H     H_    0.224766 0.888082 0.634927 0.207991
H3    H     H_    0.825763 0.711974 0.279224 0.179978
H4    H     H_    0.736883 0.380178 0.342034 0.168931
C21   C     C_R   0.737881 0.802370 0.375044 -0.207052
C22   C     C_R   0.675896 0.259916 0.411102 -0.194372
C23   C     C_R   0.245977 0.310530 0.381938 -0.214521
C24   C     C_R   0.169113 0.764085 0.575868 -0.162333
H5    H     H_    0.712752 0.825687 0.278964 0.182923
H6    H     H_    0.621877 0.264254 0.339604 0.171882
H7    H     H_    0.230336 0.343961 0.287928 0.171391
H8    H     H_    0.111251 0.770240 0.641249 0.173722
C25   C     C_R   0.700340 0.829141 0.498359 -0.100867
C26   C     C_R   0.683145 0.188202 0.500325 -0.116120
C27   C     C_R   0.197480 0.326178 0.501022 -0.099352
C28   C     C_R   0.181588 0.689689 0.494673 -0.095684
C29   C     C_R   0.740662 0.804922 0.619153 0.082582
C30   C     C_R   0.748810 0.185576 0.598058 0.168939
C31   C     C_R   0.224555 0.288826 0.622706 0.113035
C32   C     C_R   0.250229 0.686928 0.399869 0.139866
C33   C     C_3   0.700635 0.773142 0.749439 -0.381897
C34   C     C_3   0.813442 0.112803 0.625234 -0.520045
C35   C     C_3   0.170499 0.243440 0.730361 -0.438710
C36   C     C_3   0.315601 0.614679 0.372853 -0.473815
C37   C     C_3   0.240590 0.171594 0.729550 -0.415505
C38   C     C_3   0.387473 0.685467 0.374805 -0.446524
C39   C     C_3   0.771329 0.701918 0.749878 -0.440513
C40   C     C_3   0.885467 0.183117 0.623417 -0.480691
H9    H     H_    0.708514 0.822122 0.831799 0.214075
H10   H     H_    0.819008 0.065146 0.540430 0.199973
H11   H     H_    0.168702 0.281815 0.825768 0.223675
H12   H     H_    0.306335 0.584872 0.271546 0.210810
H13   H     H_    0.632262 0.746252 0.737062 0.258620
H14   H     H_    0.802593 0.082104 0.726507 0.224875
H15   H     H_    0.104535 0.220586 0.693949 0.212956
H16   H     H_    0.320161 0.566306 0.457831 0.207466
H17   H     H_    0.278966 0.167739 0.824888 0.225680
H18   H     H_    0.419900 0.696397 0.274667 0.217318
H19   H     H_    0.820197 0.709240 0.832712 0.203683
H20   H     H_    0.932604 0.177167 0.536675 0.183135
H21   H     H_    0.215406 0.107292 0.691188 0.233454
H22   H     H_    0.433936 0.678616 0.461095 0.220365
H23   H     H_    0.743066 0.634611 0.737986 0.268349
H24   H     H_    0.917503 0.191285 0.723050 0.271675
C41   C     C_R   0.425255 0.977139 0.073428 0.121013
C42   C     C_R   0.921909 0.505972 0.072867 0.101469
N1    N     N_R   0.499140 0.000000 0.142800 -0.095063
N2    N     N_R   0.999140 0.500000 0.142800 -0.087954
C43   C     C_R   0.571526 0.029637 0.070380 -0.095127
C44   C     C_R   0.077297 0.502953 0.070688 -0.080785
H25   H     H_    0.630256 0.051506 0.123091 0.151964
H26   H     H_    0.139877 0.503337 0.123840 0.133183
C45   C     C_R   0.571621 0.029470 0.926741 -0.074636
C46   C     C_R   0.077303 0.503288 0.926950 -0.050055
H27   H     H_    0.630452 0.051118 0.871943 0.149692
H28   H     H_    0.139867 0.504058 0.872044 0.143822
N3    N     N_R   0.499160 1.000000 0.857150 -0.109987
N4    N     N_R   0.999160 0.500000 0.857150 -0.092730
C47   C     C_R   0.424708 0.977356 0.930984 0.104364
C48   C     C_R   0.921444 0.503743 0.930523 0.050781
C49   C     C_3   0.375980 0.889498 0.934162 0.487923
C50   C     C_3   0.845366 0.437542 0.935793 0.513653
C51   C     C_3   0.377897 0.891144 0.087512 -0.541396
C52   C     C_3   0.844741 0.445353 0.089483 -0.555736
H29   H     H_    0.311566 0.899268 0.136516 0.213596
H30   H     H_    0.419950 0.838966 0.134079 0.221519
H31   H     H_    0.787245 0.480543 0.135058 0.216755
H32   H     H_    0.862442 0.382792 0.142462 0.231938
N5    N     N_R   0.284512 0.894488 0.884482 0.191502
O17   O     O_R   0.251460 0.970110 0.846183 -0.470573
O18   O     O_R   0.230954 0.827526 0.903339 -0.372249
N6    N     N_R   0.427231 0.815961 0.876226 0.210102
O19   O     O_R   0.509591 0.803572 0.911045 -0.440242
O20   O     O_R   0.389556 0.758803 0.797137 -0.353141
N7    N     N_R   0.764571 0.470085 0.869643 0.191003
O21   O     O_R   0.693730 0.490229 0.939374 -0.394127
O22   O     O_R   0.759352 0.468536 0.738713 -0.402547
N8    N     N_R   0.867905 0.347249 0.894112 0.206600
O23   O     O_R   0.806847 0.286119 0.902314 -0.397274
O24   O     O_R   0.950485 0.323405 0.878280 -0.437667

loop_
_geom_bond_atom_site_label_1
_geom_bond_atom_site_label_2
_geom_bond_distance
_ccdc_geom_bond_type
C30   C34   1.493662 S    
C35   C37   1.514710 S    
C39   H23   1.107812 S    
C27   C31   1.391084 A    
C15   C19   1.403697 A    
O10   C6    1.288719 A    
C12   C30   1.366611 A    
C42   C52   1.482365 S    
N6    O20   1.301367 A    
C49   N6    1.470507 S    
O7    C3    1.282011 A    
Zn1   O10   1.991195 S    
C17   H1    1.083395 S    
C12   C16   1.387658 A    
Zn3   N1    2.020271 S    
C3    C16   1.404355 S    
C18   H2    1.077484 S    
C24   H8    1.083912 S    
N5    O18   1.301692 A    
C42   N2    1.359821 A    
C46   N4    1.368998 A    
C49   N5    1.466225 S    
N7    O21   1.301659 A    
C9    C13   1.391226 A    
C34   H10   1.112547 S    
O2    Zn1   1.992224 S    
N8    O23   1.301075 A    
C50   N7    1.469171 S    
O6    Zn3   1.991509 S    
C37   H21   1.111794 S    
Zn3   O14   1.992014 S    
C9    C31   1.363494 A    
N7    O22   1.299564 A    
C10   C32   1.365045 A    
Zn2   N4    2.019543 S    
O15   C7    1.281768 A    
C17   C23   1.384139 A    
C42   C48   1.409814 A    
C18   C24   1.384555 A    
C41   C51   1.483859 S    
C19   C21   1.382051 A    
C21   C25   1.402887 A    
Zn4   O16   1.992014 S    
C43   C45   1.421906 A    
N6    O19   1.301662 A    
N3    C47   1.371831 A    
C8    C27   1.417146 S    
C44   C46   1.422851 A    
C41   N1    1.356025 A    
C38   H18   1.111559 S    
C37   H17   1.111802 S    
C10   C14   1.390024 A    
C40   H24   1.109018 S    
Zn2   O12   1.991195 S    
C16   C20   1.399936 A    
C39   H19   1.111691 S    
C5    C26   1.403244 S    
C25   C29   1.392510 A    
C7    C28   1.403817 S    
C19   H3    1.083400 S    
O12   C8    1.285894 A    
C33   H13   1.111814 S    
C13   C17   1.402925 A    
C28   C32   1.389174 A    
C36   C38   1.517544 S    
C51   H30   1.111765 S    
C46   H28   1.081727 S    
O5    C1    1.278725 A    
C41   C47   1.410152 A    
C38   H22   1.112702 S    
C33   C39   1.514341 S    
C44   H26   1.081914 S    
C21   H5    1.083375 S    
O8    C4    1.287134 A    
C22   C26   1.397537 A    
C48   C50   1.516601 S    
C36   H16   1.112744 S    
O1    C1    1.289654 A    
C51   H29   1.112197 S    
C4    C15   1.423482 S    
C50   C52   1.526784 S    
C10   C38   1.493948 S    
O3    Zn2   1.989878 S    
C9    C37   1.494835 S    
O7    Zn4   1.981271 S    
C47   C49   1.513334 S    
C35   H11   1.111901 S    
Zn4   O15   1.989668 S    
N4    C48   1.371299 A    
N1    C43   1.369485 A    
C1    C14   1.406572 S    
C11   C15   1.393617 A    
O4    C4    1.289023 A    
C20   C22   1.382633 A    
C40   H20   1.112506 S    
O2    C2    1.286836 A    
C6    C25   1.422365 S    
C45   N3    1.368840 A    
C52   H32   1.111386 S    
O11   C7    1.285481 A    
C23   C27   1.402222 A    
C26   C30   1.388778 A    
C33   H9    1.111753 S    
C24   C28   1.398356 A    
O13   C5    1.284841 A    
C14   C18   1.396264 A    
Zn2   O11   1.980956 S    
O16   C8    1.287269 A    
N2    C44   1.369351 A    
C50   N8    1.467324 S    
O6    C2    1.287195 A    
C23   H7    1.083502 S    
C29   C33   1.493399 S    
Zn1   O9    1.980956 S    
C22   H6    1.083765 S    
C31   C35   1.495022 S    
C49   C51   1.518956 S    
C12   C40   1.496901 S    
C32   C36   1.494562 S    
O9    C5    1.282085 A    
C11   C29   1.366879 A    
O4    Zn2   1.992224 S    
N5    O17   1.302052 A    
C45   H27   1.081475 S    
Zn3   O13   1.989668 S    
C35   H15   1.112659 S    
C2    C13   1.418581 S    
C34   C40   1.513723 S    
C36   H12   1.112021 S    
Zn1   N3    2.019543 S    
N8    O24   1.301826 A    
O5    Zn3   1.981271 S    
O3    C3    1.285533 A    
C11   C39   1.494529 S    
C20   H4    1.083300 S    
O1    Zn1   1.989879 S    
O8    Zn4   1.991509 S    
C43   H25   1.081433 S    
O14   C6    1.286737 A    
Zn4   N2    2.020271 S    
C34   H14   1.111812 S    
C52   H31   1.109971 S    
