data_mof_unit_58716.cif
_audit_creation_date              2012-10-26T19:13:30-0400
_audit_creation_method            fapswitch 2.2
_symmetry_space_group_name_H-M    P1
_symmetry_Int_Tables_number       1
_space_group_crystal_system       triclinic
_cell_length_a                    13.472627
_cell_length_b                    13.897474
_cell_length_c                    15.162767
_cell_angle_alpha                 90.001748
_cell_angle_beta                  90.98434
_cell_angle_gamma                 73.020663
_cell_volume                      2714.8184276

loop_
_atom_site_label
_atom_site_type_symbol
_atom_type_description
_atom_site_fract_x
_atom_site_fract_y
_atom_site_fract_z
_atom_type_partial_charge
C1    C     C_R   0.499201 0.500259 0.669729 0.570226
C2    C     C_R   0.813573 0.417385 0.476812 -0.000269
C3    C     C_R   0.567219 0.412969 0.901848 -0.129998
C4    C     C_R   0.699171 0.447032 0.489268 0.557445
C5    C     C_R   0.562272 0.414574 0.810389 -0.194229
C6    C     C_R   0.500396 0.499713 0.765674 0.020115
C7    C     C_R   0.442230 0.583783 0.813059 0.241308
C8    C     C_R   0.444025 0.579752 0.905205 -0.089385
C9    C     C_R   0.507605 0.495193 0.949737 -0.001227
C10   C     C_R   0.532871 0.574480 0.093730 0.216123
C11   C     C_R   0.523394 0.576890 0.185335 -0.175240
C12   C     C_R   0.971561 0.466976 0.506401 -0.009953
C13   C     C_R   0.510832 0.494407 0.232220 -0.077771
C14   C     C_R   0.507558 0.407665 0.185075 0.244875
C15   C     C_R   0.499096 0.411077 0.093016 0.243698
C16   C     C_R   0.503178 0.498674 0.329507 0.553861
C17   C     C_R   0.513956 0.493538 0.046622 -0.023834
C18   C     C_R   0.419747 0.915401 0.463966 -0.176593
C19   C     C_R   0.421531 0.813921 0.460613 -0.023772
C20   C     C_R   0.575974 0.767570 0.547313 0.429455
C21   C     C_R   0.579992 0.868094 0.546933 -0.153102
C22   C     C_R   0.501425 0.944426 0.505483 -0.022440
C23   C     C_R   0.867096 0.492673 0.474000 0.022943
C24   C     C_R   0.562353 0.092228 0.565496 -0.155999
C25   C     C_R   0.560726 0.194301 0.560915 0.025320
C26   C     C_R   0.440584 0.221576 0.440863 0.174568
C27   C     C_R   0.449077 0.118494 0.439208 -0.121007
C28   C     C_R   0.300145 0.554133 0.503088 0.558597
C29   C     C_R   0.505217 0.052435 0.503814 0.013947
C30   C     C_R   0.021734 0.716446 0.488654 -0.119826
C31   C     C_R   0.186319 0.588125 0.507654 0.010602
C32   C     C_R   0.872908 0.314653 0.485388 0.004304
C33   C     C_R   0.972616 0.292653 0.522279 -0.121336
C34   C     C_R   0.025556 0.540804 0.506618 -0.002584
C35   C     C_R   0.019139 0.367975 0.536696 -0.143499
C36   C     C_3   0.176304 0.819221 0.565019 0.015273
C37   C     C_3   0.148413 0.931253 0.542150 -0.271766
C38   C     C_3   0.172337 0.992300 0.618925 -0.489965
C39   C     C_3   0.416932 0.749670 0.775984 0.011895
C40   C     C_3   0.335478 0.838466 0.816290 -0.266322
C41   C     C_3   0.373386 0.931729 0.820522 -0.488306
C42   C     C_3   0.646396 0.631878 0.009561 0.009040
C43   C     C_3   0.735228 0.628049 0.075045 -0.280156
C44   C     C_3   0.837968 0.613379 0.028416 -0.491151
C45   C     C_R   0.971081 0.641845 0.487249 -0.054425
C46   C     C_3   0.602579 0.249825 0.229976 0.044650
C47   C     C_3   0.590068 0.145040 0.215695 -0.252434
C48   C     C_3   0.693248 0.063125 0.227178 -0.495593
C49   C     C_3   0.374039 0.352661 0.026269 0.022310
C50   C     C_3   0.314204 0.320274 0.100217 -0.253437
C51   C     C_3   0.202615 0.329894 0.071526 -0.500542
C52   C     C_3   0.668743 0.711188 0.677409 -0.007575
C53   C     C_3   0.782710 0.703452 0.695559 -0.260016
C54   C     C_3   0.804470 0.710098 0.794004 -0.496395
C55   C     C_3   0.359521 0.285794 0.377474 -0.228969
C56   C     C_R   0.869279 0.666696 0.457313 -0.110352
C57   C     C_3   0.250631 0.280182 0.398725 -0.472826
C58   C     C_3   0.833398 0.227247 0.456840 -0.263956
C59   C     C_3   0.908251 0.155446 0.394740 -0.461771
C60   C     C_3   0.737587 0.668123 0.308969 0.003356
C61   C     C_3   0.683591 0.782138 0.318162 -0.261573
C62   C     C_3   0.577273 0.817212 0.272567 -0.443312
C63   C     C_R   0.821585 0.591751 0.438709 0.309705
C64   C     C_R   0.133722 0.515973 0.518247 -0.178261
C65   C     C_R   0.129183 0.690528 0.498559 0.262188
Cu1   Cu    Cu3+1 0.500000 0.403570 0.500010 0.919559
Cu2   Cu    Cu3+1 0.500000 0.596430 0.499990 1.035580
H1    H     H_    0.608710 0.350206 0.774391 0.120160
H2    H     H_    0.408620 0.091270 0.387217 0.084480
H3    H     H_    0.979239 0.794321 0.474870 0.110494
H4    H     H_    0.179739 0.439539 0.528936 0.130844
H5    H     H_    0.093683 0.345873 0.570082 0.101941
H6    H     H_    0.015300 0.216193 0.539982 0.112302
H7    H     H_    0.618329 0.347925 0.935307 0.150937
H8    H     H_    0.255309 0.794315 0.595665 0.179855
H9    H     H_    0.120377 0.808697 0.615144 0.113166
H10   H     H_    0.192857 0.942420 0.484006 0.171391
H11   H     H_    0.064410 0.959312 0.524670 0.148150
H12   H     H_    0.396133 0.642620 0.941917 0.147024
H13   H     H_    0.127709 0.983652 0.677793 0.141969
H14   H     H_    0.150649 0.073035 0.600238 0.139263
H15   H     H_    0.256670 0.967108 0.635225 0.154677
H16   H     H_    0.432949 0.770862 0.708187 0.154394
H17   H     H_    0.491058 0.735218 0.815101 0.105578
H18   H     H_    0.262763 0.855546 0.775928 0.161987
H19   H     H_    0.318118 0.818403 0.884050 0.167894
H20   H     H_    0.443515 0.917332 0.863946 0.151560
H21   H     H_    0.311602 0.995653 0.847785 0.147499
H22   H     H_    0.392528 0.952696 0.753589 0.141333
H23   H     H_    0.527615 0.643185 0.219895 0.155582
H24   H     H_    0.643075 0.691361 0.959685 0.143059
H25   H     H_    0.664176 0.559873 0.972916 0.128990
H26   H     H_    0.717377 0.699472 0.112470 0.162224
H27   H     H_    0.743950 0.564059 0.121317 0.146153
H28   H     H_    0.856341 0.544444 0.987318 0.144676
H29   H     H_    0.901222 0.605413 0.078291 0.144133
H30   H     H_    0.834143 0.679660 0.986206 0.148600
H31   H     H_    0.638984 0.252546 0.295868 0.146914
H32   H     H_    0.656423 0.262579 0.178921 0.118829
H33   H     H_    0.534248 0.131202 0.263556 0.155943
H34   H     H_    0.353896 0.970011 0.433811 0.096682
H35   H     H_    0.558637 0.140757 0.148003 0.187242
H36   H     H_    0.721483 0.060894 0.296627 0.143525
H37   H     H_    0.752252 0.076965 0.182540 0.144864
H38   H     H_    0.682292 0.989019 0.210802 0.145756
H39   H     H_    0.367986 0.309112 0.966003 0.151795
H40   H     H_    0.337051 0.433467 0.009037 0.118219
H41   H     H_    0.353728 0.240829 0.119067 0.177876
H42   H     H_    0.312480 0.368443 0.158946 0.181162
H43   H     H_    0.161281 0.409081 0.053312 0.146315
H44   H     H_    0.161302 0.306899 0.126762 0.144929
H45   H     H_    0.359754 0.793380 0.426336 0.163963
H46   H     H_    0.201389 0.280476 0.014186 0.145352
H47   H     H_    0.648606 0.651560 0.715730 0.151586
H48   H     H_    0.618714 0.784841 0.701891 0.082067
H49   H     H_    0.832587 0.630474 0.670341 0.184089
H50   H     H_    0.802861 0.765161 0.660355 0.152439
H51   H     H_    0.756084 0.782777 0.820746 0.140331
H52   H     H_    0.887556 0.704829 0.805147 0.149944
H53   H     H_    0.787258 0.647133 0.829591 0.138634
H54   H     H_    0.239147 0.282722 0.470976 0.156122
H55   H     H_    0.191040 0.344027 0.366980 0.145079
H56   H     H_    0.831017 0.744129 0.440352 0.096835
H57   H     H_    0.239173 0.209096 0.373497 0.131636
H58   H     H_    0.356403 0.364991 0.375646 0.224228
H59   H     H_    0.377046 0.257500 0.309428 0.151243
H60   H     H_    0.924363 0.197415 0.336996 0.153463
H61   H     H_    0.982397 0.116123 0.429009 0.143471
H62   H     H_    0.872816 0.097368 0.370642 0.128290
H63   H     H_    0.821154 0.185113 0.515945 0.142002
H64   H     H_    0.759496 0.253449 0.418939 0.168443
H65   H     H_    0.699012 0.637145 0.256025 0.147675
H66   H     H_    0.819058 0.654731 0.286789 0.092558
H67   H     H_    0.646198 0.884718 0.577341 0.087941
H68   H     H_    0.672644 0.803437 0.388401 0.188546
H69   H     H_    0.733883 0.824258 0.289375 0.107699
H70   H     H_    0.523833 0.779898 0.302736 0.177529
H71   H     H_    0.583428 0.800800 0.200956 0.155609
H72   H     H_    0.544217 0.899745 0.281016 0.135955
H73   H     H_    0.607529 0.045907 0.617782 0.084300
H74   H     H_    0.606704 0.222420 0.607890 0.119435
N1    N     N_R   0.500000 0.741310 0.499980 -0.208450
N2    N     N_R   0.500060 0.258650 0.499980 -0.219310
O1    O     O_R   0.499990 0.418570 0.628550 -0.517177
O2    O     O_3   0.377055 0.666155 0.769255 -0.574285
O3    O     O_3   0.548951 0.657479 0.051884 -0.582183
O4    O     O_3   0.503178 0.321452 0.228050 -0.568762
O5    O     O_3   0.480846 0.330364 0.048976 -0.571036
O6    O     O_3   0.655412 0.692850 0.586838 -0.526395
O7    O     O_3   0.730865 0.614477 0.387113 -0.531004
O8    O     O_R   0.499990 0.581440 0.628540 -0.474892
O9    O     O_R   0.650980 0.378820 0.499990 -0.541844
O10   O     O_R   0.650980 0.541690 0.499970 -0.385202
O11   O     O_R   0.500010 0.418560 0.371460 -0.489453
O12   O     O_R   0.500010 0.581430 0.371450 -0.499086
O13   O     O_R   0.349020 0.458310 0.500030 -0.534682
O14   O     O_R   0.349020 0.621180 0.500010 -0.468678
O15   O     O_3   0.177713 0.764247 0.486207 -0.574170

loop_
_geom_bond_atom_site_label_1
_geom_bond_atom_site_label_2
_ccdc_geom_bond_type
C41   H22   S    
C46   H32   S    
C22   C29   S    
C54   H53   S    
C27   C29   A    
C30   C45   A    
C32   C58   S    
C26   C55   S    
C60   H65   S    
C7    C8    A    
C49   H40   S    
C53   C54   S    
C24   H73   S    
C12   C23   A    
C26   C27   A    
C51   H46   S    
C3    C9    A    
C2    C32   A    
C36   C37   S    
C39   H17   S    
C18   C19   A    
C15   O5    S    
C53   H50   S    
Cu1   O1    S    
C10   C17   A    
C59   H60   S    
C48   H37   S    
C43   H27   S    
C20   O6    S    
Cu2   O12   S    
C42   H24   S    
C64   H4    S    
C40   H19   S    
C3    H7    S    
C24   C29   A    
C36   H9    S    
C43   H26   S    
C57   H55   S    
C55   H58   S    
C45   C56   A    
C52   O6    S    
C8    H12   S    
C1    O8    A    
C62   H72   S    
C46   O4    S    
C27   H2    S    
C53   H49   S    
C36   O15   S    
C23   C63   A    
C4    O10   A    
C46   H31   S    
C47   H35   S    
C54   H52   S    
C38   H15   S    
C50   H41   S    
C25   N2    A    
C5    H1    S    
C4    O9    A    
C30   H3    S    
C41   H20   S    
Cu2   O8    S    
C1    C6    S    
C56   H56   S    
C20   N1    A    
C24   C25   A    
C39   C40   S    
Cu1   O11   S    
C8    C9    A    
Cu1   N2    S    
C3    C5    A    
C58   C59   S    
C19   H45   S    
C48   H36   S    
C37   H10   S    
C14   O4    S    
C50   H42   S    
C47   H33   S    
C49   O5    S    
C60   C61   S    
C18   H34   S    
C40   H18   S    
C2    C4    S    
C43   C44   S    
C63   O7    S    
Cu1   O9    S    
C37   C38   S    
C44   H29   S    
C36   H8    S    
C44   H30   S    
C48   H38   S    
C55   H59   S    
C58   H64   S    
C39   O2    S    
C16   O12   A    
C34   C64   A    
C50   C51   S    
C56   C63   A    
Cu2   O14   S    
C34   C45   A    
C60   O7    S    
C62   H71   S    
C12   C35   A    
C49   H39   S    
C10   O3    S    
C33   H6    S    
C40   C41   S    
C35   H5    S    
C19   N1    A    
C54   H51   S    
C38   H14   S    
C16   O11   A    
C42   C43   S    
C12   C34   A    
C26   N2    A    
C42   O3    S    
C21   H67   S    
C52   C53   S    
C61   H68   S    
C52   H48   S    
C9    C17   S    
C31   C65   A    
C41   H21   S    
C46   C47   S    
C59   H62   S    
C51   H44   S    
C18   C22   A    
C31   C64   A    
C28   C31   S    
C25   H74   S    
C65   O15   S    
C47   C48   S    
C15   C17   A    
C6    C7    A    
C52   H47   S    
C51   H43   S    
C37   H11   S    
C21   C22   A    
Cu2   O10   S    
C32   C33   A    
C55   C57   S    
C59   H61   S    
C39   H16   S    
C1    O1    A    
C57   H57   S    
Cu1   O13   S    
C11   C13   A    
C11   H23   S    
C5    C6    A    
C38   H13   S    
C58   H63   S    
C28   O14   A    
C33   C35   A    
Cu1   Cu2   S    
C42   H25   S    
C62   H70   S    
C61   C62   S    
C30   C65   A    
C10   C11   A    
C57   H54   S    
C20   C21   A    
C49   C50   S    
C13   C16   S    
C2    C23   A    
C28   O13   A    
C14   C15   A    
C13   C14   A    
Cu2   N1    S    
C60   H66   S    
C44   H28   S    
C61   H69   S    
C7    O2    S    
