data_mof_unit_25571.cif
_audit_creation_date              2012-12-10T18:59:56-0500
_audit_creation_method            fapswitch 2.2
_symmetry_space_group_name_H-M    P1
_symmetry_Int_Tables_number       1
_space_group_crystal_system       triclinic
_cell_length_a                    10.714152
_cell_length_b                    10.714242
_cell_length_c                    9.812264
_cell_angle_alpha                 90.104302
_cell_angle_beta                  90.260587
_cell_angle_gamma                 90.238974
_cell_volume                      1126.36585122

loop_
_atom_site_label
_atom_site_type_symbol
_atom_type_description
_atom_site_fract_x
_atom_site_fract_y
_atom_site_fract_z
_atom_type_partial_charge
C1    C     C_R   0.499316 0.259791 0.499862 0.906135
C2    C     C_R   0.500683 0.740209 0.500138 0.906142
C3    C     C_R   0.872464 0.494874 0.501403 -0.050291
C4    C     C_R   0.127536 0.505123 0.498596 -0.050288
C5    C     C_R   0.939290 0.443316 0.611682 0.057042
C6    C     C_R   0.060710 0.556680 0.388317 0.057034
C7    C     C_R   0.514540 0.063718 0.376703 -0.143291
C8    C     C_R   0.485463 0.936283 0.623304 -0.143262
C9    C     C_R   0.515658 0.935968 0.376942 -0.171082
C10   C     C_R   0.484345 0.064031 0.623067 -0.171047
C11   C     C_R   0.500993 0.872621 0.500215 0.028577
C12   C     C_R   0.499007 0.127379 0.499791 0.028577
C13   C     C_R   0.566173 0.587849 0.072507 -0.082412
C14   C     C_R   0.433826 0.412152 0.927493 -0.082411
C15   C     C_R   0.566130 0.587823 0.928426 -0.062332
C16   C     C_R   0.433868 0.412178 0.071574 -0.062347
C17   C     C_R   0.259999 0.503002 0.499473 0.915061
C18   C     C_R   0.740001 0.496998 0.500527 0.915056
C19   C     C_R   0.239907 0.790885 0.173224 -0.170176
C20   C     C_R   0.760091 0.209165 0.826812 -0.170177
C21   C     C_R   0.179630 0.736859 0.285055 0.417591
C22   C     C_R   0.820372 0.263164 0.714976 0.417615
C23   C     C_R   0.120625 0.619567 0.270739 0.055359
C24   C     C_R   0.879377 0.380449 0.729267 0.055371
C25   C     C_R   0.120280 0.559900 0.143077 -0.221702
C26   C     C_R   0.879724 0.440136 0.856911 -0.221716
C27   C     C_R   0.180095 0.614901 0.031939 -0.124428
C28   C     C_R   0.819906 0.385161 0.968055 -0.124457
C29   C     C_R   0.240602 0.729813 0.047240 -0.157108
C30   C     C_R   0.759394 0.270256 0.952776 -0.157120
C31   C     C_R   0.932763 0.549928 0.390768 -0.227821
C32   C     C_R   0.067237 0.450066 0.609229 -0.227816
H1    H     H_    0.287636 0.771830 0.961252 0.151210
H2    H     H_    0.712358 0.228262 0.038769 0.151224
H3    H     H_    0.619261 0.657697 0.874032 0.128284
H4    H     H_    0.380737 0.342305 0.125968 0.128284
H5    H     H_    0.285946 0.880552 0.183749 0.154861
H6    H     H_    0.714051 0.119506 0.816306 0.154861
H7    H     H_    0.075135 0.469962 0.130271 0.152012
H8    H     H_    0.924870 0.530070 0.869699 0.152020
H9    H     H_    0.180339 0.567952 0.934143 0.149603
H10   H     H_    0.819666 0.432125 0.065837 0.149601
H11   H     H_    0.880100 0.590996 0.307502 0.154667
H12   H     H_    0.119900 0.408998 0.692496 0.154670
H13   H     H_    0.526548 0.112164 0.280766 0.144123
H14   H     H_    0.473455 0.887838 0.719242 0.144119
H15   H     H_    0.528167 0.887266 0.281112 0.141946
H16   H     H_    0.471840 0.112732 0.718901 0.141936
H17   H     H_    0.619252 0.657809 0.127638 0.122969
H18   H     H_    0.380745 0.342192 0.872362 0.122970
N1    N     N_R   0.499970 0.499970 0.857200 -0.076737
N2    N     N_R   0.500030 0.500030 0.142800 -0.076738
O1    O     O_R   0.499990 0.316750 0.614620 -0.631542
O2    O     O_R   0.500010 0.683250 0.385380 -0.631544
O3    O     O_R   0.499990 0.316780 0.385290 -0.632475
O4    O     O_R   0.500010 0.683220 0.614710 -0.632470
O5    O     O_R   0.316760 0.500000 0.614660 -0.626621
O6    O     O_R   0.683240 0.500000 0.385340 -0.626623
O7    O     O_R   0.316760 0.500020 0.385330 -0.618325
O8    O     O_R   0.683240 0.499980 0.614670 -0.618322
Zn1   Zn    Zn3+2 0.500000 0.499980 0.653120 0.960621
Zn2   Zn    Zn3+2 0.500000 0.500020 0.346880 0.960616
Cl1   Cl    Cl    0.177377 0.818971 0.440582 -0.643738
Cl2   Cl    Cl    0.822630 0.181030 0.559476 -0.643741

loop_
_geom_bond_atom_site_label_1
_geom_bond_atom_site_label_2
_ccdc_geom_bond_type
O6    Zn2   S    
C18   O6    A    
O5    Zn1   S    
C15   N1    A    
C27   C29   A    
C13   N2    A    
C20   H6    S    
C19   H5    S    
C27   H9    S    
C26   C28   A    
C14   N1    A    
N1    Zn1   S    
C2    O4    A    
C5    C32   A    
C7    C9    A    
C28   C30   A    
C6    C31   A    
C32   H12   S    
C20   C30   A    
C16   H4    S    
C3    C31   A    
C9    C11   A    
C26   H8    S    
C14   H18   S    
C1    C12   S    
C31   H11   S    
C17   O7    A    
C8    C11   A    
C13   H17   S    
C6    C23   S    
C10   C12   A    
C18   O8    A    
C19   C21   A    
C20   C22   A    
C9    H15   S    
C22   C24   A    
C13   C15   A    
C21   C23   A    
C10   H16   S    
C7    C12   A    
C14   C16   A    
C1    O3    A    
C21   Cl1   S    
C25   C27   A    
C4    C17   S    
C22   Cl2   S    
C4    C32   A    
C19   C29   A    
O3    Zn2   S    
C7    H13   S    
C5    C24   S    
C23   C25   A    
C3    C18   S    
C4    C6    A    
C2    O2    A    
C28   H10   S    
C15   H3    S    
C1    O1    A    
O4    Zn1   S    
C30   H2    S    
O7    Zn2   S    
C2    C11   S    
O2    Zn2   S    
C8    H14   S    
C17   O5    A    
O1    Zn1   S    
N2    Zn2   S    
C8    C10   A    
C25   H7    S    
C16   N2    A    
C29   H1    S    
C24   C26   A    
O8    Zn1   S    
C3    C5    A    
