data_mof_unit_26829.cif
_audit_creation_date              2012-10-26T18:53:17-0400
_audit_creation_method            fapswitch 2.2
_symmetry_space_group_name_H-M    P1
_symmetry_Int_Tables_number       1
_space_group_crystal_system       triclinic
_cell_length_a                    14.710495
_cell_length_b                    14.715347
_cell_length_c                    15.872284
_cell_angle_alpha                 76.974991
_cell_angle_beta                  102.696354
_cell_angle_gamma                 114.797606
_cell_volume                      3008.19122148

loop_
_atom_site_label
_atom_site_type_symbol
_atom_type_description
_atom_site_fract_x
_atom_site_fract_y
_atom_site_fract_z
_atom_type_partial_charge
C1    C     C_R   0.880357 0.312347 0.513863 0.543523
C2    C     C_R   0.187302 0.795234 0.473905 -0.004124
C3    C     C_R   0.782967 0.030323 0.517350 -0.136256
C4    C     C_R   0.999665 0.500032 0.659654 0.552046
C5    C     C_R   0.849934 0.130173 0.522415 -0.140020
C6    C     C_R   0.708331 0.178988 0.506027 -0.133653
C7    C     C_R   0.639063 0.079931 0.496524 0.031775
C8    C     C_R   0.678124 0.004737 0.504154 0.049593
C9    C     C_R   0.532496 0.053566 0.480464 0.030912
C10   C     C_R   0.466370 0.949995 0.480477 0.031283
C11   C     C_R   0.508580 0.877663 0.486781 -0.139551
C12   C     C_3   0.041941 0.422334 0.073148 -0.213364
C13   C     C_R   0.612380 0.904928 0.497921 -0.135797
C14   C     C_R   0.489871 0.127424 0.462351 -0.140550
C15   C     C_R   0.386009 0.100293 0.449273 -0.135126
C16   C     C_R   0.119663 0.687674 0.485036 0.544337
C17   C     C_R   0.320668 0.998867 0.455429 0.050332
C18   C     C_R   0.360057 0.922543 0.472478 0.030672
C19   C     C_R   0.215951 0.972921 0.445191 -0.135983
C20   C     C_R   0.149549 0.871663 0.453727 -0.140115
C21   C     C_R   0.291652 0.821092 0.483548 -0.137271
C22   C     C_R   0.718046 0.671984 0.359016 -0.161639
C23   C     C_3   0.000521 0.499865 0.082907 0.070070
C24   C     C_R   0.798606 0.641035 0.380505 0.040684
C25   C     C_R   0.713840 0.507880 0.486915 0.035930
C26   C     C_R   0.628677 0.535058 0.467738 0.002564
C27   C     C_R   0.633228 0.619815 0.402676 0.038915
C28   C     C_R   0.000332 0.499961 0.340347 0.551906
C29   C     C_R   0.540608 0.482607 0.511001 0.021695
C30   C     C_R   0.459215 0.517157 0.488783 0.022839
C31   C     C_R   0.468771 0.603002 0.424301 -0.146181
C32   C     C_R   0.553774 0.652700 0.382076 -0.134878
C33   C     C_R   0.531065 0.396780 0.575504 -0.145047
C34   C     C_3   0.067592 0.606264 0.040346 -0.214749
C35   C     C_R   0.446284 0.347395 0.618037 -0.130580
C36   C     C_R   0.366864 0.380318 0.597485 0.039299
C37   C     C_R   0.371209 0.464784 0.532139 0.002564
C38   C     C_R   0.282277 0.328457 0.641473 -0.160386
C39   C     C_R   0.201680 0.359342 0.619957 0.040719
C40   C     C_3   0.041308 0.422462 0.975352 -0.214138
C41   C     C_R   0.285970 0.491838 0.512882 0.036276
C42   C     C_3   0.890761 0.471273 0.935424 -0.214143
C43   C     C_3   0.891387 0.471137 0.033219 -0.212887
C44   C     C_1   0.000981 0.499785 0.250798 -0.037273
C45   C     C_3   0.066956 0.606401 0.942549 -0.213089
C46   C     C_3   0.999458 0.500092 0.917104 0.070267
C47   C     C_1   0.001001 0.499766 0.175213 -0.078232
C48   C     C_1   0.998981 0.500196 0.824796 -0.078241
C49   C     C_1   0.999006 0.500191 0.749207 -0.037597
C50   C     C_R   0.812692 0.205119 0.516017 -0.003796
Cu1   Cu    Cu3+1 0.081750 0.475690 0.522550 0.930102
Cu2   Cu    Cu3+1 0.918250 0.524310 0.477450 0.930532
H1    H     H_    0.994879 0.345086 0.103154 0.114598
H2    H     H_    0.930494 0.148836 0.530219 0.126876
H3    H     H_    0.993946 0.345269 0.958448 0.112789
H4    H     H_    0.463456 0.799326 0.480618 0.100813
H5    H     H_    0.534440 0.207639 0.455177 0.106046
H6    H     H_    0.185475 0.031072 0.431169 0.104502
H7    H     H_    0.557543 0.718182 0.332913 0.107563
H8    H     H_    0.281267 0.553024 0.462633 0.116914
H9    H     H_    0.135809 0.318675 0.653126 0.123822
H10   H     H_    0.442651 0.282116 0.667407 0.107828
H11   H     H_    0.722392 0.736874 0.309045 0.088075
H12   H     H_    0.119554 0.441596 0.963494 0.115713
H13   H     H_    0.864647 0.681943 0.347580 0.123011
H14   H     H_    0.718351 0.446427 0.536917 0.116529
H15   H     H_    0.858974 0.526096 0.894417 0.116362
H16   H     H_    0.411747 0.634365 0.404854 0.088090
H17   H     H_    0.587988 0.365278 0.594830 0.090247
H18   H     H_    0.278135 0.263845 0.691716 0.088615
H19   H     H_    0.840686 0.394968 0.917782 0.113349
H20   H     H_    0.841597 0.394765 0.062489 0.115808
H21   H     H_    0.859881 0.525888 0.039126 0.115593
H22   H     H_    0.145665 0.628871 0.930091 0.115763
H23   H     H_    0.120487 0.441428 0.108199 0.115856
H24   H     H_    0.038336 0.663658 0.901682 0.114883
H25   H     H_    0.146600 0.628655 0.074804 0.113926
H26   H     H_    0.683083 0.237591 0.506713 0.115044
H27   H     H_    0.039285 0.663464 0.046392 0.113330
H28   H     H_    0.641369 0.847125 0.502074 0.114742
H29   H     H_    0.318045 0.760439 0.502281 0.120681
H30   H     H_    0.069033 0.853293 0.445775 0.125330
H31   H     H_    0.356689 0.159351 0.435362 0.112426
H32   H     H_    0.813124 0.973219 0.522579 0.105081
N1    N     N_R   0.795410 0.560790 0.443550 -0.231615
N2    N     N_R   0.204590 0.439170 0.556520 -0.232019
O1    O     O_R   0.977910 0.338120 0.529720 -0.507401
O2    O     O_R   0.839850 0.379180 0.491640 -0.511132
O3    O     O_R   0.069060 0.479460 0.639610 -0.494552
O4    O     O_R   0.931000 0.520530 0.601530 -0.496774
O5    O     O_R   0.160150 0.620820 0.508360 -0.511636
O6    O     O_R   0.022090 0.661880 0.470280 -0.507169
O7    O     O_R   0.069000 0.479470 0.398470 -0.497446
O8    O     O_R   0.930940 0.520540 0.360390 -0.494631

loop_
_geom_bond_atom_site_label_1
_geom_bond_atom_site_label_2
_ccdc_geom_bond_type
C43   H21   S    
C38   H18   S    
C1    O1    A    
C43   H20   S    
C20   H30   S    
C18   C21   A    
Cu2   O4    S    
C19   C20   A    
C7    C8    A    
C45   C46   S    
C40   C46   S    
C41   N2    A    
C12   C23   S    
C26   C27   A    
C8    C13   A    
C45   H24   S    
C36   C37   A    
C34   H25   S    
C38   C39   A    
C6    H26   S    
C29   C33   A    
C23   C43   S    
C28   O8    A    
C42   C46   S    
Cu1   O5    S    
C22   H11   S    
C35   C36   A    
Cu2   O8    S    
C2    C16   S    
C1    C50   S    
C12   H1    S    
C44   C47   T    
C33   H17   S    
C40   H3    S    
C1    O2    A    
C13   H28   S    
Cu1   N2    S    
C4    O4    A    
C19   H6    S    
C31   H16   S    
C39   H9    S    
C46   C48   S    
C23   C47   S    
C2    C20   A    
Cu1   Cu2   S    
C5    H2    S    
Cu2   O2    S    
C3    C8    A    
Cu1   O1    S    
C17   C19   A    
C24   N1    A    
C15   H31   S    
C25   C26   A    
C28   C44   S    
C30   C37   A    
C28   O7    A    
C12   C40   S    
C9    C14   A    
C29   C30   A    
C34   H27   S    
C31   C32   A    
C23   C34   S    
C2    C21   A    
C25   N1    A    
C17   C18   A    
C34   C45   S    
C6    C50   A    
C24   H13   S    
Cu1   O7    S    
C48   C49   T    
C21   H29   S    
C16   O6    A    
C22   C27   A    
C42   H15   S    
C22   C24   A    
C5    C50   A    
Cu2   O6    S    
C42   C43   S    
C4    O3    A    
C9    C10   A    
C15   C17   A    
C14   H5    S    
Cu2   N1    S    
C27   C32   A    
C25   H14   S    
C41   H8    S    
C3    C5    A    
C6    C7    A    
C40   H12   S    
C4    C49   S    
C36   C38   A    
Cu1   O3    S    
C11   C13   A    
C30   C31   A    
C10   C18   A    
C32   H7    S    
C42   H19   S    
C33   C35   A    
C35   H10   S    
C37   C41   A    
C10   C11   A    
C7    C9    A    
C16   O5    A    
C26   C29   A    
C12   H23   S    
C3    H32   S    
C14   C15   A    
C45   H22   S    
C39   N2    A    
C11   H4    S    
