data_mof_unit_19461.cif
_audit_creation_date              2012-12-11T16:26:24-0500
_audit_creation_method            fapswitch 2.2
_symmetry_space_group_name_H-M    P1
_symmetry_Int_Tables_number       1
_space_group_crystal_system       triclinic
_cell_length_a                    6.937883
_cell_length_b                    17.538888
_cell_length_c                    19.445671
_cell_angle_alpha                 108.593128
_cell_angle_beta                  89.595401
_cell_angle_gamma                 90.572771
_cell_volume                      2242.57195301

loop_
_atom_site_label
_atom_site_type_symbol
_atom_type_description
_atom_site_fract_x
_atom_site_fract_y
_atom_site_fract_z
_atom_type_partial_charge
O1    O     O_R   0.494330 0.415720 0.413720 -0.536237
O2    O     O_R   0.819330 0.430070 0.560210 -0.541995
O3    O     O_R   0.994320 0.584280 0.586280 -0.536866
C1    C     C_R   0.650236 0.415392 0.582166 0.701057
O4    O     O_R   0.823730 0.406300 0.412670 -0.537042
O5    O     O_R   0.998760 0.560340 0.437690 -0.545300
C2    C     C_R   0.654923 0.383413 0.385077 0.695792
O6    O     O_R   0.489890 0.439660 0.562310 -0.544294
O7    O     O_3   0.662340 0.550560 0.508380 -0.369068
V1    V     V_3+5 0.935370 0.490620 0.498450 1.415108
O8    O     O_R   0.328750 0.569930 0.439790 -0.541347
C3    C     C_R   0.160724 0.585143 0.418245 0.704075
O9    O     O_R   0.324340 0.593700 0.587330 -0.537551
C4    C     C_R   0.155473 0.616555 0.614940 0.695986
V2    V     V_3+5 0.435940 0.509380 0.501550 1.414147
O10   O     O_3   0.159100 0.449440 0.491620 -0.367713
H1    H     H_    0.871945 0.851678 0.570350 0.119615
C5    C     C_R   0.291554 0.601858 0.750518 -0.149318
C6    C     C_R   0.356593 0.592556 0.814968 -0.115931
C7    C     C_R   0.344131 0.655958 0.879544 -0.115765
C8    C     C_R   0.266533 0.729144 0.880168 -0.135185
C9    C     C_R   0.200949 0.740739 0.815449 0.071082
C10   C     C_R   0.213752 0.675748 0.749231 0.068302
C11   C     C_R   0.119981 0.814975 0.816203 -0.184226
C12   C     C_R   0.051822 0.824196 0.750700 0.068890
C13   C     C_R   0.064635 0.759207 0.684482 0.069779
C14   C     C_R   0.145576 0.684967 0.683730 -0.184791
C15   C     C_R   0.974005 0.898083 0.749413 -0.149076
C16   C     C_R   0.908967 0.907385 0.684963 -0.124144
C17   C     C_R   0.921452 0.843986 0.620386 -0.113802
C18   C     C_R   0.999062 0.770803 0.619762 -0.132135
H2    H     H_    0.301885 0.550234 0.702035 0.110115
H3    H     H_    0.415830 0.535622 0.814831 0.127346
H4    H     H_    0.393643 0.648266 0.929579 0.117472
H5    H     H_    0.257191 0.776054 0.932059 0.099705
H6    H     H_    0.963661 0.949706 0.797897 0.109161
H7    H     H_    0.849716 0.964316 0.685101 0.117238
H8    H     H_    0.008423 0.723896 0.567870 0.102250
C19   C     C_R   0.307758 0.634140 0.321559 -0.215539
C20   C     C_R   0.153251 0.634670 0.369056 -0.083791
C21   C     C_R   0.990600 0.681922 0.368660 -0.226691
C22   C     C_R   0.982426 0.728808 0.322108 0.088800
C23   C     C_R   0.136893 0.727102 0.274010 0.056115
C24   C     C_R   0.299604 0.679225 0.273485 0.091397
C25   C     C_R   0.822563 0.777492 0.322808 -0.184775
C26   C     C_R   0.814458 0.823315 0.275669 -0.158659
C27   C     C_R   0.965798 0.821137 0.226796 0.098256
C28   C     C_R   0.128538 0.773282 0.226294 0.066544
C29   C     C_R   0.282974 0.771546 0.178177 0.105432
C30   C     C_R   0.442891 0.722905 0.177507 -0.193765
C31   C     C_R   0.450999 0.677087 0.224646 -0.181958
C32   C     C_R   0.957520 0.866114 0.178631 -0.171929
C33   C     C_R   0.111924 0.865481 0.131063 -0.068586
C34   C     C_R   0.274674 0.818318 0.131537 -0.203264
H9    H     H_    0.432957 0.597443 0.321079 0.123334
H10   H     H_    0.871374 0.683041 0.405321 0.125576
H11   H     H_    0.702973 0.779760 0.359540 0.139051
H12   H     H_    0.688906 0.860068 0.277097 0.161158
H13   H     H_    0.832288 0.902782 0.179075 0.124169
H14   H     H_    0.393862 0.817155 0.094849 0.117539
H15   H     H_    0.562477 0.720634 0.140772 0.129281
H16   H     H_    0.576551 0.640334 0.223216 0.133671
C35   C     C_R   0.783661 0.182396 0.866945 -0.182740
C36   C     C_R   0.622958 0.133257 0.867976 -0.114044
C37   C     C_R   0.467251 0.130893 0.821275 -0.152925
C38   C     C_R   0.471201 0.176580 0.773770 0.163700
C39   C     C_R   0.631453 0.226736 0.773756 -0.026093
C40   C     C_R   0.788159 0.230018 0.820775 -0.030963
C41   C     C_R   0.317191 0.173162 0.726392 -0.126122
C42   C     C_R   0.320232 0.219941 0.680015 -0.198384
C43   C     C_R   0.477648 0.270769 0.679971 0.123288
C44   C     C_R   0.634631 0.273813 0.726734 0.054613
C45   C     C_R   0.794763 0.323866 0.726528 -0.001173
C46   C     C_R   0.948509 0.327572 0.774033 -0.265889
C47   C     C_R   0.945414 0.281310 0.820899 0.603803
C48   C     C_R   0.481363 0.318207 0.633749 -0.230544
C49   C     C_R   0.642280 0.367104 0.632334 -0.083783
C50   C     C_R   0.798437 0.369428 0.678884 -0.175299
H17   H     H_    0.903185 0.184605 0.903148 0.176630
H18   H     H_    0.343400 0.092691 0.821351 0.116454
H19   H     H_    0.193310 0.134772 0.725652 0.114188
H20   H     H_    0.198822 0.216627 0.644391 0.128574
H21   H     H_    0.360985 0.315817 0.597834 0.124443
H22   H     H_    0.922313 0.407559 0.678637 0.122678
H23   H     H_    0.071959 0.366177 0.774733 0.159205
H24   H     H_    0.354214 0.148563 0.428970 0.144984
C51   C     C_R   0.799529 0.398109 0.249827 -0.150280
C52   C     C_R   0.869221 0.407343 0.185561 -0.124283
C53   C     C_R   0.857194 0.343903 0.120981 -0.102648
C54   C     C_R   0.775412 0.270746 0.120177 -0.130332
C55   C     C_R   0.705140 0.259205 0.184725 0.068156
C56   C     C_R   0.717450 0.324231 0.250941 0.064751
C57   C     C_R   0.620022 0.184993 0.183798 -0.148204
C58   C     C_R   0.547154 0.175817 0.249103 -0.012170
C59   C     C_R   0.559431 0.240843 0.315315 0.075927
C60   C     C_R   0.644597 0.315062 0.316254 -0.157397
C61   C     C_R   0.465106 0.101922 0.250189 -0.240396
C62   C     C_R   0.395308 0.092635 0.314440 0.670299
C63   C     C_R   0.407310 0.156117 0.379030 -0.194749
C64   C     C_R   0.489099 0.229286 0.379843 -0.239309
H25   H     H_    0.809643 0.449790 0.298295 0.110530
H26   H     H_    0.931712 0.464262 0.185837 0.122152
H27   H     H_    0.910295 0.351546 0.071080 0.141517
H28   H     H_    0.766605 0.223819 0.068273 0.106666
H29   H     H_    0.455160 0.050296 0.201668 0.136422
H30   H     H_    0.497854 0.276219 0.431744 0.133624
O11   O     O_R   0.775200 0.060470 0.937800 -0.547011
O12   O     O_R   0.441110 0.093720 0.087350 -0.535872
O13   O     O_R   0.266330 0.939630 0.062280 -0.542900
C65   C     C_R   0.609853 0.116644 0.114986 0.698472
O14   O     O_R   0.445750 0.069950 0.939820 -0.536587
O15   O     O_R   0.271000 0.915700 0.913700 -0.538447
C66   C     C_R   0.614864 0.084760 0.917968 0.703594
O16   O     O_R   0.770530 0.084400 0.086380 -0.536650
O17   O     O_3   0.602830 0.949510 0.991680 -0.371378
V3    V     V_3+5 0.329710 0.009370 0.001550 1.434990
O18   O     O_R   0.940990 0.906170 0.912570 -0.538948
C67   C     C_R   0.109926 0.883370 0.885002 0.691677
O19   O     O_R   0.936350 0.929940 0.060100 -0.544518
C68   C     C_R   0.104371 0.914858 0.081751 0.705593
V4    V     V_3+5 0.829160 0.990450 0.998310 1.418760
O20   O     O_3   0.105910 0.050480 0.008320 -0.365839
F1    F     F_    0.096555 0.286725 0.866259 -0.695411
F2    F     F_    0.317007 0.021322 0.314049 -0.691103

loop_
_geom_bond_atom_site_label_1
_geom_bond_atom_site_label_2
_ccdc_geom_bond_type
C51   C52   A    
C57   C58   A    
O17   V4    S    
C21   C22   A    
C59   C60   A    
C1    O6    A    
C61   C62   A    
C33   C68   S    
C35   H17   S    
C33   C34   A    
C40   C47   A    
C62   F2    S    
C2    C60   S    
C25   H11   S    
C13   C14   A    
V3    O20   S    
C47   F1    S    
C8    C9    A    
C15   C16   A    
C39   C44   A    
O5    C3    A    
C17   C18   A    
C38   C41   A    
C29   C34   A    
C62   C63   A    
C56   C60   A    
C5    C6    A    
C45   C46   A    
O18   V4    S    
O11   C66   A    
O13   V3    S    
C51   H25   S    
O16   V4    S    
O8    V2    S    
C19   H9    S    
C27   C28   A    
C45   C50   A    
C42   C43   A    
O1    V2    S    
C10   C14   A    
C4    C14   S    
C23   C28   A    
C65   O16   A    
C55   C56   A    
C57   C65   S    
C61   H29   S    
C52   C53   A    
C38   C39   A    
C13   C18   A    
C37   H18   S    
O9    C4    A    
C53   H27   S    
H1    C17   S    
C41   C42   A    
C31   H16   S    
C48   H21   S    
O19   V4    S    
C46   C47   A    
C5    C10   A    
C11   C12   A    
C6    H3    S    
C19   C20   A    
O4    C2    A    
C59   C64   A    
C34   H14   S    
C58   C61   A    
C12   C13   A    
C49   C50   A    
C39   C40   A    
C12   C15   A    
C22   C25   A    
C3    C20   S    
O2    C1    A    
C23   C24   A    
C21   H10   S    
C16   C17   A    
C32   H13   S    
C50   H22   S    
C55   C57   A    
C63   C64   A    
O19   C68   A    
C30   C31   A    
O14   C66   A    
C26   C27   A    
C48   C49   A    
H24   C63   S    
C54   H28   S    
V4    O20   S    
C27   C32   A    
O3    C4    A    
C24   C31   A    
C28   C29   A    
C37   C38   A    
O6    V2    S    
O9    V2    S    
C9    C11   A    
C5    H2    S    
C22   C23   A    
O11   V4    S    
O2    V1    S    
O15   V3    S    
C32   C33   A    
O7    V1    S    
C35   C40   A    
C20   C21   A    
C36   C66   S    
O1    C2    A    
C11   C67   S    
C44   C45   A    
O5    V1    S    
C52   H26   S    
O8    C3    A    
C19   C24   A    
C8    H5    S    
C64   H30   S    
C18   H8    S    
O14   V3    S    
C36   C37   A    
O12   V3    S    
C6    C7    A    
O7    V2    S    
C7    H4    S    
C1    C49   S    
O3    V1    S    
V1    O10   S    
O18   C67   A    
O15   C67   A    
C54   C55   A    
C43   C48   A    
O12   C65   A    
C46   H23   S    
C58   C59   A    
C42   H20   S    
C41   H19   S    
C35   C36   A    
C25   C26   A    
O4    V1    S    
C43   C44   A    
C7    C8    A    
C15   H6    S    
C29   C30   A    
C16   H7    S    
C30   H15   S    
C9    C10   A    
O17   V3    S    
C53   C54   A    
C51   C56   A    
C26   H12   S    
V2    O10   S    
O13   C68   A    
