data_mof_unit_68441.cif
_audit_creation_date              2013-03-05T15:39:22-0500
_audit_creation_method            fapswitch 2.2
_symmetry_space_group_name_H-M    P1
_symmetry_Int_Tables_number       1
_space_group_crystal_system       triclinic
_cell_length_a                    20.577293
_cell_length_b                    22.397765
_cell_length_c                    8.70266
_cell_angle_alpha                 89.681653
_cell_angle_beta                  103.565421
_cell_angle_gamma                 89.964664
_cell_volume                      3898.96697352

loop_
_atom_site_label
_atom_site_type_symbol
_atom_site_description
_atom_site_fract_x
_atom_site_fract_y
_atom_site_fract_z
_atom_type_partial_charge
P1    P     P_3+3 0.859590 0.433890 0.993820 0.470189
P2    P     P_3+3 0.859590 0.566110 0.493820 0.470686
P3    P     P_3+3 0.359590 0.933890 0.993820 0.471151
P4    P     P_3+3 0.359590 0.066110 0.493820 0.464394
O1    O     O_2   0.866180 0.413660 0.823810 -0.348686
O2    O     O_2   0.866180 0.586340 0.323810 -0.361261
O3    O     O_2   0.366180 0.913660 0.823810 -0.356349
O4    O     O_2   0.366180 0.086340 0.323810 -0.372712
O5    O     O_3   0.922050 0.469730 0.097400 -0.431450
O6    O     O_3   0.922050 0.530270 0.597400 -0.452285
O7    O     O_3   0.422050 0.969730 0.097400 -0.428342
O8    O     O_3   0.422050 0.030270 0.597400 -0.450452
O9    O     O_3   0.976760 0.360270 0.628090 -0.372744
O10   O     O_3   0.976760 0.639730 0.128090 -0.398054
O11   O     O_3   0.476760 0.860270 0.628090 -0.416199
O12   O     O_3   0.476760 0.139730 0.128090 -0.373757
O13   O     O_2   0.860312 0.321239 0.673918 -0.334394
O14   O     O_2   0.861230 0.683021 0.174601 -0.348858
O15   O     O_2   0.362928 0.815560 0.687056 -0.346293
O16   O     O_2   0.366008 0.189857 0.175912 -0.360133
O17   O     O_3   0.786857 0.476396 0.948149 -0.590095
O18   O     O_3   0.784788 0.525564 0.447696 -0.579026
O19   O     O_3   0.287891 0.978731 0.946021 -0.579219
O20   O     O_3   0.284434 0.027529 0.456618 -0.580480
O21   O     O_3   0.939609 0.238731 0.634481 -0.524308
O22   O     O_3   0.935092 0.762433 0.087806 -0.582026
O23   O     O_3   0.432659 0.738319 0.581350 -0.584643
O24   O     O_3   0.451718 0.263150 0.101804 -0.528797
H1    H     H_    0.021835 0.253452 0.538404 0.100063
H2    H     H_    0.016203 0.737550 0.261166 0.184102
H3    H     H_    0.506194 0.760655 0.776782 0.176443
H4    H     H_    0.546371 0.235235 0.089495 0.134175
C1    C     C_3   0.019665 0.161776 0.620870 0.145413
C2    C     C_3   0.028501 0.827349 0.176532 0.103026
C3    C     C_3   0.520964 0.671101 0.700667 0.109064
C4    C     C_3   0.533264 0.329798 0.032588 0.143052
H5    H     H_    0.980396 0.129575 0.636556 0.150128
H6    H     H_    0.986771 0.855181 0.198746 0.154473
H7    H     H_    0.480607 0.647424 0.741894 0.116858
H8    H     H_    0.492717 0.359224 0.965123 0.133987
P5    P     P_3+3 0.140130 0.433190 0.695710 0.472311
P6    P     P_3+3 0.140130 0.566810 0.195710 0.467305
P7    P     P_3+3 0.640130 0.933190 0.695710 0.447724
P8    P     P_3+3 0.640130 0.066810 0.195710 0.476540
P9    P     P_3+3 0.087493 0.306947 0.115507 0.517008
P10   P     P_3+3 0.086130 0.694130 0.622797 0.476828
P11   P     P_3+3 0.588709 0.808171 0.119494 0.478947
P12   P     P_3+3 0.585307 0.195131 0.621144 0.469576
O25   O     O_2   0.133470 0.412980 0.865660 -0.387310
O26   O     O_2   0.133470 0.587020 0.365660 -0.361343
O27   O     O_2   0.633470 0.912980 0.865660 -0.381297
O28   O     O_2   0.633470 0.087020 0.365660 -0.369322
O29   O     O_3   0.022720 0.360150 0.061220 -0.386229
O30   O     O_3   0.022720 0.639850 0.561220 -0.402003
O31   O     O_3   0.522720 0.860150 0.061220 -0.402928
O32   O     O_3   0.522720 0.139850 0.561220 -0.432704
O33   O     O_2   0.130997 0.313700 0.994386 -0.295038
O34   O     O_2   0.137058 0.684904 0.519513 -0.319320
O35   O     O_2   0.632872 0.813837 0.999248 -0.311315
O36   O     O_2   0.631457 0.192411 0.504046 -0.309962
O37   O     O_3   0.207791 0.485336 0.719200 -0.598291
O38   O     O_3   0.210682 0.520437 0.208225 -0.610689
O39   O     O_3   0.703097 0.989630 0.711021 -0.601151
O40   O     O_3   0.708513 0.016211 0.215764 -0.608360
O41   O     O_3   0.048749 0.238686 0.057857 -0.435850
O42   O     O_3   0.048265 0.762398 0.558323 -0.481834
O43   O     O_3   0.551960 0.738368 0.073637 -0.481338
O44   O     O_3   0.546201 0.264501 0.580716 -0.505238
C5    C     C_3   0.042599 0.206020 0.190855 0.388750
C6    C     C_3   0.036785 0.793767 0.688743 0.335897
C7    C     C_3   0.541126 0.710455 0.210209 0.372589
C8    C     C_3   0.476623 0.256168 0.541166 0.414245
H9    H     H_    0.032715 0.235121 0.285296 -0.058580
H10   H     H_    0.023392 0.764161 0.779891 -0.003654
H11   H     H_    0.530498 0.742360 0.298959 -0.007536
H12   H     H_    0.460406 0.241177 0.416677 0.158878
H13   H     H_    0.089444 0.180415 0.236268 0.069041
H14   H     H_    0.082426 0.819556 0.742672 0.083141
H15   H     H_    0.585979 0.683518 0.264842 0.075261
H16   H     H_    0.460090 0.223339 0.620419 0.011357
C9    C     C_3   0.984607 0.162088 0.143434 -0.407845
C10   C     C_3   0.979080 0.837456 0.634148 -0.368237
C11   C     C_3   0.481408 0.668613 0.162459 -0.413056
C12   C     C_3   0.441294 0.314047 0.561830 -0.530247
H17   H     H_    0.992640 0.131354 0.050206 0.262151
H18   H     H_    0.988039 0.867232 0.539055 0.256260
H19   H     H_    0.487241 0.638864 0.064831 0.223930
H20   H     H_    0.449933 0.324167 0.689729 0.176055
C13   C     C_3   0.232750 0.487624 0.348132 0.258879
C14   C     C_3   0.235401 0.506776 0.874303 0.273823
C15   C     C_3   0.732072 0.989431 0.365950 0.193776
C16   C     C_3   0.737694 0.007102 0.864740 0.109446
H21   H     H_    0.240683 0.517347 0.451930 0.139687
H22   H     H_    0.227686 0.475071 0.963851 0.160476
H23   H     H_    0.740427 0.023481 0.458502 0.171336
H24   H     H_    0.749560 0.967801 0.941171 0.167041
H25   H     H_    0.194700 0.454967 0.361251 0.001577
H26   H     H_    0.208545 0.547543 0.890906 0.003938
H27   H     H_    0.693054 0.959694 0.389259 0.046980
H28   H     H_    0.704794 0.035010 0.917201 0.069407
C17   C     C_3   0.300064 0.455162 0.339185 0.309363
C18   C     C_3   0.312688 0.522321 0.899174 0.311265
C19   C     C_3   0.798905 0.952012 0.372973 0.303491
C20   C     C_3   0.803359 0.045457 0.863777 0.319704
Ba1   Ba    Ba6+2 0.999900 0.456810 0.844860 1.553033
Ba2   Ba    Ba6+2 0.999900 0.543190 0.344860 1.529388
Ba3   Ba    Ba6+2 0.499900 0.956810 0.844860 1.524867
Ba4   Ba    Ba6+2 0.499900 0.043190 0.344860 1.528708
C21   C     C_3   0.799432 0.537336 0.948460 0.147015
C22   C     C_3   0.793042 0.463730 0.457452 0.163281
C23   C     C_3   0.300974 0.039880 0.942692 0.159053
C24   C     C_3   0.293767 0.966498 0.449976 0.152012
H29   H     H_    0.801027 0.550283 0.826280 0.107149
H30   H     H_    0.790900 0.447769 0.336336 0.100098
H31   H     H_    0.303179 0.051735 0.820230 0.109456
H32   H     H_    0.290377 0.955763 0.324262 0.115983
H33   H     H_    0.846443 0.551427 0.031209 0.143513
H34   H     H_    0.840138 0.448962 0.539226 0.142680
H35   H     H_    0.348016 0.053709 0.025773 0.139839
H36   H     H_    0.341674 0.949912 0.525355 0.131732
C25   C     C_3   0.741020 0.567466 0.996904 -0.067484
C26   C     C_3   0.733070 0.438412 0.512241 -0.101420
C27   C     C_3   0.242059 0.071858 0.987166 -0.092636
C28   C     C_3   0.236671 0.937271 0.505576 -0.070203
H37   H     H_    0.694143 0.541733 0.952867 0.157123
H38   H     H_    0.686307 0.459798 0.443779 0.154679
H39   H     H_    0.195307 0.045804 0.944855 0.157619
H40   H     H_    0.189316 0.962297 0.459431 0.152635
H41   H     H_    0.750348 0.569149 0.127799 0.153720
H42   H     H_    0.738103 0.449147 0.638980 0.149347
H43   H     H_    0.251007 0.074718 0.117874 0.147947
H44   H     H_    0.247126 0.937446 0.636716 0.152801
O45   O     O_3   0.077880 0.530130 0.092320 -0.388981
O46   O     O_3   0.077880 0.469870 0.592320 -0.413980
O47   O     O_3   0.577880 0.030130 0.092320 -0.383174
O48   O     O_3   0.577880 0.969870 0.592320 -0.399091
P13   P     P_3+3 0.908093 0.688512 0.060286 0.433188
P14   P     P_3+3 0.909304 0.309663 0.567810 0.460817
P15   P     P_3+3 0.413555 0.193157 0.062051 0.463122
P16   P     P_3+3 0.405959 0.812799 0.563844 0.421617
C29   C     C_3   0.983862 0.218856 0.545588 0.129527
C30   C     C_3   0.004223 0.762626 0.147350 0.203347
C31   C     C_3   0.499605 0.736283 0.663180 0.227572
C32   C     C_3   0.505733 0.265692 0.027786 0.206490
H45   H     H_    0.954347 0.207618 0.426212 0.021382
H46   H     H_    0.030122 0.740630 0.063829 0.046982
H47   H     H_    0.531825 0.757200 0.591415 0.061944
H48   H     H_    0.489874 0.252081 0.901814 -0.047802
H49   H     H_    0.982757 0.133629 0.246481 0.154121
H50   H     H_    0.976148 0.866270 0.735442 0.165852
H51   H     H_    0.478677 0.639250 0.263435 0.178434
H52   H     H_    0.386829 0.306928 0.515700 0.163987
C33   C     C_R   0.112050 0.649346 0.937847 -0.181559
C34   C     C_R   0.126600 0.360911 0.419978 -0.189173
C35   C     C_R   0.615850 0.148050 0.935047 -0.216812
C36   C     C_R   0.626530 0.861566 0.421267 -0.194654
C37   C     C_R   0.130081 0.692615 0.838820 0.127047
C38   C     C_R   0.138848 0.313148 0.326315 0.107448
C39   C     C_R   0.633583 0.191130 0.834632 0.150342
C40   C     C_R   0.639364 0.814290 0.328184 0.138122
C41   C     C_R   0.181610 0.732968 0.901901 -0.350435
C42   C     C_R   0.188501 0.270862 0.392991 -0.356332
C43   C     C_R   0.687002 0.229993 0.896469 -0.319209
C44   C     C_R   0.686882 0.770510 0.395393 -0.370352
C45   C     C_R   0.215191 0.731786 0.064783 0.114692
C46   C     C_R   0.225580 0.274342 0.553555 0.117052
C47   C     C_R   0.723763 0.226205 0.057336 0.114386
C48   C     C_R   0.720976 0.771581 0.557948 0.132484
C49   C     C_R   0.196123 0.685039 0.159504 -0.252638
C50   C     C_R   0.207445 0.321839 0.646311 -0.241540
C51   C     C_R   0.706328 0.178241 0.150150 -0.285598
C52   C     C_R   0.702598 0.818922 0.651179 -0.277747
C53   C     C_R   0.147951 0.641128 0.093178 0.265701
C54   C     C_R   0.157732 0.364860 0.581218 0.299944
C55   C     C_R   0.654097 0.137846 0.087814 0.284945
C56   C     C_R   0.656245 0.864391 0.583067 0.276847
C57   C     C_R   0.816092 0.267473 0.287710 -0.175298
C58   C     C_R   0.812353 0.727436 0.787015 -0.135403
C59   C     C_R   0.307312 0.774158 0.293102 -0.120514
C60   C     C_R   0.319879 0.232984 0.782150 -0.154734
C61   C     C_R   0.860734 0.312805 0.356820 0.243913
C62   C     C_R   0.861076 0.684155 0.852256 0.285182
C63   C     C_R   0.353154 0.819115 0.359697 0.310771
C64   C     C_R   0.367147 0.188955 0.850703 0.249827
C65   C     C_R   0.842096 0.364927 0.103798 0.343231
C66   C     C_R   0.844661 0.635332 0.599367 0.377808
C67   C     C_R   0.338346 0.867337 0.104348 0.345552
C68   C     C_R   0.347600 0.136772 0.599743 0.366047
C69   C     C_R   0.796224 0.320061 0.034714 -0.294733
C70   C     C_R   0.793662 0.677285 0.534081 -0.259288
C71   C     C_R   0.289161 0.824564 0.037964 -0.266257
C72   C     C_R   0.298263 0.179900 0.532638 -0.248858
C73   C     C_R   0.779398 0.271317 0.126501 0.131096
C74   C     C_R   0.776100 0.725182 0.626297 0.106948
C75   C     C_R   0.270956 0.777072 0.131973 0.113737
C76   C     C_R   0.282154 0.229124 0.622429 0.107217
C77   C     C_R   0.866824 0.363021 0.266987 -0.495493
C78   C     C_R   0.876849 0.639279 0.758269 -0.552092
C79   C     C_R   0.363241 0.866721 0.266819 -0.537039
C80   C     C_R   0.380241 0.141647 0.759003 -0.543441
H53   H     H_    0.810195 0.230646 0.363239 0.130471
H54   H     H_    0.803519 0.762072 0.865039 0.148952
H55   H     H_    0.300731 0.737959 0.369922 0.146957
H56   H     H_    0.312506 0.268959 0.857868 0.153789
H57   H     H_    0.194353 0.764741 0.820585 0.186730
H58   H     H_    0.197653 0.236118 0.315756 0.176218
H59   H     H_    0.698307 0.262962 0.816523 0.201732
H60   H     H_    0.696235 0.736153 0.317309 0.185570
H61   H     H_    0.773234 0.325265 0.911099 0.180697
H62   H     H_    0.767748 0.670567 0.412781 0.160593
H63   H     H_    0.265614 0.829984 0.914472 0.162627
H64   H     H_    0.271770 0.172657 0.412015 0.156315
H65   H     H_    0.221547 0.678685 0.281512 0.167121
H66   H     H_    0.232127 0.327249 0.768559 0.166470
H67   H     H_    0.733671 0.170055 0.269522 0.140485
H68   H     H_    0.725422 0.822962 0.775151 0.153126
H69   H     H_    0.889264 0.402328 0.326528 0.121965
H70   H     H_    0.911549 0.604790 0.812486 0.158626
H71   H     H_    0.388767 0.905227 0.323512 0.126514
H72   H     H_    0.413521 0.106420 0.814853 0.158008
N1    N     N_R   0.354587 0.499567 0.356063 0.249856
O49   O     O_R   0.349319 0.552265 0.414009 -0.457192
O50   O     O_R   0.411714 0.484508 0.327649 -0.402775
N2    N     N_R   0.351704 0.466339 0.922428 0.214730
O51   O     O_R   0.322657 0.414412 0.908506 -0.499053
O52   O     O_R   0.416747 0.468031 0.951897 -0.411964
N3    N     N_R   0.859417 0.989442 0.421757 0.236934
O53   O     O_R   0.856164 0.045246 0.458590 -0.479932
O54   O     O_R   0.918084 0.966615 0.426544 -0.426043
N4    N     N_R   0.864835 0.008326 0.906152 0.229909
O55   O     O_R   0.865129 0.955704 0.969889 -0.477988
O56   O     O_R   0.922156 0.031292 0.898574 -0.420967
N5    N     N_2   0.317979 0.409102 0.459055 -0.161534
H73   H     H_    0.280506 0.378902 0.460693 0.142300
C81   C     C_3   0.349691 0.427675 0.613257 -0.741160
H74   H     H_    0.362587 0.387667 0.689174 0.272988
H75   H     H_    0.312534 0.455230 0.649631 0.268086
H76   H     H_    0.396186 0.453053 0.616662 0.279008
N6    N     N_2   0.340169 0.557666 0.040258 -0.084238
H77   H     H_    0.391106 0.564163 0.060867 0.237760
C82   C     C_3   0.307171 0.610166 0.076941 -0.879384
H78   H     H_    0.335141 0.628898 0.190903 0.290205
H79   H     H_    0.258756 0.597506 0.092726 0.262954
H80   H     H_    0.302437 0.644740 0.984902 0.246531
N7    N     N_2   0.804202 0.901722 0.482396 -0.140313
H81   H     H_    0.763950 0.873767 0.459051 0.148158
C83   C     C_3   0.831305 0.910154 0.648833 -0.730322
H82   H     H_    0.834810 0.866706 0.711933 0.224088
H83   H     H_    0.797640 0.938464 0.694751 0.258890
H84   H     H_    0.881803 0.930156 0.672583 0.304387
N8    N     N_2   0.809705 0.094605 0.975627 -0.146921
H85   H     H_    0.768025 0.121245 0.959452 0.144957
C84   C     C_3   0.838702 0.082043 0.139209 -0.684364
H86   H     H_    0.834850 0.121726 0.212341 0.224815
H87   H     H_    0.892052 0.069628 0.157744 0.287047
H88   H     H_    0.811719 0.044638 0.174581 0.273877
N9    N     N_2   0.294564 0.425007 0.189964 -0.110684
H89   H     H_    0.340497 0.408497 0.182383 0.265294
C85   C     C_3   0.245613 0.378054 0.149115 -0.814379
H90   H     H_    0.242288 0.363865 0.026281 0.301439
H91   H     H_    0.195996 0.394408 0.157629 0.246763
H92   H     H_    0.260922 0.337898 0.223885 0.229752
N10   N     N_2   0.324945 0.553595 0.759779 -0.124309
H93   H     H_    0.374353 0.554970 0.753273 0.202344
C86   C     C_3   0.288284 0.607411 0.697437 -0.786511
H94   H     H_    0.279510 0.608316 0.567081 0.278822
H95   H     H_    0.318272 0.647485 0.741074 0.235285
H96   H     H_    0.238909 0.610469 0.726545 0.237060
N11   N     N_2   0.799081 0.927463 0.217896 -0.115459
H97   H     H_    0.845699 0.912955 0.210017 0.249065
C87   C     C_3   0.749799 0.882773 0.152808 -0.831999
H98   H     H_    0.761179 0.839842 0.217478 0.235574
H99   H     H_    0.751677 0.873490 0.029009 0.264645
H100  H     H_    0.699222 0.898744 0.155719 0.267575
N12   N     N_2   0.800696 0.071875 0.708636 -0.104593
H101  H     H_    0.846933 0.086649 0.698808 0.250840
C88   C     C_3   0.752693 0.118730 0.650804 -0.826723
H102  H     H_    0.751358 0.127711 0.524831 0.267802
H103  H     H_    0.767308 0.160901 0.715860 0.229259
H104  H     H_    0.702718 0.105194 0.660945 0.263477
N13   N     N_R   0.731338 0.626823 0.929942 0.264177
O57   O     O_R   0.734403 0.672862 0.021767 -0.319850
O58   O     O_R   0.711663 0.632949 0.777342 -0.403685
N14   N     N_R   0.727240 0.374203 0.488716 0.271115
O59   O     O_R   0.720209 0.339549 0.603970 -0.378279
O60   O     O_R   0.716392 0.352861 0.346553 -0.375878
N15   N     N_R   0.231613 0.131090 0.916584 0.260968
O61   O     O_R   0.230942 0.177484 0.005458 -0.333277
O62   O     O_R   0.210635 0.136278 0.764138 -0.402730
N16   N     N_R   0.227995 0.877021 0.446605 0.266008
O63   O     O_R   0.232202 0.832122 0.543910 -0.327186
O64   O     O_R   0.210897 0.868734 0.294670 -0.404970
N17   N     N_2   0.058664 0.136396 0.518226 -0.165990
H105  H     H_    0.100243 0.161068 0.511495 0.197577
C89   C     C_3   0.071332 0.072839 0.534148 -0.760778
H106  H     H_    0.097931 0.058248 0.443545 0.238059
H107  H     H_    0.023472 0.047970 0.515150 0.283965
H108  H     H_    0.102856 0.062064 0.653092 0.282556
N18   N     N_2   0.050079 0.850663 0.040717 -0.145734
H109  H     H_    0.091406 0.828963 0.019927 0.177241
C90   C     C_3   0.055532 0.914982 0.033143 -0.752434
H110  H     H_    0.068710 0.927984 0.920934 0.233862
H111  H     H_    0.095170 0.931422 0.133543 0.275355
H112  H     H_    0.007107 0.936310 0.035876 0.295153
N19   N     N_2   0.532787 0.641755 0.561649 -0.123546
H113  H     H_    0.572382 0.659541 0.522965 0.169119
C91   C     C_3   0.534427 0.577144 0.568241 -0.761590
H114  H     H_    0.539164 0.559348 0.452541 0.252727
H115  H     H_    0.487497 0.559470 0.593195 0.269833
H116  H     H_    0.577932 0.561411 0.660993 0.258606
N20   N     N_2   0.589659 0.331865 0.958332 -0.136376
H117  H     H_    0.578616 0.313856 0.846730 0.176130
C92   C     C_3   0.623805 0.388619 0.961902 -0.735405
H118  H     H_    0.660542 0.386298 0.886735 0.236132
H119  H     H_    0.651593 0.399095 0.083895 0.299106
H120  H     H_    0.587681 0.425121 0.917274 0.233654
N21   N     N_R   0.063920 0.174574 0.774368 0.298895
O65   O     O_R   0.105619 0.218916 0.787330 -0.289143
O66   O     O_R   0.074894 0.133087 0.882497 -0.384987
N22   N     N_R   0.083928 0.829194 0.315086 0.276343
O67   O     O_R   0.128218 0.786570 0.339745 -0.305642
O68   O     O_R   0.087409 0.871586 0.418220 -0.394927
N23   N     N_R   0.581866 0.669813 0.825502 0.271785
O69   O     O_R   0.625783 0.712052 0.832560 -0.303520
O70   O     O_R   0.589963 0.629561 0.936749 -0.397597
N24   N     N_R   0.553563 0.350854 0.195489 0.272358
O71   O     O_R   0.586253 0.315844 0.306938 -0.297822
O72   O     O_R   0.547507 0.407221 0.224979 -0.387258
N25   N     N_2   0.059544 0.610355 0.876602 -0.108116
H121  H     H_    0.015619 0.632112 0.827246 0.153077
C93   C     C_3   0.078816 0.564195 0.782126 -0.494542
H122  H     H_    0.033820 0.548239 0.700259 0.284715
H123  H     H_    0.103091 0.527316 0.856030 0.228872
H124  H     H_    0.114574 0.579212 0.712381 0.200374
N26   N     N_2   0.080810 0.405878 0.352405 -0.093623
H125  H     H_    0.087669 0.425594 0.250222 0.207130
C94   C     C_3   0.013257 0.391492 0.355773 -0.580583
H126  H     H_    0.980847 0.398726 0.242255 0.232157
H127  H     H_    0.993590 0.422758 0.430194 0.260198
H128  H     H_    0.007240 0.343804 0.384876 0.156005
N27   N     N_2   0.560701 0.111379 0.877703 -0.109930
H129  H     H_    0.517783 0.134885 0.830142 0.147607
C95   C     C_3   0.576448 0.063962 0.782084 -0.487820
H130  H     H_    0.530639 0.048875 0.702972 0.283520
H131  H     H_    0.600325 0.026763 0.854391 0.237188
H132  H     H_    0.610704 0.077390 0.708399 0.198021
N28   N     N_2   0.580404 0.906258 0.353067 -0.091575
H133  H     H_    0.587407 0.926220 0.251291 0.211728
C96   C     C_3   0.512819 0.891438 0.356192 -0.574263
H134  H     H_    0.480206 0.897727 0.242266 0.231013
H135  H     H_    0.492976 0.922949 0.429789 0.261535
H136  H     H_    0.507277 0.843842 0.387224 0.165989
N29   N     N_2   0.921119 0.192949 0.093992 -0.114324
H137  H     H_    0.913483 0.225820 0.169644 0.153791
C97   C     C_3   0.900656 0.210393 0.930159 -0.544703
H138  H     H_    0.846446 0.220484 0.900047 0.187757
H139  H     H_    0.909520 0.173669 0.852349 0.244273
H140  H     H_    0.927828 0.251343 0.910458 0.291149
N30   N     N_2   0.916161 0.806213 0.583850 -0.105152
H141  H     H_    0.906770 0.775859 0.665003 0.168770
C98   C     C_3   0.898267 0.785851 0.422457 -0.613896
H142  H     H_    0.844557 0.773922 0.390868 0.211781
H143  H     H_    0.927950 0.745720 0.409461 0.270004
H144  H     H_    0.906105 0.821678 0.340336 0.235946
N31   N     N_2   0.419714 0.702178 0.118065 -0.113362
H145  H     H_    0.410912 0.729226 0.206097 0.179200
C99   C     C_3   0.404069 0.729342 0.962900 -0.681448
H146  H     H_    0.349587 0.736926 0.924235 0.219706
H147  H     H_    0.417820 0.699419 0.875225 0.232416
H148  H     H_    0.430074 0.772793 0.965551 0.274146
N32   N     N_2   0.462360 0.363405 0.476705 -0.042556
H149  H     H_    0.460149 0.355848 0.359020 0.266401
C100  C     C_3   0.518032 0.398902 0.561499 -0.540218
H150  H     H_    0.522514 0.439991 0.493366 0.256164
H151  H     H_    0.565639 0.373744 0.579224 0.273356
H152  H     H_    0.509576 0.412762 0.677337 0.184998

loop_
_geom_bond_atom_site_label_1
_geom_bond_atom_site_label_2
_geom_bond_distance
_ccdc_geom_bond_type
P5    C54   1.910965 S    
N25   C93   1.436696 S    
C30   H46   1.113733 S    
P8    C55   1.899022 S    
P5    O37   1.793173 S    
C22   H34   1.108357 S    
C94   H126  1.065829 S    
C18   N2    1.475604 S    
C59   C75   1.427251 A    
C90   H110  1.110448 S    
P8    O40   1.781997 S    
P9    O33   1.541565 D    
C57   C73   1.430895 A    
N14   O59   1.299600 A    
C24   C28   1.518913 S    
C28   N16   1.442661 S    
C90   H112  1.110118 S    
C19   N3    1.480133 S    
C87   H98   1.108161 S    
C33   C53   1.391241 A    
Ba2   O45   3.025140 S    
C36   C56   1.399194 A    
N12   H101  1.029693 S    
C17   N9    1.447864 S    
C6    H10   1.114379 S    
O23   C31   1.395093 S    
N15   O62   1.299814 A    
N24   O71   1.301115 A    
O24   C32   1.410350 S    
P4    O8    1.598757 S    
C60   C76   1.427378 A    
C88   H103  1.108847 S    
C29   H45   1.103905 S    
P8    O47   1.610641 S    
N7    H81   1.021017 S    
C41   H57   1.075945 S    
C78   H70   1.080000 S    
C45   C75   1.542966 S    
P5    O25   1.580789 D    
N29   C97   1.440410 S    
C45   C49   1.439576 A    
C98   H144  1.108416 S    
P16   C63   1.857015 S    
P7    O39   1.793746 S    
N23   O69   1.300431 A    
C44   C48   1.424379 A    
C100  H152  1.108425 S    
C24   H36   1.110691 S    
O1    Ba1   2.882304 S    
C66   C70   1.421346 A    
O14   P13   1.543887 D    
Ba3   O48   3.022970 S    
C58   C74   1.423615 A    
C97   H138  1.107247 S    
O10   P13   1.771519 S    
O44   C8    1.404637 S    
O2    Ba2   2.880482 S    
N4    O56   1.302701 A    
P6    Ba2   3.470214 S    
C8    C12   1.517926 S    
P5    Ba1   3.471870 S    
N11   C87   1.445425 S    
C80   H72   1.080113 S    
C72   C76   1.437584 A    
C94   H128  1.110026 S    
Ba1   O45   2.886334 S    
C50   C54   1.420094 A    
C83   H84   1.106345 S    
N10   C86   1.454627 S    
C13   C17   1.582178 S    
C70   H62   1.076636 S    
C12   H20   1.109913 S    
C15   C19   1.598768 S    
C85   H91   1.103346 S    
P3    C67   1.876280 S    
C34   C38   1.406452 A    
P1    C65   1.891385 S    
C49   H65   1.076560 S    
C33   N25   1.396514 S    
P3    Ba3   3.468460 S    
P4    C68   1.880935 S    
C4    C32   1.541062 S    
P2    O18   1.752427 S    
C21   C25   1.522407 S    
O42   C6    1.404321 S    
C9    H49   1.105293 S    
C99   H148  1.108654 S    
H3    C31   1.112204 S    
C6    C10   1.523800 S    
H4    C32   1.112459 S    
P3    O7    1.604572 S    
C16   C20   1.603270 S    
P11   O35   1.543311 D    
N26   H125  1.029707 S    
O27   Ba3   2.883071 S    
C13   H25   1.096725 S    
N30   H141  1.028196 S    
O40   C15   1.413068 S    
C65   C77   1.392099 A    
C52   H68   1.075274 S    
C41   C45   1.423935 A    
C60   C64   1.412281 A    
C71   H63   1.076435 S    
C96   H134  1.067427 S    
C5    H13   1.110105 S    
O20   C24   1.383675 S    
O22   P13   1.746536 S    
C61   C77   1.388629 A    
C7    H15   1.110029 S    
C89   H107  1.110336 S    
C18   N6    1.462743 S    
C19   N7    1.458293 S    
O16   P15   1.548758 D    
C46   C76   1.550709 S    
C36   N28   1.408234 S    
C84   H86   1.109587 S    
C92   H119  1.107839 S    
C68   C80   1.396097 A    
C16   H24   1.092688 S    
C28   H44   1.110707 S    
C23   H35   1.109161 S    
C82   H78   1.108163 S    
C14   C18   1.592904 S    
N19   C91   1.448035 S    
Ba3   Ba4   4.752227 S    
N5    H73   1.028587 S    
C22   H30   1.105957 S    
P8    O28   1.585440 D    
P9    O29   1.765232 S    
C88   H102  1.107479 S    
P10   O34   1.546778 D    
C47   C73   1.542312 S    
O24   P15   1.753312 S    
C25   N13   1.443388 S    
C7    C11   1.525517 S    
N27   C95   1.435724 S    
C34   C54   1.402497 A    
C35   C39   1.403031 A    
C36   C40   1.398827 A    
C79   H71   1.070909 S    
Ba4   O47   3.025140 S    
C44   H60   1.076086 S    
C35   N27   1.396965 S    
C1    C29   1.539342 S    
P2    Ba2   3.470061 S    
N23   O70   1.300888 A    
N22   O68   1.300626 A    
C25   H37   1.113219 S    
N17   H105  1.031780 S    
N18   C90   1.447369 S    
C27   H39   1.112881 S    
C48   C52   1.441730 A    
H1    C29   1.112666 S    
N6    C82   1.431989 S    
C86   H95   1.106879 S    
P6    O26   1.585440 D    
N3    O54   1.302266 A    
C59   H55   1.076672 S    
C46   C50   1.439786 A    
C96   H136  1.110775 S    
N14   O60   1.298506 A    
N20   C92   1.449765 S    
P9    O41   1.745622 S    
C81   H76   1.107634 S    
O3    Ba3   2.882304 S    
C24   H32   1.107594 S    
O37   C14   1.422380 S    
C97   H139  1.110084 S    
C84   H88   1.087575 S    
O17   C21   1.389305 S    
C10   N30   1.447828 S    
C11   N31   1.446234 S    
C65   C69   1.415601 A    
N13   O58   1.300796 A    
O19   C23   1.397430 S    
C68   C72   1.420974 A    
C91   H116  1.111116 S    
O9    P14   1.775853 S    
C95   H131  1.086345 S    
C8    H16   1.112139 S    
C57   C61   1.408984 A    
C57   H53   1.076401 S    
C13   H21   1.106094 S    
P7    O48   1.604725 S    
C93   H124  1.109282 S    
C71   C75   1.440740 A    
C15   H23   1.096329 S    
C69   C73   1.438894 A    
Ba2   O46   2.871555 S    
C88   H104  1.095395 S    
P1    Ba1   3.468460 S    
O7    Ba4   2.887116 S    
C49   C53   1.422019 A    
C18   N10   1.469769 S    
N24   O72   1.301415 A    
C15   H27   1.097707 S    
C26   N14   1.454838 S    
C9    H17   1.108348 S    
P15   C64   1.865978 S    
C52   C56   1.423075 A    
C87   H100  1.106225 S    
C11   H19   1.110975 S    
C17   N1    1.481595 S    
N6    H77   1.031611 S    
C95   H130  1.084099 S    
N2    O51   1.301166 A    
N29   H137  1.026611 S    
C21   H33   1.109094 S    
N10   H93   1.031907 S    
C98   H143  1.107542 S    
P1    O1    1.585631 D    
C19   N11   1.460901 S    
P10   O42   1.744650 S    
P3    O3    1.585631 D    
C100  H151  1.108347 S    
P4    O20   1.735825 S    
N32   H149  1.029431 S    
O38   C13   1.399673 S    
N13   O57   1.300553 A    
C87   H99   1.107916 S    
N16   O63   1.300738 A    
O11   Ba3   2.843620 S    
N21   O66   1.300107 A    
Ba3   O47   2.886334 S    
C42   C46   1.428951 A    
C99   H146  1.105036 S    
O18   C22   1.394917 S    
C81   H74   1.104898 S    
C5    H9    1.107215 S    
C32   H48   1.112342 S    
C28   H40   1.112767 S    
C51   H67   1.073766 S    
C90   H111  1.110819 S    
C4    N20   1.455303 S    
N11   H97   1.030163 S    
C42   H58   1.076028 S    
C9    N29   1.449661 S    
C77   H69   1.072433 S    
C94   H127  1.096039 S    
C14   H22   1.090327 S    
C11   H51   1.106650 S    
C83   H83   1.083403 S    
O30   Ba2   2.843362 S    
C23   C27   1.534475 S    
C91   H114  1.110252 S    
P1    O5    1.604572 S    
C1    N21   1.459395 S    
C82   H79   1.075125 S    
N28   H133  1.029921 S    
O25   Ba1   2.883071 S    
C10   H18   1.108697 S    
C1    H5    1.114970 S    
C67   C79   1.386291 A    
C3    H7    1.112558 S    
C93   H122  1.089205 S    
P7    C56   1.901078 S    
C20   N4    1.484714 S    
N15   O61   1.300805 A    
P10   O30   1.774520 S    
N8    H85   1.026262 S    
C99   H147  1.103695 S    
P7    Ba3   3.471870 S    
P12   O44   1.745005 S    
C27   N15   1.453347 S    
O9    Ba1   2.843620 S    
O12   Ba4   2.827185 S    
N7    C83   1.438376 S    
C17   N5    1.447608 S    
C37   C41   1.405782 A    
C89   H106  1.110489 S    
N26   C94   1.434067 S    
O11   P16   1.786614 S    
C35   C55   1.394531 A    
C2    C30   1.536572 S    
C27   H43   1.111072 S    
O21   C29   1.399849 S    
C25   H41   1.110769 S    
C60   H56   1.076622 S    
C3    N19   1.449693 S    
O8    Ba3   2.872314 S    
C47   C51   1.435974 A    
Ba4   O48   2.871555 S    
C50   H66   1.073548 S    
C12   N32   1.449493 S    
Ba1   Ba2   4.752227 S    
H2    C30   1.111937 S    
C82   H80   1.098700 S    
C69   H61   1.074468 S    
C22   C26   1.531576 S    
P7    O27   1.580789 D    
C92   H118  1.111026 S    
O41   C5    1.396555 S    
C43   H59   1.074172 S    
C4    N24   1.461704 S    
O43   C7    1.403358 S    
C33   C37   1.400259 A    
N4    O55   1.299233 A    
C5    C9    1.528884 S    
O10   Ba2   2.827185 S    
N17   C89   1.447069 S    
N19   H113  1.031225 S    
N5    C81   1.412621 S    
O26   Ba2   2.884909 S    
O32   Ba4   2.843362 S    
C66   C78   1.389458 A    
P4    Ba4   3.470061 S    
N31   H145  1.028030 S    
C3    C31   1.535463 S    
Ba1   O46   3.022970 S    
N20   H117  1.028873 S    
P1    O17   1.737611 S    
C6    H14   1.110336 S    
N25   H121  1.026621 S    
P3    O19   1.750447 S    
C34   N26   1.407228 S    
C62   C78   1.384900 A    
C3    N23   1.453455 S    
P4    O4    1.580972 D    
C85   H92   1.108422 S    
C2    N22   1.453242 S    
N27   H129  1.026619 S    
C31   H47   1.113774 S    
P6    O45   1.610641 S    
N12   C88   1.445684 S    
N9    H89   1.031289 S    
N31   C99   1.443578 S    
N8    C84   1.434815 S    
C40   C44   1.408485 A    
P14   C61   1.874288 S    
C72   H64   1.076572 S    
C2    N18   1.451367 S    
N3    O53   1.297647 A    
O15   P16   1.543936 D    
N32   C100  1.449158 S    
O39   C16   1.417379 S    
O13   P14   1.541207 D    
C86   H94   1.106171 S    
C67   C71   1.417373 A    
C21   H29   1.108465 S    
C96   H135  1.096544 S    
C20   N8    1.459022 S    
C48   C74   1.547787 S    
C81   H75   1.086658 S    
P2    O2    1.580972 D    
O4    Ba4   2.880482 S    
P11   O43   1.744178 S    
P5    O46   1.604725 S    
P12   O36   1.548741 D    
C89   H108  1.110208 S    
C59   C63   1.410963 A    
P11   C40   1.875793 S    
P8    Ba4   3.470214 S    
P12   C39   1.891802 S    
C4    H8    1.113768 S    
C84   H87   1.106597 S    
N18   H109  1.031879 S    
C38   C42   1.411467 A    
C92   H120  1.109996 S    
P13   C62   1.844873 S    
C64   C80   1.393596 A    
O5    Ba2   2.887116 S    
P10   C37   1.885482 S    
C51   C55   1.414618 A    
C63   C79   1.379381 A    
O31   Ba3   2.826942 S    
N9    C85   1.443745 S    
C26   H38   1.112497 S    
C43   C47   1.428682 A    
P2    C66   1.868011 S    
O29   Ba1   2.826942 S    
N28   C96   1.436369 S    
N1    O49   1.300502 A    
C8    H12   1.110137 S    
N30   C98   1.442583 S    
C58   C62   1.411700 A    
C93   H123  1.090099 S    
C20   N12   1.460260 S    
C10   H50   1.108362 S    
C12   H52   1.110195 S    
C58   H54   1.076798 S    
C39   C43   1.408706 A    
O12   P15   1.758856 S    
C85   H90   1.103585 S    
P2    O6    1.598757 S    
C16   H28   1.097773 S    
P11   O31   1.767727 S    
P12   O32   1.776990 S    
P6    O38   1.766637 S    
C2    H6    1.114395 S    
P9    C38   1.896125 S    
P6    C53   1.908944 S    
N2    O52   1.302963 A    
C83   H82   1.108678 S    
C98   H142  1.107740 S    
O23   P16   1.750621 S    
N22   O67   1.301154 A    
O21   P14   1.751671 S    
C91   H115  1.111010 S    
N1    O50   1.301378 A    
C100  H150  1.107586 S    
C7    H11   1.113634 S    
C26   H42   1.111060 S    
N16   O64   1.300436 A    
N21   O65   1.300849 A    
C86   H96   1.105424 S    
C70   C74   1.438978 A    
C97   H140  1.107752 S    
O28   Ba4   2.884909 S    
C95   H132  1.099402 S    
O6    Ba1   2.872314 S    
C23   H31   1.108121 S    
O22   C30   1.395126 S    
C14   H26   1.094688 S    
C1    N17   1.451349 S    
