data_mof_unit_13185.cif
_audit_creation_date              2012-12-10T17:22:40-0500
_audit_creation_method            fapswitch 2.2
_symmetry_space_group_name_H-M    P1
_symmetry_Int_Tables_number       1
_space_group_crystal_system       triclinic
_cell_length_a                    10.640631
_cell_length_b                    10.90615
_cell_length_c                    9.579516
_cell_angle_alpha                 91.537574
_cell_angle_beta                  90.60783
_cell_angle_gamma                 93.055541
_cell_volume                      1109.62586159

loop_
_atom_site_label
_atom_site_type_symbol
_atom_type_description
_atom_site_fract_x
_atom_site_fract_y
_atom_site_fract_z
_atom_type_partial_charge
C1    C     C_R   0.506606 0.262593 0.498119 0.803943
C2    C     C_3   0.961840 0.601109 0.432638 -0.242902
C3    C     C_3   0.036202 0.496773 0.367968 0.033395
C4    C     C_3   0.122529 0.500071 0.497087 -0.071547
C5    C     C_R   0.615405 0.132043 0.732171 -0.129108
C6    C     C_R   0.619788 0.080690 0.863489 -0.127395
C7    C     C_R   0.560564 0.966287 0.883933 -0.159521
C8    C     C_R   0.509635 0.897628 0.770114 -0.140927
C9    C     C_R   0.515668 0.943789 0.633104 0.101829
C10   C     C_R   0.550152 0.069302 0.619313 0.049557
C11   C     C_R   0.515849 0.128347 0.495000 -0.140552
C12   C     C_R   0.259435 0.499162 0.499060 0.796673
C13   C     C_R   0.475659 0.056175 0.375283 0.160385
C14   C     C_R   0.469633 0.929228 0.383161 -0.203613
C15   C     C_R   0.489034 0.871615 0.509361 -0.148986
C16   C     C_R   0.671237 0.661415 0.150459 -0.164030
C17   C     C_R   0.755599 0.739157 0.081270 -0.262919
C18   C     C_R   0.755514 0.739122 0.937124 -0.010164
C19   C     C_R   0.670685 0.660713 0.861864 -0.217456
C20   C     C_R   0.584288 0.578908 0.928335 0.176837
C21   C     C_R   0.584325 0.579056 0.077991 0.215437
C22   C     C_R   0.419963 0.424725 0.070685 -0.046965
C23   C     C_R   0.494576 0.737491 0.502802 0.795757
C24   C     C_R   0.420028 0.424683 0.922680 -0.031463
C25   C     C_R   0.740495 0.501473 0.500846 0.775255
C26   C     C_3   0.036556 0.402198 0.566613 -0.187222
C27   C     C_3   0.949400 0.398299 0.435443 -0.189108
C28   C     C_3   0.877051 0.502443 0.502307 -0.001899
C29   C     C_3   0.961573 0.506193 0.633956 -0.149118
C30   C     C_3   0.048430 0.602615 0.562891 -0.000014
Cu1   Cu    Cu3+1 0.499990 0.499990 0.640660 0.931489
Cu2   Cu    Cu3+1 0.500010 0.500010 0.359340 0.935074
H1    H     H_    0.905759 0.314445 0.382601 0.135412
H2    H     H_    0.557100 0.928996 0.987518 0.146422
H3    H     H_    0.461101 0.811760 0.793958 0.180995
H4    H     H_    0.445889 0.874384 0.289573 0.171702
H5    H     H_    0.354127 0.363393 0.123363 0.143258
H6    H     H_    0.678153 0.671182 0.260764 0.203531
H7    H     H_    0.820058 0.801036 0.141089 0.153816
H8    H     H_    0.673961 0.669586 0.751924 0.205224
H9    H     H_    0.354455 0.362976 0.864672 0.146671
H10   H     H_    0.069561 0.320976 0.620906 0.150220
H11   H     H_    0.928357 0.511283 0.743367 0.155911
H12   H     H_    0.928785 0.682395 0.378410 0.131714
H13   H     H_    0.663855 0.220767 0.720171 0.155844
H14   H     H_    0.665760 0.131302 0.950201 0.136082
N1    N     N_R   0.501210 0.501210 0.147910 -0.201428
N2    N     N_R   0.501250 0.501290 0.852040 -0.202855
O1    O     O_R   0.499990 0.319640 0.618810 -0.588307
O2    O     O_R   0.500000 0.319660 0.381240 -0.576743
O3    O     O_R   0.316850 0.499960 0.618770 -0.571624
O4    O     O_R   0.316860 0.499980 0.381190 -0.577488
O5    O     O_R   0.500000 0.680340 0.618760 -0.611747
O6    O     O_R   0.500010 0.680360 0.381190 -0.602124
O7    O     O_R   0.683140 0.500020 0.618810 -0.608653
O8    O     O_R   0.683150 0.500040 0.381230 -0.596765
C31   C     C_1   0.838889 0.824235 0.865699 0.243908
N3    N     N_1   0.905148 0.893214 0.808373 -0.270945
C32   C     C_1   0.107264 0.713616 0.631182 0.247703
N4    N     N_1   0.154589 0.800871 0.684647 -0.268658
C33   C     C_1   0.074912 0.491636 0.221426 0.253810
N5    N     N_1   0.105142 0.487734 0.105789 -0.303422
C34   C     C_3   0.437748 0.109301 0.237710 -0.821871
H15   H     H_    0.407661 0.037010 0.158636 0.213544
H16   H     H_    0.356395 0.167601 0.253138 0.235161
H17   H     H_    0.518568 0.162941 0.193020 0.240981

loop_
_geom_bond_atom_site_label_1
_geom_bond_atom_site_label_2
_ccdc_geom_bond_type
C4    C26   S    
C3    C27   S    
C16   C21   A    
C1    O2    A    
Cu1   O3    S    
C26   C29   S    
C4    C12   S    
C9    C10   A    
C18   C31   S    
Cu1   Cu2   S    
C1    C11   S    
C25   O8    A    
C2    C30   S    
Cu2   N1    S    
C30   C32   S    
C19   C20   A    
C15   C23   S    
C22   N1    A    
C31   N3    T    
C34   H17   S    
C4    C30   S    
C32   N4    T    
C20   N2    A    
C13   C14   A    
C27   H1    S    
C25   C28   S    
C24   H9    S    
C11   C13   A    
Cu2   O2    S    
C26   C27   S    
C29   C30   S    
C5    H13   S    
Cu1   O1    S    
C5    C6    A    
C29   H11   S    
Cu2   O6    S    
C28   C29   S    
C12   O4    A    
C23   O5    A    
C6    C7    A    
C2    C3    S    
Cu1   N2    S    
C3    C33   S    
C14   H4    S    
C33   N5    T    
C34   H16   S    
C7    H2    S    
C22   C24   A    
C7    C8    A    
C19   H8    S    
C34   H15   S    
C24   N2    A    
C5    C10   A    
C12   O3    A    
C20   C21   A    
C26   H10   S    
C23   O6    A    
C17   C18   A    
C18   C19   A    
C10   C11   A    
C16   H6    S    
C27   C28   S    
C17   H7    S    
C14   C15   A    
Cu2   O4    S    
C2    C28   S    
C6    H14   S    
Cu1   O7    S    
C9    C15   A    
C22   H5    S    
C1    O1    A    
Cu2   O8    S    
Cu1   O5    S    
C3    C4    S    
C25   O7    A    
C16   C17   A    
C2    H12   S    
C8    C9    A    
C21   N1    A    
C8    H3    S    
C13   C34   S    
