data_mof_unit_59352.cif
_audit_creation_date              2012-12-11T14:59:35-0500
_audit_creation_method            fapswitch 2.2
_symmetry_space_group_name_H-M    P1
_symmetry_Int_Tables_number       1
_space_group_crystal_system       triclinic
_cell_length_a                    8.23984
_cell_length_b                    15.046183
_cell_length_c                    18.847518
_cell_angle_alpha                 100.267349
_cell_angle_beta                  91.723779
_cell_angle_gamma                 99.455438
_cell_volume                      2263.77815016

loop_
_atom_site_label
_atom_site_type_symbol
_atom_type_description
_atom_site_fract_x
_atom_site_fract_y
_atom_site_fract_z
_atom_type_partial_charge
Ba1   Ba    Ba6+2 0.854120 0.540280 0.465540 1.645147
Ba2   Ba    Ba6+2 0.335710 0.459790 0.534460 1.639560
C1    C     C_3   0.758197 0.859307 0.250666 -0.215237
C2    C     C_R   0.891506 0.417876 0.096449 -0.101341
C3    C     C_R   0.762524 0.429045 0.952015 -0.112263
C4    C     C_3   0.135424 0.724168 0.274729 0.378830
C5    C     C_R   0.928733 0.462811 0.976461 0.015618
C6    C     C_R   0.706720 0.427020 0.881417 -0.107482
C7    C     C_R   0.813180 0.459086 0.831484 -0.033682
C8    C     C_R   0.977372 0.500280 0.855331 0.007482
C9    C     C_R   0.035758 0.501890 0.928118 0.021360
C10   C     C_R   0.759605 0.451576 0.758466 -0.026027
C11   C     C_R   0.869507 0.484081 0.709820 -0.285745
C12   C     C_3   0.653944 0.772459 0.267348 1.014362
C13   C     C_R   0.027340 0.532740 0.732836 0.057126
C14   C     C_R   0.081850 0.541510 0.806977 -0.030418
C15   C     C_R   0.154319 0.500876 0.071654 0.019919
C16   C     C_3   0.128961 0.747918 0.199208 0.257326
C17   C     C_R   0.212448 0.502962 0.144736 -0.018418
C18   C     C_R   0.106222 0.465163 0.194072 -0.051586
C19   C     C_R   0.949671 0.419752 0.166737 -0.033538
C20   C     C_R   0.236548 0.590822 0.834860 -0.026584
C21   C     C_R   0.295807 0.590203 0.904866 -0.087274
C22   C     C_R   0.200352 0.542837 0.952006 0.010034
C23   C     C_3   0.429972 0.308489 0.313587 0.294770
C24   C     C_R   0.261892 0.538610 0.022920 0.023003
C25   C     C_R   0.429622 0.568049 0.046228 -0.102359
C26   C     C_R   0.377612 0.541289 0.167875 -0.007184
C27   C     C_R   0.486027 0.568442 0.116663 -0.089253
C28   C     C_3   0.255859 0.745386 0.630352 0.310162
C29   C     C_R   0.429788 0.550655 0.241395 0.010194
C30   C     C_R   0.320325 0.518399 0.290526 -0.312175
C31   C     C_R   0.160528 0.472659 0.268411 0.059936
C32   C     C_R   0.763652 0.236325 0.525982 -0.253523
C33   C     C_R   0.850335 0.179886 0.557923 -0.014859
C34   C     C_3   0.343247 0.265784 0.239689 -0.375808
C35   C     C_R   0.779975 0.087604 0.555034 -0.149993
C36   C     C_R   0.626829 0.049135 0.515559 0.019686
C37   C     C_R   0.546585 0.108350 0.481670 -0.121309
C38   C     C_R   0.613873 0.200511 0.487129 0.022257
C39   C     C_R   0.396382 0.912778 0.471214 -0.093626
C40   C     C_3   0.293222 0.849083 0.654480 -0.404411
C41   C     C_R   0.334213 0.818999 0.457643 0.010863
C42   C     C_R   0.580533 0.790262 0.515189 0.104731
C43   C     C_R   0.646793 0.884016 0.526725 -0.087155
C44   C     C_R   0.556469 0.947848 0.504574 0.021787
C45   C     C_3   0.982845 0.228510 0.726903 0.319184
C46   C     C_R   0.426749 0.758044 0.479224 -0.281224
C47   C     C_3   0.905403 0.233581 0.331138 0.343298
C48   C     C_3   0.998844 0.178740 0.376609 -0.208103
C49   C     C_3   0.733261 0.671464 0.684297 0.315507
C50   C     C_3   0.775460 0.705291 0.765501 -0.200555
C51   C     C_3   0.805703 0.167984 0.265525 -0.160723
C52   C     C_3   0.750425 0.215289 0.206885 -0.361145
C53   C     C_3   0.916680 0.078583 0.375587 -0.302074
C54   C     C_3   0.022367 0.026935 0.415118 -0.353445
C55   C     C_3   0.649002 0.759960 0.802850 -0.153340
C56   C     C_3   0.039562 0.236872 0.806292 -0.158624
C57   C     C_3   0.699641 0.863404 0.807546 -0.393688
C58   C     C_3   0.893925 0.222436 0.854430 -0.269585
C59   C     C_3   0.832594 0.120931 0.854709 -0.428844
C60   C     C_3   0.523686 0.226444 0.689077 0.418639
C61   C     C_3   0.479596 0.132570 0.709699 -0.378381
C62   C     C_R   0.989238 0.460977 0.047977 0.007784
H1    H     H_    0.383425 0.867692 0.701955 0.120769
H2    H     H_    0.901605 0.746783 0.774155 0.112843
H3    H     H_    0.778107 0.644662 0.791181 0.022203
H4    H     H_    0.688322 0.917041 0.260789 0.087095
H5    H     H_    0.339442 0.340145 0.347472 0.053809
H6    H     H_    0.533465 0.363463 0.307407 0.029413
H7    H     H_    0.244024 0.208111 0.244591 0.145324
H8    H     H_    0.289327 0.317822 0.216486 0.067525
H9    H     H_    0.428923 0.238545 0.201098 0.098702
H10   H     H_    0.790242 0.849025 0.193305 0.018986
H11   H     H_    0.934403 0.291912 0.721262 -0.021537
H12   H     H_    0.345832 0.882286 0.610573 0.056702
H13   H     H_    0.884886 0.167319 0.710465 -0.008896
H14   H     H_    0.112321 0.306724 0.825248 0.105481
H15   H     H_    0.122982 0.186991 0.811623 0.126182
H16   H     H_    0.658695 0.241351 0.684424 -0.128987
H17   H     H_    0.460451 0.224015 0.635771 0.092777
H18   H     H_    0.526863 0.080384 0.670179 0.064059
H19   H     H_    0.343755 0.112966 0.709949 0.141976
H20   H     H_    0.040643 0.662491 0.274818 0.031683
H21   H     H_    0.535155 0.133873 0.764294 0.109862
H22   H     H_    0.827864 0.476338 0.653730 0.068741
H23   H     H_    0.178177 0.875399 0.669389 0.124348
H24   H     H_    0.578428 0.398959 0.866676 0.111314
H25   H     H_    0.865999 0.387665 0.200072 0.112119
H26   H     H_    0.315561 0.629645 0.802701 0.086453
H27   H     H_    0.616001 0.592255 0.130589 0.089059
H28   H     H_    0.363469 0.524008 0.346182 0.073373
H29   H     H_    0.670423 0.403969 0.986310 0.073501
H30   H     H_    0.768276 0.380921 0.081915 0.059947
H31   H     H_    0.416591 0.629809 0.921267 0.055996
H32   H     H_    0.257965 0.707184 0.286436 -0.009335
H33   H     H_    0.521806 0.589758 0.010578 0.069724
H34   H     H_    0.821086 0.270570 0.365180 0.010446
H35   H     H_    0.314953 0.956248 0.456677 0.053627
H36   H     H_    0.849701 0.047277 0.581832 0.049736
H37   H     H_    0.767145 0.905072 0.554213 0.062714
H38   H     H_    0.435630 0.084476 0.447431 0.065213
H39   H     H_    0.376157 0.685627 0.470528 0.061645
H40   H     H_    0.817173 0.307409 0.527847 0.069892
H41   H     H_    0.173520 0.693891 0.160506 0.050340
H42   H     H_    0.999888 0.748903 0.180902 0.020597
H43   H     H_    0.371765 0.720216 0.616845 0.006130
H44   H     H_    0.167140 0.728212 0.582362 0.055222
H45   H     H_    0.123437 0.176520 0.356063 0.145358
H46   H     H_    0.517138 0.749486 0.346422 0.267417
H47   H     H_    0.698573 0.275859 0.231375 0.126135
H48   H     H_    0.856484 0.235307 0.174776 0.119996
H49   H     H_    0.655791 0.166882 0.169502 0.106164
H50   H     H_    0.883330 0.119907 0.238279 0.088942
H51   H     H_    0.695172 0.127924 0.284465 0.097321
H52   H     H_    0.144677 0.028727 0.391810 0.123964
H53   H     H_    0.037566 0.055135 0.473351 0.151939
H54   H     H_    0.959971 0.954784 0.408378 0.176536
H55   H     H_    0.794355 0.076333 0.397989 0.128950
H56   H     H_    0.017239 0.216802 0.432975 0.110158
H57   H     H_    0.899516 0.039399 0.319833 0.114485
H58   H     H_    0.820036 0.888297 0.838719 0.121961
H59   H     H_    0.709208 0.881129 0.752984 0.158639
H60   H     H_    0.605556 0.899309 0.835617 0.109566
H61   H     H_    0.525580 0.737293 0.773987 0.123630
H62   H     H_    0.637611 0.746447 0.858750 0.092578
H63   H     H_    0.537105 0.747277 0.172307 0.282519
H64   H     H_    0.163725 0.880761 0.215314 0.310903
H65   H     H_    0.793379 0.082653 0.799294 0.128336
H66   H     H_    0.931428 0.090076 0.877291 0.135013
H67   H     H_    0.838435 0.642931 0.659908 -0.007996
H68   H     H_    0.725501 0.113890 0.888892 0.131504
H69   H     H_    0.934151 0.257298 0.910769 0.132792
H70   H     H_    0.790661 0.253712 0.836301 0.129173
H71   H     H_    0.622796 0.616818 0.676539 0.055555
H72   H     H_    0.874080 0.877313 0.285274 0.105776
O1    O     O_2   0.871030 0.438240 0.324420 -0.473378
O2    O     O_2   0.193673 0.186080 0.550855 -0.496047
O3    O     O_3   0.117553 0.218482 0.684377 -0.580631
O4    O     O_3   0.120590 0.445310 0.413740 -0.480174
O5    O     O_3   0.582100 0.611510 0.537680 -0.494770
O6    O     O_2   0.334040 0.276520 0.462890 -0.455541
O7    O     O_3   0.490681 0.240278 0.343575 -0.654076
O8    O     O_2   0.422439 0.461311 0.755945 -0.477152
O9    O     O_3   0.472477 0.292704 0.741952 -0.586185
O10   O     O_3   0.663040 0.605930 0.370050 -0.446044
O11   O     O_2   0.750911 0.528380 0.245571 -0.503076
O12   O     O_3   0.703532 0.744856 0.652586 -0.650160
O13   O     O_3   0.025703 0.293640 0.303840 -0.661502
O14   O     O_3   0.745705 0.700407 0.253416 -0.634796
O15   O     O_2   0.855660 0.723510 0.537160 -0.451721
O16   O     O_3   0.086340 0.654970 0.406630 -0.491160
O17   O     O_2   0.994510 0.815275 0.454872 -0.470855
O18   O     O_3   0.620576 0.790625 0.340635 -0.721643
O19   O     O_3   0.507028 0.752129 0.223267 -0.762127
O20   O     O_3   0.229462 0.832378 0.197960 -0.679130
O21   O     O_3   0.104742 0.798498 0.326177 -0.606799
O22   O     O_2   0.318670 0.561790 0.675630 -0.473247
O23   O     O_3   0.069120 0.554770 0.586270 -0.490583
O24   O     O_3   0.526680 0.394150 0.629950 -0.475936
O25   O     O_3   0.188853 0.707521 0.687561 -0.650033
O26   O     O_3   0.607620 0.388570 0.462320 -0.473794
O27   O     O_3   0.103380 0.345110 0.593380 -0.451525
P1    P     P_3+3 0.038110 0.412300 0.335300 0.972351
P2    P     P_3+3 0.679950 0.711710 0.558590 0.987046
P3    P     P_3+3 0.129838 0.773363 0.412593 0.967242
P4    P     P_3+3 0.151600 0.587780 0.664700 0.971065
P5    P     P_3+3 0.063027 0.228613 0.596215 0.956661
P6    P     P_3+3 0.643578 0.598385 0.276812 0.970855
P7    P     P_3+3 0.513872 0.273587 0.437805 0.932933
P8    P     P_3+3 0.546073 0.401325 0.722797 0.962262

loop_
_geom_bond_atom_site_label_1
_geom_bond_atom_site_label_2
_ccdc_geom_bond_type
C53   C54   S    
O9    P8    S    
O17   P3    D    
C25   C27   A    
C54   H53   S    
C1    H4    S    
Ba2   O26   S    
C38   P7    S    
Ba1   O1    S    
C53   H55   S    
C43   C44   A    
C42   C43   A    
C5    C9    A    
C10   C11   A    
O8    P8    D    
C24   C25   A    
C60   C61   S    
C55   H62   S    
C32   C38   A    
C15   C24   A    
C60   H16   S    
C26   C27   A    
C33   C35   A    
C22   C24   A    
Ba1   Ba2   S    
C15   C62   A    
C55   H61   S    
C36   C37   A    
C28   H43   S    
C55   C57   S    
O14   P6    S    
C56   C58   S    
C13   C14   A    
C52   H49   S    
C9    C22   A    
Ba1   O16   S    
O2    P5    D    
C32   C33   A    
C1    H10   S    
C53   H57   S    
C59   H68   S    
C47   H34   S    
C49   H71   S    
C17   C18   A    
Ba1   P1    S    
C21   H31   S    
Ba2   O23   S    
C60   O9    S    
C11   H22   S    
C40   H1    S    
C39   C44   A    
C39   H35   S    
C20   H26   S    
C7    C8    A    
C34   H7    S    
C59   H65   S    
O6    P7    D    
C57   H58   S    
C61   H21   S    
O12   P2    S    
C39   C41   A    
C13   P4    S    
Ba1   O10   S    
C23   O7    S    
O22   P4    D    
C10   P8    S    
C57   H59   S    
C4    C16   S    
C4    H20   S    
C61   H18   S    
C49   C50   S    
Ba1   O23   S    
C31   P1    S    
C34   H9    S    
H63   O19   S    
C37   C38   A    
C3    C5    A    
C49   H67   S    
C6    C7    A    
C19   H25   S    
C29   P6    S    
O15   P2    D    
C46   H39   S    
C48   H45   S    
C32   H40   S    
C61   H19   S    
C58   C59   S    
C6    H24   S    
Ba2   O27   S    
C16   H42   S    
C35   C36   A    
H46   O18   S    
O1    P1    D    
H64   O20   S    
O16   P3    S    
C29   C30   A    
O26   P7    S    
Ba1   P2    S    
C21   C22   A    
C12   O14   S    
C12   O19   S    
C33   P5    S    
C54   H52   S    
C52   H48   S    
O13   P1    S    
C18   C19   A    
C17   C26   A    
Ba1   O4    S    
O25   P4    S    
C50   H3    S    
C43   H37   S    
C56   H15   S    
C2    H30   S    
C18   C31   A    
C59   H66   S    
C60   H17   S    
Ba1   O26   S    
C4    H32   S    
C8    C9    A    
C11   C13   A    
Ba2   O6    S    
C48   H56   S    
C23   H5    S    
C45   H13   S    
C58   H70   S    
C27   H27   S    
C4    O21   S    
C16   O20   S    
C51   H50   S    
C37   H38   S    
C41   C46   A    
C41   P3    S    
C57   H60   S    
C25   H33   S    
C14   C20   A    
C28   H44   S    
C54   H54   S    
C26   C29   A    
O7    P7    S    
C51   H51   S    
O21   P3    S    
C3    C6    A    
C3    H29   S    
C51   C52   S    
C40   H23   S    
C1    C12   S    
O4    P1    S    
C2    C62   A    
C40   H12   S    
C48   C53   S    
C28   O25   S    
C47   O13   S    
Ba2   O4    S    
O5    P2    S    
O27   P5    S    
C16   H41   S    
C45   H11   S    
C8    C14   A    
C30   C31   A    
C45   C56   S    
C2    C19   A    
C30   H28   S    
C49   O12   S    
C47   C51   S    
Ba2   P4    S    
C15   C17   A    
O24   P8    S    
O23   P4    S    
C52   H47   S    
Ba1   O15   S    
C42   P2    S    
O3    P5    S    
C7    C10   A    
C5    C62   A    
C36   C44   S    
Ba1   O5    S    
C50   C55   S    
C56   H14   S    
C23   C34   S    
C42   C46   A    
C50   H2    S    
Ba2   O22   S    
Ba2   O24   S    
C47   C48   S    
O10   P6    S    
C45   O3    S    
Ba2   O5    S    
C20   C21   A    
C28   C40   S    
C23   H6    S    
C1    H72   S    
O11   P6    D    
C58   H69   S    
C35   H36   S    
C12   O18   S    
C34   H8    S    
