data_mof_unit_29023.cif
_audit_creation_date              2012-12-10T20:28:38-0500
_audit_creation_method            fapswitch 2.2
_symmetry_space_group_name_H-M    P1
_symmetry_Int_Tables_number       1
_space_group_crystal_system       triclinic
_cell_length_a                    10.617024
_cell_length_b                    10.690907
_cell_length_c                    9.904729
_cell_angle_alpha                 89.704354
_cell_angle_beta                  90.793822
_cell_angle_gamma                 90.268478
_cell_volume                      1124.10753246

loop_
_atom_site_label
_atom_site_type_symbol
_atom_type_description
_atom_site_fract_x
_atom_site_fract_y
_atom_site_fract_z
_atom_type_partial_charge
C1    C     C_R   0.498998 0.260497 0.500178 0.859797
C2    C     C_R   0.066616 0.384775 0.554894 0.097697
C3    C     C_R   0.128429 0.488696 0.497470 -0.102017
C4    C     C_R   0.063916 0.588290 0.438822 -0.181769
C5    C     C_R   0.935235 0.588917 0.440979 -0.184559
C6    C     C_R   0.871786 0.490014 0.501838 -0.074813
C7    C     C_R   0.575616 0.063181 0.588913 0.096940
C8    C     C_R   0.499913 0.128773 0.498139 -0.146706
C9    C     C_R   0.433389 0.066691 0.395639 -0.257786
C10   C     C_R   0.430688 0.937527 0.394299 0.375761
C11   C     C_R   0.498060 0.871738 0.495598 -0.199940
C12   C     C_R   0.260647 0.497301 0.499210 0.867512
C13   C     C_R   0.575813 0.935303 0.586791 0.064320
C14   C     C_3   0.583398 0.925931 0.737296 -0.378251
C15   C     C_3   0.580286 0.067353 0.739527 -0.488604
C16   C     C_R   0.396480 0.460509 0.069680 0.237867
C17   C     C_R   0.595376 0.553491 0.074063 -0.149131
C18   C     C_R   0.595295 0.554815 0.930832 0.401562
C19   C     C_R   0.396139 0.461097 0.927662 0.166151
C20   C     C_3   0.333764 0.336211 0.921615 -0.494661
C21   C     C_3   0.335615 0.334849 0.075164 -0.483900
C22   C     C_R   0.496927 0.739591 0.499263 0.935925
C23   C     C_R   0.739415 0.497240 0.500756 0.875372
C24   C     C_R   0.132510 0.279624 0.606058 -0.202306
C25   C     C_R   0.067428 0.177862 0.659870 -0.118885
C26   C     C_R   0.936403 0.178566 0.662533 -0.120679
C27   C     C_R   0.869978 0.281194 0.611631 -0.169052
C28   C     C_R   0.934685 0.385546 0.557513 0.104503
H1    H     H_    0.668471 0.110415 0.779501 0.202672
H2    H     H_    0.673009 0.595218 0.129898 0.187098
H3    H     H_    0.237124 0.341677 0.877548 0.223243
H4    H     H_    0.394674 0.264207 0.876946 0.206404
H5    H     H_    0.240055 0.338529 0.119378 0.215898
H6    H     H_    0.398802 0.262267 0.119190 0.216705
H7    H     H_    0.234116 0.274294 0.603406 0.141861
H8    H     H_    0.118798 0.097820 0.698548 0.151238
H9    H     H_    0.886234 0.098783 0.703008 0.143633
H10   H     H_    0.884788 0.667506 0.396995 0.158394
N1    N     N_R   0.499160 0.499140 0.142800 -0.132240
N2    N     N_R   0.499160 0.499180 0.857150 -0.146554
O1    O     O_R   0.500020 0.316790 0.614690 -0.635938
O2    O     O_R   0.500000 0.316760 0.385350 -0.621488
O3    O     O_R   0.316770 0.500020 0.614690 -0.618477
O4    O     O_R   0.316760 0.499980 0.385350 -0.600927
O5    O     O_R   0.500000 0.683240 0.614650 -0.596405
O6    O     O_R   0.499980 0.683210 0.385310 -0.570079
O7    O     O_R   0.683240 0.500020 0.614650 -0.555132
O8    O     O_R   0.683230 0.499980 0.385310 -0.632041
Zn1   Zn    Zn3+2 0.500010 0.500020 0.653130 0.991628
Zn2   Zn    Zn3+2 0.499990 0.499980 0.346870 0.986545
H11   H     H_    0.113574 0.666733 0.394048 0.193617
H12   H     H_    0.675163 0.887703 0.772838 0.244558
H13   H     H_    0.492130 0.103503 0.782925 0.210588
Cl1   Cl    Cl    0.720787 0.632341 0.853115 -0.622124
H14   H     H_    0.768288 0.277200 0.613419 0.141494
H15   H     H_    0.377714 0.118285 0.321833 0.185931
Cl2   Cl    Cl    0.330797 0.864333 0.274241 -0.626752
H16   H     H_    0.498725 0.881681 0.782479 0.226299

loop_
_geom_bond_atom_site_label_1
_geom_bond_atom_site_label_2
_ccdc_geom_bond_type
C1    O1    A    
C26   H9    S    
C16   C21   S    
C21   H6    S    
C6    C28   A    
C1    C8    S    
C9    C10   A    
O6    Zn2   S    
C11   C22   S    
C19   C20   S    
O5    Zn1   S    
C4    H11   S    
C10   Cl2   S    
C7    C15   S    
C17   C18   A    
C23   O8    A    
C7    C8    A    
O7    Zn1   S    
C9    H15   S    
C5    H10   S    
C24   C25   A    
C17   H2    S    
C11   C13   A    
C26   C27   A    
C4    C5    A    
O2    Zn2   S    
C16   C19   A    
C6    C23   S    
C15   H13   S    
O8    Zn2   S    
C22   O6    A    
C20   H4    S    
C15   H1    S    
C12   O3    A    
C2    C3    A    
C10   C11   A    
C2    C24   A    
C5    C6    A    
C14   H16   S    
C27   H14   S    
C24   H7    S    
C23   O7    A    
C19   N2    A    
C18   Cl1   S    
C25   H8    S    
O4    Zn2   S    
N2    Zn1   S    
C1    O2    A    
C7    C13   A    
N1    Zn2   S    
C21   H5    S    
C20   C21   S    
C12   O4    A    
C22   O5    A    
C17   N1    A    
O1    Zn1   S    
C27   C28   A    
C18   N2    A    
C14   C15   S    
O3    Zn1   S    
C2    C28   A    
C3    C12   S    
C16   N1    A    
C25   C26   A    
C13   C14   S    
C14   H12   S    
C3    C4    A    
C8    C9    A    
C20   H3    S    
