data_mof_unit_24494.cif
_audit_creation_date              2012-12-10T19:05:19-0500
_audit_creation_method            fapswitch 2.2
_symmetry_space_group_name_H-M    P1
_symmetry_Int_Tables_number       1
_space_group_crystal_system       triclinic
_cell_length_a                    9.535179
_cell_length_b                    10.821717
_cell_length_c                    17.26729
_cell_angle_alpha                 89.482505
_cell_angle_beta                  86.026346
_cell_angle_gamma                 89.818938
_cell_volume                      1777.39845311

loop_
_atom_site_label
_atom_site_type_symbol
_atom_type_description
_atom_site_fract_x
_atom_site_fract_y
_atom_site_fract_z
_atom_type_partial_charge
C1    C     C_R   0.499994 0.737567 0.500615 0.821202
C2    C     C_R   0.341992 0.490789 0.777353 -0.195817
C3    C     C_R   0.423853 0.559798 0.145967 -0.142521
C4    C     C_R   0.417662 0.557925 0.226428 -0.218616
C5    C     C_R   0.648102 0.461247 0.222849 -0.202170
C6    C     C_R   0.653986 0.462805 0.141999 -0.169028
C7    C     C_R   0.540177 0.509127 0.103739 0.194543
C8    C     C_2   0.449435 0.440995 0.980976 0.142113
C9    C     C_2   0.543246 0.505566 0.019236 -0.255696
C10   C     C_R   0.528427 0.506663 0.265375 -0.021162
C11   C     C_R   0.384295 0.936638 0.534282 0.060263
C12   C     C_R   0.481776 0.497231 0.650096 0.794596
C13   C     C_R   0.502182 0.870417 0.506095 -0.124398
C14   C     C_R   0.628337 0.935365 0.488496 -0.225474
C15   C     C_R   0.628648 0.064320 0.488857 -0.223270
C16   C     C_R   0.502825 0.129600 0.506862 -0.081762
C17   C     C_R   0.384910 0.063103 0.534943 -0.042620
C18   C     C_3   0.229453 0.069791 0.526851 0.200404
C19   C     C_3   0.229521 0.927027 0.526055 0.185657
C20   C     C_R   0.930283 0.592051 0.464892 0.233004
C21   C     C_R   0.920661 0.412453 0.541269 -0.078529
C22   C     C_R   0.069678 0.412640 0.541387 -0.031550
C23   C     C_R   0.500293 0.262478 0.501018 0.811734
C24   C     C_R   0.077705 0.591698 0.464555 0.272072
C25   C     C_3   0.092761 0.626450 0.380696 -0.526779
C26   C     C_3   0.933677 0.628888 0.381474 -0.496719
C27   C     C_R   0.518377 0.501628 0.350004 0.775316
C28   C     C_R   0.472486 0.483984 0.734668 -0.023327
C29   C     C_R   0.594448 0.458474 0.773038 -0.199929
C30   C     C_R   0.586310 0.440719 0.852887 -0.189973
C31   C     C_R   0.456393 0.449723 0.895773 0.175873
C32   C     C_R   0.334110 0.473919 0.857575 -0.172520
Cu1   Cu    Cu3+1 0.359330 0.500020 0.500000 0.960726
Cu2   Cu    Cu3+1 0.640670 0.499980 0.500000 0.927473
H1    H     H_    0.696205 0.451016 0.741386 0.152165
H2    H     H_    0.745322 0.425385 0.109377 0.127512
H3    H     H_    0.724994 0.887337 0.470773 0.158003
H4    H     H_    0.725364 0.112209 0.471148 0.168357
H5    H     H_    0.174804 0.108304 0.580303 0.115835
H6    H     H_    0.204972 0.880114 0.471563 0.065066
H7    H     H_    0.860979 0.341867 0.573589 0.136376
H8    H     H_    0.121775 0.342465 0.573972 0.139895
H9    H     H_    0.141636 0.718843 0.370741 0.177735
H10   H     H_    0.327161 0.597932 0.258022 0.140720
H11   H     H_    0.139624 0.550837 0.344292 0.215804
H12   H     H_    0.890080 0.723172 0.373462 0.184260
H13   H     H_    0.891377 0.556681 0.344207 0.220706
H14   H     H_    0.735284 0.422402 0.252005 0.142074
H15   H     H_    0.625474 0.558527 0.987505 0.127520
H16   H     H_    0.233183 0.482344 0.889989 0.134531
H17   H     H_    0.337859 0.600322 0.116584 0.132091
H18   H     H_    0.246392 0.509804 0.748923 0.150379
H19   H     H_    0.681626 0.420371 0.881288 0.125939
N1    N     N_R   0.852130 0.499070 0.499500 -0.187316
N2    N     N_R   0.148040 0.499110 0.499500 -0.184635
O1    O     O_R   0.381190 0.680360 0.500000 -0.566767
O2    O     O_R   0.618770 0.680320 0.499990 -0.597863
O3    O     O_R   0.367430 0.500040 0.613600 -0.584570
O4    O     O_R   0.605020 0.500000 0.613590 -0.592830
O5    O     O_R   0.381230 0.319680 0.500010 -0.555047
O6    O     O_R   0.618810 0.319640 0.500000 -0.593771
O7    O     O_R   0.394980 0.500000 0.386410 -0.594037
O8    O     O_R   0.632570 0.499960 0.386400 -0.583739
O9    O     O_3   0.187155 0.133511 0.459564 -0.602594
C33   C     C_3   0.240137 0.084577 0.387460 0.053824
H20   H     H_    0.165109 0.014645 0.368224 0.129719
H21   H     H_    0.345474 0.041006 0.389574 0.135815
C34   C     C_3   0.251759 0.189768 0.327673 -0.285923
H22   H     H_    0.146643 0.232740 0.322769 0.218289
H23   H     H_    0.324086 0.261465 0.347341 0.236445
C35   C     C_3   0.307691 0.144260 0.248033 -0.955425
H24   H     H_    0.414240 0.103567 0.251335 0.258194
H25   H     H_    0.314768 0.223232 0.206438 0.264719
H26   H     H_    0.236009 0.073751 0.226330 0.256571
O10   O     O_3   0.164501 0.874625 0.594509 -0.593964
C36   C     C_3   0.017840 0.868886 0.588783 0.065372
H27   H     H_    0.991990 0.816255 0.536640 0.127282
H28   H     H_    0.972447 0.963566 0.585373 0.137187
C37   C     C_3   0.952258 0.803608 0.661302 -0.334666
H29   H     H_    0.000992 0.710710 0.666824 0.224085
H30   H     H_    0.973556 0.858118 0.713453 0.221615
C38   C     C_3   0.793936 0.788446 0.657968 -0.903019
H31   H     H_    0.742536 0.879626 0.650441 0.261779
H32   H     H_    0.749294 0.744958 0.712696 0.254592
H33   H     H_    0.771872 0.727614 0.609077 0.286320
C39   C     C_3   0.338577 0.360164 0.022636 -0.852080
H34   H     H_    0.284237 0.303049 0.980844 0.223696
H35   H     H_    0.388153 0.296192 0.063391 0.241717
H36   H     H_    0.258370 0.417661 0.055051 0.222938

loop_
_geom_bond_atom_site_label_1
_geom_bond_atom_site_label_2
_ccdc_geom_bond_type
C10   C27   S    
Cu1   N2    S    
Cu1   O3    S    
C36   C37   S    
O10   C36   S    
C25   H9    S    
C24   N2    A    
C11   C19   S    
C12   C28   S    
C28   C29   A    
C1    O1    A    
C36   H28   S    
C3    C7    A    
C5    C6    A    
C39   H35   S    
C16   C17   A    
C15   C16   A    
C2    C32   A    
C18   C19   S    
C34   H22   S    
C12   O4    A    
C20   C24   A    
Cu1   O7    S    
C33   H21   S    
Cu2   O2    S    
C12   O3    A    
Cu1   O1    S    
C21   C22   A    
C5    C10   A    
C30   H19   S    
C17   C18   S    
C23   O5    A    
C5    H14   S    
C9    H15   S    
C36   H27   S    
C20   N1    A    
C35   H25   S    
C3    H17   S    
C39   H34   S    
C8    C9    D    
C4    H10   S    
C25   C26   S    
Cu2   O6    S    
C18   H5    S    
C15   H4    S    
C29   C30   A    
C2    H18   S    
C27   O7    A    
C1    O2    A    
C35   H26   S    
C31   C32   A    
C30   C31   A    
C33   C34   S    
Cu1   Cu2   S    
C24   C25   S    
C32   H16   S    
C6    C7    A    
C27   O8    A    
C26   H13   S    
C21   H7    S    
Cu2   N1    S    
C16   C23   S    
C38   H32   S    
Cu2   O4    S    
C1    C13   S    
C4    C10   A    
C3    C4    A    
C25   H11   S    
C37   H30   S    
C7    C9    S    
C11   C17   A    
C8    C31   S    
C39   H36   S    
C37   C38   S    
C22   N2    A    
Cu1   O5    S    
C38   H33   S    
C29   H1    S    
C21   N1    A    
O9    C33   S    
C19   O10   S    
C35   H24   S    
C14   H3    S    
C11   C13   A    
C18   O9    S    
C22   H8    S    
C20   C26   S    
C34   C35   S    
Cu2   O8    S    
C6    H2    S    
C8    C39   S    
C33   H20   S    
C19   H6    S    
C26   H12   S    
C37   H29   S    
C23   O6    A    
C34   H23   S    
C38   H31   S    
C14   C15   A    
C2    C28   A    
C13   C14   A    
