data_mof_unit_22632.cif
_audit_creation_date              2012-12-10T17:34:55-0500
_audit_creation_method            fapswitch 2.2
_symmetry_space_group_name_H-M    P1
_symmetry_Int_Tables_number       1
_space_group_crystal_system       triclinic
_cell_length_a                    12.079204
_cell_length_b                    12.810121
_cell_length_c                    15.715302
_cell_angle_alpha                 91.290266
_cell_angle_beta                  86.645589
_cell_angle_gamma                 94.611613
_cell_volume                      2419.311002

loop_
_atom_site_label
_atom_site_type_symbol
_atom_type_description
_atom_site_fract_x
_atom_site_fract_y
_atom_site_fract_z
_atom_type_partial_charge
C1    C     C_R   0.523014 0.700205 0.498403 0.922706
C2    C     C_R   0.538635 0.811933 0.494602 -0.199539
C3    C     C_R   0.624304 0.970353 0.430394 0.376731
C4    C     C_R   0.500452 0.500579 0.661427 0.880740
C5    C     C_R   0.619642 0.861148 0.438018 0.407735
C6    C     C_R   0.463115 0.868197 0.542978 -0.304226
C7    C     C_R   0.464428 0.975501 0.535345 -0.097342
C8    C     C_R   0.543410 0.025890 0.476239 0.021369
C9    C     C_R   0.539903 0.131599 0.463134 -0.256192
C10   C     C_R   0.386199 0.140726 0.569783 0.476659
C11   C     C_R   0.386126 0.033495 0.582980 0.384387
C12   C     C_3   0.405382 0.562199 0.056391 0.245935
C13   C     C_R   0.951727 0.409202 0.414418 -0.220760
C14   C     C_R   0.836620 0.417157 0.423382 -0.057805
C15   C     C_R   0.860314 0.540635 0.537270 0.621238
C16   C     C_R   0.477070 0.299785 0.501984 0.922319
C17   C     C_R   0.977567 0.536076 0.529728 -0.116988
C18   C     C_R   0.023387 0.466363 0.469325 -0.180213
C19   C     C_R   0.140190 0.457410 0.464584 0.519619
C20   C     C_R   0.165246 0.587307 0.574280 0.420471
C21   C     C_R   0.049942 0.601655 0.579311 0.285879
C22   C     C_R   0.499546 0.499593 0.338562 0.874479
C23   C     C_3   0.498052 0.491856 0.082527 -0.181411
C24   C     C_3   0.411046 0.573441 0.957278 0.750210
C25   C     C_3   0.618172 0.541435 0.946291 0.291422
C26   C     C_3   0.616114 0.541315 0.046533 0.723650
C27   C     C_1   0.498268 0.497047 0.249815 -0.201491
C28   C     C_3   0.500756 0.499210 0.917018 -0.158062
C29   C     C_3   0.253032 0.462401 0.909731 -0.273027
C30   C     C_3   0.232107 0.601040 0.117807 -0.230615
C31   C     C_3   0.546026 0.207273 0.043908 -0.276983
C32   C     C_3   0.359780 0.229742 0.695095 -0.246894
C33   C     C_3   0.646725 0.776439 0.310909 -0.267150
C34   C     C_3   0.475373 0.375968 0.046489 0.953787
C35   C     C_3   0.172199 0.285972 0.441682 -0.226759
C36   C     C_3   0.219295 0.606998 0.710673 -0.230993
C37   C     C_3   0.772604 0.529701 0.848946 -0.205975
C38   C     C_3   0.743027 0.688388 0.073096 -0.281208
C39   C     C_3   0.350595 0.299312 0.157341 -0.200780
C40   C     C_3   0.482256 0.383542 0.947240 -0.545847
C41   C     C_1   0.497560 0.493996 0.174490 0.055803
C42   C     C_1   0.501312 0.500213 0.825437 0.029602
C43   C     C_1   0.501193 0.500539 0.750154 -0.215584
C44   C     C_R   0.462788 0.188311 0.509167 -0.296514
H1    H     H_    0.426308 0.641334 0.085843 0.157374
H2    H     H_    0.289151 0.426410 0.850783 0.136188
H3    H     H_    0.164084 0.469119 0.898624 0.181373
H4    H     H_    0.146736 0.565941 0.133997 0.190022
H5    H     H_    0.226519 0.660528 0.068047 0.193303
H6    H     H_    0.264705 0.638814 0.176670 0.147918
H7    H     H_    0.615452 0.192121 0.997020 0.189018
H8    H     H_    0.466164 0.184788 0.013878 0.167383
H9    H     H_    0.551229 0.155343 0.098839 0.182534
H10   H     H_    0.443328 0.272367 0.684755 0.125480
H11   H     H_    0.365300 0.161023 0.736181 0.181861
H12   H     H_    0.598623 0.171477 0.417466 0.229997
H13   H     H_    0.305112 0.283901 0.729860 0.172230
H14   H     H_    0.760642 0.976526 0.356346 0.370587
H15   H     H_    0.347284 0.939016 0.676129 0.324747
H16   H     H_    0.702519 0.725019 0.274202 0.202260
H17   H     H_    0.640412 0.847489 0.272617 0.166771
H18   H     H_    0.563737 0.732291 0.319319 0.142100
H19   H     H_    0.088961 0.248323 0.428424 0.148308
H20   H     H_    0.183092 0.284877 0.511562 0.204216
H21   H     H_    0.234812 0.237121 0.409888 0.180353
H22   H     H_    0.446918 0.691223 0.880165 0.343703
H23   H     H_    0.400715 0.826020 0.584139 0.222522
H24   H     H_    0.289889 0.638543 0.748196 0.205985
H25   H     H_    0.216011 0.519893 0.713031 0.152396
H26   H     H_    0.142357 0.634763 0.742511 0.173385
H27   H     H_    0.068989 0.734734 0.641587 0.365608
H28   H     H_    0.740575 0.616460 0.587166 0.373052
H29   H     H_    0.824816 0.594566 0.878172 0.146417
H30   H     H_    0.725504 0.559999 0.797380 0.175675
H31   H     H_    0.829186 0.473435 0.819325 0.196037
H32   H     H_    0.787921 0.667416 0.012345 0.174515
H33   H     H_    0.787640 0.662705 0.127777 0.174279
H34   H     H_    0.983842 0.359490 0.363794 0.188584
H35   H     H_    0.744503 0.775038 0.076986 0.185546
H36   H     H_    0.706166 0.489723 0.135018 0.338746
H37   H     H_    0.427997 0.285095 0.188494 0.166515
H38   H     H_    0.296954 0.224866 0.159241 0.161968
H39   H     H_    0.305694 0.358238 0.195509 0.217869
H40   H     H_    0.782443 0.372584 0.381056 0.162794
H41   H     H_    0.635155 0.624245 0.925297 0.119274
H42   H     H_    0.409591 0.339990 0.919819 0.162913
H43   H     H_    0.551988 0.339827 0.919497 0.240780
H44   H     H_    0.253856 0.411959 0.965642 0.249766
N1    N     N_R   0.207800 0.519340 0.515510 -0.184295
N2    N     N_R   0.792190 0.480660 0.484490 -0.169446
O1    O     O_R   0.421690 0.658830 0.504140 -0.583263
O2    O     O_3   0.298728 0.520608 0.088342 -0.571695
O3    O     O_3   0.559367 0.313012 0.072918 -0.594346
O4    O     O_3   0.312651 0.199319 0.617374 -0.586816
O5    O     O_3   0.704333 0.024192 0.377808 -0.788163
O6    O     O_3   0.309619 0.989109 0.642992 -0.731733
O7    O     O_3   0.692704 0.802506 0.389890 -0.601150
O8    O     O_3   0.187922 0.387768 0.407786 -0.594537
O9    O     O_3   0.452106 0.678053 0.941798 -0.816636
O10   O     O_3   0.237049 0.644257 0.626526 -0.592255
O11   O     O_3   0.007967 0.681101 0.629378 -0.687926
O12   O     O_R   0.609320 0.646410 0.494190 -0.604460
O13   O     O_3   0.816479 0.604166 0.600179 -0.717321
O14   O     O_3   0.701357 0.477035 0.911365 -0.558620
O15   O     O_3   0.630849 0.646661 0.078698 -0.672691
O16   O     O_3   0.701202 0.480915 0.072455 -0.679388
O17   O     O_3   0.365886 0.331454 0.071439 -0.629655
O18   O     O_R   0.406150 0.506210 0.627840 -0.586756
O19   O     O_R   0.593770 0.493790 0.617880 -0.632907
O20   O     O_R   0.390680 0.353590 0.505810 -0.573078
O21   O     O_R   0.578310 0.341170 0.495860 -0.626081
O22   O     O_R   0.406230 0.506210 0.382120 -0.574042
O23   O     O_R   0.593850 0.493790 0.372160 -0.619607
O24   O     O_3   0.302696 0.564185 0.923347 -0.594643
Zn1   Zn    Zn3+2 0.374720 0.508290 0.506640 1.020211
Zn2   Zn    Zn3+2 0.625280 0.491710 0.493360 0.966567

loop_
_geom_bond_atom_site_label_1
_geom_bond_atom_site_label_2
_ccdc_geom_bond_type
C11   O6    S    
C32   O4    S    
C4    O19   A    
N1    Zn1   S    
C24   O24   S    
C24   O9    S    
C34   O3    S    
C14   H40   S    
C31   H8    S    
C29   O24   S    
C26   O16   S    
C37   H30   S    
C16   O20   A    
C7    C8    A    
C38   H32   S    
C25   C28   S    
C7    C11   A    
C4    O18   A    
C12   C23   S    
C13   C18   A    
C29   H3    S    
C34   C40   S    
C34   O17   S    
O18   Zn1   S    
C30   H4    S    
C1    C2    S    
C38   H35   S    
C10   O4    S    
H36   O16   S    
C18   C19   A    
C23   C26   S    
C40   H42   S    
C14   N2    A    
C29   H44   S    
O19   Zn2   S    
C22   O23   A    
C8    C9    A    
O21   Zn2   S    
N2    Zn2   S    
C35   O8    S    
C16   C44   S    
C32   H11   S    
O23   Zn2   S    
C21   O11   S    
C37   H31   S    
C1    O1    A    
C13   C14   A    
C2    C6    A    
C32   H13   S    
C26   O15   S    
C32   H10   S    
C19   O8    S    
C36   H26   S    
C30   H6    S    
C10   C44   A    
C39   H37   S    
C30   O2    S    
C3    C8    A    
C35   H21   S    
C33   H18   S    
C25   C26   S    
C31   O3    S    
C17   C21   A    
H22   O9    S    
C39   O17   S    
H14   O5    S    
C19   N1    A    
C27   C41   T    
C20   O10   S    
C23   C34   S    
C25   H41   S    
C17   C18   A    
C36   O10   S    
C9    H12   S    
C31   H9    S    
C35   H20   S    
C6    H23   S    
H28   O13   S    
C30   H5    S    
C5    O7    S    
C33   H16   S    
C22   O22   A    
C22   C27   S    
C2    C5    A    
C42   C43   T    
C36   H25   S    
C40   H43   S    
C15   C17   A    
C37   H29   S    
C13   H34   S    
C9    C44   A    
C12   O2    S    
C24   C28   S    
C39   H38   S    
C31   H7    S    
C12   H1    S    
C3    C5    A    
C37   O14   S    
C3    O5    S    
C36   H24   S    
C25   O14   S    
C6    C7    A    
C38   H33   S    
C20   N1    A    
C12   C24   S    
C23   C41   S    
C29   H2    S    
C38   O15   S    
C39   H39   S    
C15   N2    A    
C1    O12   A    
C28   C42   S    
C4    C43   S    
O1    Zn1   S    
C33   O7    S    
H27   O11   S    
O12   Zn2   S    
C10   C11   A    
C20   C21   A    
C33   H17   S    
H15   O6    S    
C28   C40   S    
C35   H19   S    
C15   O13   S    
O20   Zn1   S    
O22   Zn1   S    
C16   O21   A    
