data_mof_unit_12139.cif
_audit_creation_date              2012-12-10T20:52:41-0500
_audit_creation_method            fapswitch 2.2
_symmetry_space_group_name_H-M    P1
_symmetry_Int_Tables_number       1
_space_group_crystal_system       triclinic
_cell_length_a                    8.662911
_cell_length_b                    15.813404
_cell_length_c                    15.064618
_cell_angle_alpha                 89.501085
_cell_angle_beta                  98.974653
_cell_angle_gamma                 90.342426
_cell_volume                      2038.33914015

loop_
_atom_site_label
_atom_site_type_symbol
_atom_type_description
_atom_site_fract_x
_atom_site_fract_y
_atom_site_fract_z
_atom_type_partial_charge
C1    C     C_R   0.499851 0.338878 0.500161 0.896985
C2    C     C_R   0.499411 0.661164 0.499592 0.899943
C3    C     C_R   0.501378 0.499690 0.905133 -0.059436
C4    C     C_R   0.502937 0.499406 0.095280 -0.058455
C5    C     C_R   0.571077 0.567383 0.958389 -0.046810
C6    C     C_R   0.434107 0.431473 0.042176 -0.046477
C7    C     C_1   0.499731 0.499970 0.806947 0.089311
C8    C     C_1   0.502167 0.499657 0.193244 0.088275
C9    C     C_R   0.200828 0.499603 0.476837 0.911078
C10   C     C_R   0.799130 0.500090 0.523277 0.912809
C11   C     C_2   0.038041 0.487136 0.466374 -0.251026
C12   C     C_2   0.962108 0.511617 0.534396 -0.254482
C13   C     C_R   0.623737 0.955211 0.554282 -0.347353
C14   C     C_R   0.416992 0.045624 0.426964 -0.347814
C15   C     C_R   0.515914 0.913267 0.490918 -0.042215
C16   C     C_R   0.521685 0.087394 0.491952 -0.041429
C17   C     C_R   0.414886 0.957937 0.424908 0.500222
C18   C     C_R   0.630106 0.042942 0.553749 0.511127
C19   C     C_1   0.508206 0.824455 0.495679 -0.008624
C20   C     C_1   0.512835 0.175962 0.496927 0.000993
C21   C     C_1   0.505822 0.250603 0.500050 -0.197134
C22   C     C_1   0.503160 0.749596 0.498545 -0.203188
C23   C     C_R   0.431732 0.432153 0.947308 -0.051332
C24   C     C_R   0.576108 0.565843 0.053435 -0.052580
H1    H     H_    0.701561 0.919983 0.604550 0.171757
H2    H     H_    0.334810 0.080964 0.379139 0.175394
N1    N     N_1   0.499960 0.500020 0.270540 -0.083493
N2    N     N_1   0.500040 0.499980 0.729460 -0.082278
O1    O     O_R   0.500000 0.378020 0.573650 -0.614220
O2    O     O_R   0.500000 0.621980 0.426350 -0.621516
O3    O     O_R   0.500070 0.378020 0.426320 -0.599043
O4    O     O_R   0.499930 0.621980 0.573680 -0.597458
O5    O     O_R   0.271720 0.500000 0.556430 -0.594948
O6    O     O_R   0.728280 0.500000 0.443570 -0.593205
O7    O     O_R   0.271790 0.500000 0.409110 -0.630629
O8    O     O_R   0.728210 0.500000 0.590890 -0.630952
Zn1   Zn    Zn3+2 0.499950 0.500000 0.598370 0.980900
Zn2   Zn    Zn3+2 0.500050 0.500000 0.401630 0.977808
C25   C     C_R   0.968657 0.432813 0.389370 0.165379
C26   C     C_R   0.948515 0.465032 0.301115 -0.082804
C27   C     C_R   0.873546 0.416311 0.229960 -0.177558
C28   C     C_R   0.818532 0.335279 0.246387 -0.118314
C29   C     C_R   0.840195 0.302303 0.333812 -0.126795
C30   C     C_R   0.915496 0.350660 0.405144 -0.144434
H3    H     H_    0.987988 0.528329 0.287860 0.133043
H4    H     H_    0.857341 0.441460 0.162123 0.131841
H5    H     H_    0.760616 0.297718 0.191261 0.131213
H6    H     H_    0.797951 0.239444 0.346389 0.123829
H7    H     H_    0.929848 0.324907 0.472790 0.100826
C31   C     C_R   0.032018 0.563475 0.613381 0.165248
C32   C     C_R   0.087291 0.645805 0.600805 -0.139171
C33   C     C_R   0.163195 0.691544 0.674089 -0.125524
C34   C     C_R   0.182999 0.655850 0.760317 -0.123563
C35   C     C_R   0.125484 0.574710 0.773604 -0.176285
C36   C     C_R   0.050402 0.528499 0.700481 -0.084390
H8    H     H_    0.074399 0.673609 0.534110 0.111935
H9    H     H_    0.207363 0.754493 0.663964 0.135576
H10   H     H_    0.241687 0.691309 0.816940 0.133177
H11   H     H_    0.140264 0.547407 0.840497 0.130845
H12   H     H_    0.009438 0.464964 0.711354 0.127186
O9    O     O_3   0.732587 0.084488 0.618917 -0.645033
C37   C     C_3   0.862628 0.115018 0.581476 0.078265
H13   H     H_    0.900171 0.175750 0.614822 0.156322
H14   H     H_    0.835912 0.129489 0.507952 0.118648
C38   C     C_3   0.997841 0.052184 0.599976 -0.377506
H15   H     H_    0.027890 0.041126 0.673595 0.225550
H16   H     H_    0.961886 0.990882 0.567409 0.222657
C39   C     C_3   0.142051 0.085015 0.563813 -0.928280
H17   H     H_    0.115903 0.093151 0.489687 0.267655
H18   H     H_    0.238497 0.038808 0.580147 0.276282
H19   H     H_    0.180944 0.146577 0.594709 0.255848
O10   O     O_3   0.304618 0.917664 0.362886 -0.618883
C40   C     C_3   0.378477 0.882309 0.294504 0.097179
H20   H     H_    0.410928 0.815976 0.313176 0.117435
H21   H     H_    0.485956 0.917410 0.282655 0.110847
C41   C     C_3   0.264670 0.880505 0.206130 -0.345097
H22   H     H_    0.319703 0.846380 0.155034 0.164839
H23   H     H_    0.157109 0.845596 0.215967 0.217922
C42   C     C_3   0.221230 0.969468 0.171154 -0.817133
H24   H     H_    0.327626 0.005115 0.160280 0.235160
H25   H     H_    0.161073 0.003995 0.219677 0.272422
H26   H     H_    0.141107 0.965450 0.106165 0.237220
C43   C     C_R   0.378579 0.355520 0.087246 0.132313
C44   C     C_R   0.256709 0.361365 0.138494 -0.150764
C45   C     C_R   0.214444 0.290860 0.186160 -0.120542
C46   C     C_R   0.291192 0.213933 0.181890 -0.113430
C47   C     C_R   0.410533 0.207207 0.129851 -0.138391
C48   C     C_R   0.454401 0.277680 0.082825 -0.140499
H27   H     H_    0.196628 0.420726 0.142751 0.117234
H28   H     H_    0.123407 0.295871 0.227247 0.149591
H29   H     H_    0.258589 0.159715 0.219264 0.121260
H30   H     H_    0.470395 0.147677 0.126804 0.122578
H31   H     H_    0.549511 0.272074 0.044361 0.118349
C49   C     C_R   0.627274 0.643552 0.913987 0.131755
C50   C     C_R   0.746010 0.637616 0.860528 -0.147307
C51   C     C_R   0.789973 0.708881 0.814647 -0.124086
C52   C     C_R   0.718275 0.786671 0.823020 -0.111713
C53   C     C_R   0.602060 0.793407 0.877216 -0.135885
C54   C     C_R   0.556370 0.722196 0.922394 -0.148309
H32   H     H_    0.802737 0.577734 0.853451 0.118644
H33   H     H_    0.878648 0.703845 0.771954 0.150462
H34   H     H_    0.752472 0.841654 0.787299 0.127399
H35   H     H_    0.546263 0.853640 0.883537 0.130451
H36   H     H_    0.463982 0.727992 0.962804 0.116941
C55   C     C_R   0.347731 0.364195 0.891451 0.130921
C56   C     C_R   0.428963 0.309282 0.842460 -0.148757
C57   C     C_R   0.348585 0.245764 0.789815 -0.118722
C58   C     C_R   0.187115 0.236545 0.786041 -0.124858
C59   C     C_R   0.105539 0.291048 0.834412 -0.141646
C60   C     C_R   0.185371 0.354669 0.887013 -0.148616
H37   H     H_    0.554221 0.315558 0.845366 0.118823
H38   H     H_    0.411470 0.203550 0.752138 0.147453
H39   H     H_    0.125178 0.187039 0.745924 0.133209
H40   H     H_    0.980440 0.283956 0.831194 0.130010
H41   H     H_    0.120837 0.396672 0.924063 0.113577
C61   C     C_R   0.672695 0.629071 0.110104 0.137103
C62   C     C_R   0.835393 0.630938 0.111789 -0.144966
C63   C     C_R   0.929015 0.686545 0.168683 -0.160295
C64   C     C_R   0.860994 0.740587 0.224264 -0.113381
C65   C     C_R   0.699283 0.739856 0.222189 -0.116689
C66   C     C_R   0.604903 0.684581 0.165160 -0.155306
H42   H     H_    0.889827 0.588262 0.070204 0.113864
H43   H     H_    0.054404 0.687057 0.170391 0.120169
H44   H     H_    0.933359 0.782877 0.269273 0.132683
H45   H     H_    0.647785 0.781787 0.265433 0.107626
H46   H     H_    0.479719 0.684302 0.164617 0.107661

loop_
_geom_bond_atom_site_label_1
_geom_bond_atom_site_label_2
_ccdc_geom_bond_type
C30   H7    S    
C55   C60   A    
C27   C28   A    
C1    C21   S    
C57   H38   S    
C3    C23   A    
C50   C51   A    
C41   C42   S    
C4    C8    S    
C5    C49   S    
C64   H44   S    
C58   C59   A    
C15   C19   S    
C13   C18   A    
C49   C54   A    
O8    Zn1   S    
C41   H23   S    
C3    C7    S    
C46   H29   S    
C4    C24   A    
C53   C54   A    
C56   C57   A    
N1    Zn2   S    
C53   H35   S    
C23   C55   S    
C1    O3    A    
C61   C62   A    
O2    Zn2   S    
C2    O4    A    
C32   H8    S    
C40   H20   S    
C63   C64   A    
C37   H14   S    
C48   H31   S    
C44   C45   A    
C39   H17   S    
C38   H16   S    
C2    C22   S    
C27   H4    S    
C29   H6    S    
C52   H34   S    
C56   H37   S    
C43   C48   A    
O6    Zn2   S    
C36   H12   S    
C9    O5    A    
C40   H21   S    
C14   C17   A    
C13   H1    S    
C49   C50   A    
C52   C53   A    
C35   H11   S    
C26   H3    S    
C45   H28   S    
C61   C66   A    
C32   C33   A    
C19   C22   T    
C51   H33   S    
C41   H22   S    
C4    C6    A    
C59   C60   A    
C25   C26   A    
C42   H25   S    
C65   H45   S    
C45   C46   A    
O5    Zn1   S    
C7    N2    T    
C58   H39   S    
C47   C48   A    
C62   H42   S    
C37   H13   S    
C43   C44   A    
C16   C20   S    
C38   C39   S    
C51   C52   A    
O7    Zn2   S    
C1    O1    A    
C31   C32   A    
C10   O6    A    
O4    Zn1   S    
C14   H2    S    
C64   C65   A    
C11   C25   S    
C63   H43   S    
C9    C11   S    
C10   C12   S    
C59   H40   S    
C16   C18   A    
C26   C27   A    
C24   C61   S    
C13   C15   A    
C29   C30   A    
C40   C41   S    
C14   C16   A    
C44   H27   S    
C57   C58   A    
C65   C66   A    
C46   C47   A    
C15   C17   A    
C35   C36   A    
C6    C43   S    
C37   C38   S    
C50   H32   S    
O10   C40   S    
C3    C5    A    
C42   H26   S    
C12   C31   S    
C34   H10   S    
C18   O9    S    
C34   C35   A    
C25   C30   A    
C55   C56   A    
C31   C36   A    
O3    Zn2   S    
C2    O2    A    
C66   H46   S    
C62   C63   A    
C5    C24   A    
N2    Zn1   S    
C39   H19   S    
C6    C23   A    
C54   H36   S    
C28   H5    S    
O9    C37   S    
C33   H9    S    
C42   H24   S    
C20   C21   T    
C17   O10   S    
C39   H18   S    
C38   H15   S    
C28   C29   A    
O1    Zn1   S    
C9    O7    A    
C8    N1    T    
C10   O8    A    
C47   H30   S    
C60   H41   S    
C11   C12   D    
C33   C34   A    
