data_mof_unit_56733.cif
_audit_creation_date              2012-12-11T16:31:35-0500
_audit_creation_method            fapswitch 2.2
_symmetry_space_group_name_H-M    P1
_symmetry_Int_Tables_number       1
_space_group_crystal_system       triclinic
_cell_length_a                    6.972705
_cell_length_b                    18.372096
_cell_length_c                    20.133163
_cell_angle_alpha                 68.296913
_cell_angle_beta                  91.015112
_cell_angle_gamma                 91.212862
_cell_volume                      2395.62291253

loop_
_atom_site_label
_atom_site_type_symbol
_atom_type_description
_atom_site_fract_x
_atom_site_fract_y
_atom_site_fract_z
_atom_type_partial_charge
O1    O     O_R   0.488990 0.443920 0.942160 -0.538146
O2    O     O_R   0.823840 0.406530 0.087600 -0.531357
O3    O     O_R   0.999650 0.556080 0.057840 -0.525698
C1    C     C_R   0.655092 0.382883 0.114742 0.798900
O4    O     O_R   0.818390 0.434590 0.944530 -0.532326
O5    O     O_R   0.994160 0.584350 0.913750 -0.531047
C2    C     C_R   0.648281 0.422427 0.922603 0.764467
O6    O     O_R   0.494480 0.415650 0.086250 -0.536331
O7    O     O_3   0.662600 0.549100 0.990070 -0.369093
V1    V     V_3+5 0.935320 0.490890 0.001840 1.518227
O8    O     O_R   0.324240 0.593470 0.912400 -0.554479
C3    C     C_R   0.155488 0.617352 0.885561 0.725416
O9    O     O_R   0.329690 0.565410 0.055470 -0.534332
C4    C     C_R   0.162950 0.579405 0.075885 0.760190
V2    V     V_3+5 0.435990 0.509110 0.998160 1.496036
O10   O     O_3   0.158840 0.450900 0.009930 -0.373188
C5    C     C_3   0.942427 0.700817 0.240928 -0.078069
C6    C     C_3   0.311167 0.694556 0.259439 -0.207925
C7    C     C_3   0.268823 0.728899 0.317847 -0.208154
H1    H     H_    0.868532 0.728468 0.337215 0.179283
H2    H     H_    0.443040 0.723627 0.231784 0.175713
H3    H     H_    0.196191 0.682594 0.363519 0.156177
C8    C     C_1   0.105838 0.877730 0.376289 -0.150095
C9    C     C_3   0.143979 0.715223 0.201804 0.092182
C10   C     C_3   0.926400 0.758721 0.282540 -0.537342
C11   C     C_3   0.123741 0.797620 0.287488 0.150725
C12   C     C_3   0.175017 0.853245 0.209017 -0.149670
C13   C     C_3   0.162825 0.806361 0.156831 -0.182054
C14   C     C_1   0.110175 0.841977 0.336280 -0.033492
C15   C     C_1   0.153839 0.668170 0.154695 0.192502
C16   C     C_1   0.158610 0.628071 0.118413 0.003857
H4    H     H_    0.027439 0.824471 0.125764 0.065837
H5    H     H_    0.061077 0.898240 0.190589 0.096576
H6    H     H_    0.823336 0.806198 0.255704 0.181099
H7    H     H_    0.302070 0.536217 0.688737 0.114519
C17   C     C_R   0.078269 0.776493 0.882325 0.307890
C18   C     C_R   0.004859 0.846314 0.881457 -0.236305
C19   C     C_R   0.974134 0.909054 0.817451 0.267698
C20   C     C_R   0.020931 0.902149 0.752099 0.312703
C21   C     C_R   0.079714 0.828122 0.750900 -0.062024
C22   C     C_R   0.102711 0.763265 0.817496 -0.078894
C23   C     C_R   0.118633 0.817510 0.685392 -0.120143
C24   C     C_R   0.170192 0.742731 0.686521 -0.027894
C25   C     C_R   0.183436 0.677947 0.752381 0.073281
C26   C     C_R   0.148442 0.687600 0.817753 -0.127160
C27   C     C_R   0.205464 0.730784 0.622149 -0.139915
C28   C     C_R   0.252990 0.657356 0.622249 0.435899
C29   C     C_R   0.265745 0.593802 0.687361 -0.224469
C30   C     C_R   0.231136 0.603796 0.751318 -0.203352
H8    H     H_    0.980371 0.852884 0.931956 0.154968
H9    H     H_    0.195321 0.778130 0.570609 0.112890
H10   H     H_    0.242356 0.552413 0.799856 0.115210
H11   H     H_    0.653228 0.471105 0.316175 0.196912
C31   C     C_R   0.664970 0.217831 0.119990 0.329808
C32   C     C_R   0.677077 0.139309 0.124126 0.349056
C33   C     C_R   0.671525 0.078051 0.190698 -0.274357
C34   C     C_R   0.650705 0.092980 0.252631 -0.209157
C35   C     C_R   0.640223 0.170230 0.250946 0.015532
C36   C     C_R   0.649887 0.234568 0.183833 -0.017516
C37   C     C_R   0.621506 0.183219 0.315649 -0.132588
C38   C     C_R   0.621910 0.260339 0.314665 0.077226
C39   C     C_R   0.636276 0.325244 0.248664 0.008297
C40   C     C_R   0.645468 0.313026 0.182965 -0.157485
C41   C     C_R   0.613038 0.274058 0.379248 -0.132154
C42   C     C_R   0.623204 0.349662 0.379157 -0.145134
C43   C     C_R   0.641169 0.412999 0.315136 -0.014301
C44   C     C_R   0.645375 0.401636 0.250387 -0.105173
H12   H     H_    0.683000 0.017886 0.194792 0.162698
H13   H     H_    0.644861 0.042624 0.302226 0.131880
H14   H     H_    0.601259 0.226574 0.430640 0.096072
H15   H     H_    0.619028 0.359111 0.429105 0.154200
H16   H     H_    0.659084 0.453244 0.202095 0.134509
O11   O     O_R   0.770890 0.084490 0.414040 -0.540603
O12   O     O_R   0.445980 0.065450 0.555510 -0.537076
O13   O     O_R   0.270670 0.915620 0.586180 -0.539585
C45   C     C_R   0.616176 0.079659 0.575899 0.738650
O14   O     O_R   0.441480 0.093500 0.412450 -0.542616
O15   O     O_R   0.266140 0.943870 0.442100 -0.539892
C46   C     C_R   0.610247 0.115742 0.384905 0.676171
O16   O     O_R   0.775410 0.056240 0.558120 -0.519900
O17   O     O_3   0.602660 0.950990 0.510100 -0.369685
V3    V     V_3+5 0.329740 0.009100 0.498130 1.469229
O18   O     O_R   0.936120 0.934420 0.444240 -0.542321
C47   C     C_R   0.102760 0.921197 0.423383 0.708014
O19   O     O_R   0.940610 0.906370 0.587310 -0.522692
C48   C     C_R   0.109318 0.884129 0.615271 0.802522
V4    V     V_3+5 0.829110 0.990690 0.501470 1.489475
O20   O     O_3   0.106080 0.049010 0.489880 -0.366564
C49   C     C_3   0.850123 0.224553 0.728449 0.594584
C50   C     C_3   0.541765 0.294147 0.665612 0.594711
C51   C     C_3   0.526304 0.338066 0.719393 -0.420481
H17   H     H_    0.895627 0.341478 0.731922 0.100130
H18   H     H_    0.579713 0.399667 0.694954 0.140288
H19   H     H_    0.373143 0.342475 0.731882 0.181156
C52   C     C_1   0.636586 0.377794 0.876424 -0.189935
C53   C     C_3   0.637272 0.211556 0.705260 0.023074
C54   C     C_3   0.847139 0.282898 0.769899 -0.198732
C55   C     C_3   0.637056 0.294198 0.790380 0.003966
C56   C     C_3   0.538192 0.212642 0.826982 -0.311703
C57   C     C_3   0.514020 0.169218 0.773923 0.110092
C58   C     C_1   0.633248 0.340400 0.837702 0.026303
C59   C     C_1   0.633916 0.164415 0.658469 0.024469
C60   C     C_1   0.627978 0.125920 0.620675 -0.180122
H20   H     H_    0.359000 0.171864 0.758389 0.176600
H21   H     H_    0.621919 0.176635 0.874855 0.238794
H22   H     H_    0.395044 0.219506 0.846988 0.155893
C61   C     C_2   0.780847 0.716831 0.185734 0.387717
H23   H     H_    0.721558 0.774968 0.162432 0.118118
O21   O     O_2   0.723704 0.666852 0.163192 -0.473838
C62   C     C_2   0.357209 0.900905 0.206788 0.263266
H24   H     H_    0.351151 0.950454 0.223694 0.074856
O22   O     O_2   0.510928 0.884439 0.188363 -0.572292
O23   O     O_3   0.134150 0.724253 0.947918 -0.646294
H25   H     H_    0.272068 0.714839 0.943634 0.288822
O24   O     O_3   0.903119 0.978692 0.817515 -0.617738
H26   H     H_    0.877285 0.973645 0.867334 0.320002
O25   O     O_3   0.009585 0.967085 0.689238 -0.645090
H27   H     H_    0.983027 0.014948 0.698861 0.339653
O26   O     O_3   0.285023 0.649679 0.557752 -0.615912
H28   H     H_    0.316935 0.594432 0.566848 0.301908
C63   C     C_2   0.918270 0.616494 0.293670 0.411930
H29   H     H_    0.871005 0.603889 0.347911 0.047120
O27   O     O_2   0.946253 0.561233 0.275392 -0.527028
O28   O     O_3   0.667383 0.278549 0.054221 -0.657615
H30   H     H_    0.680433 0.258413 0.015292 0.333371
O29   O     O_3   0.694469 0.123887 0.062277 -0.635831
H31   H     H_    0.700296 0.066460 0.074608 0.308460
O30   O     O_3   0.963649 0.259439 0.667310 -0.625177
H32   H     H_    0.990537 0.218992 0.647071 0.328322
O31   O     O_3   0.354108 0.283721 0.643329 -0.623526
H33   H     H_    0.362742 0.269491 0.600473 0.314598
O32   O     O_3   0.646585 0.339241 0.604008 -0.634471
H34   H     H_    0.748392 0.370208 0.616950 0.308562
O33   O     O_3   0.562084 0.089931 0.808302 -0.617433
H35   H     H_    0.490201 0.059852 0.783627 0.321896
O34   O     O_3   0.934482 0.152215 0.769729 -0.616487
H36   H     H_    0.881944 0.133072 0.818558 0.356994
C64   C     C_2   0.991831 0.264894 0.830850 0.413596
H37   H     H_    0.125068 0.298366 0.822355 0.030631
O35   O     O_2   0.961535 0.214313 0.889467 -0.521626
C65   C     C_2   0.355273 0.608195 0.293050 0.406588
H38   H     H_    0.324407 0.574815 0.348853 0.068537
O36   O     O_2   0.424199 0.574591 0.257251 -0.516659
C66   C     C_2   0.451536 0.749795 0.348898 0.355100
H39   H     H_    0.540325 0.798980 0.317889 0.091660
O37   O     O_2   0.500161 0.711468 0.410301 -0.508489
C67   C     C_2   0.310219 0.832041 0.097556 0.453972
H40   H     H_    0.317768 0.893322 0.062607 0.072664
O38   O     O_2   0.418419 0.786155 0.087123 -0.522662

loop_
_geom_bond_atom_site_label_1
_geom_bond_atom_site_label_2
_ccdc_geom_bond_type
C25   C30   A    
O18   V4    S    
V4    O20   S    
C37   C46   S    
C7    C66   S    
C19   O24   S    
C53   C59   S    
C6    H2    S    
C67   H40   S    
C4    C16   S    
C1    O6    A    
O30   H32   S    
O17   V3    S    
C50   C51   S    
O19   C48   A    
C12   H5    S    
C1    C40   S    
C11   C12   S    
O29   H31   S    
O12   C45   A    
C39   C44   A    
C6    C9    S    
C8    C14   T    
C17   C18   A    
C67   O38   D    
C44   H16   S    
O16   V4    S    
C5    C61   S    
O5    C3    A    
C19   C20   A    
H1    C10   S    
C17   O23   S    
C35   C37   A    
O24   H26   S    
C57   H20   S    
C33   C34   A    
C6    C7    S    
C7    C11   S    
C62   H24   S    
O11   V4    S    
C31   C32   A    
O8    V2    S    
C39   C40   A    
O18   C47   A    
C12   C62   S    
C42   H15   S    
O32   H34   S    
C52   C58   T    
C61   H23   S    
C23   C48   S    
C41   H14   S    
O7    V1    S    
C10   H6    S    
C50   O32   S    
C45   C60   S    
C28   O26   S    
C43   C44   A    
C49   O34   S    
O9    C4    A    
C61   O21   D    
C17   C22   A    
C59   C60   T    
O12   V3    S    
H7    C29   S    
C57   O33   S    
H17   C54   S    
C54   C55   S    
C9    C15   S    
C31   C36   A    
O19   V4    S    
C56   H21   S    
C5    C9    S    
C8    C47   S    
C9    C13   S    
C13   H4    S    
C7    H3    S    
C66   O37   D    
C20   C21   A    
O4    C2    A    
C3    C26   S    
C10   C11   S    
C20   O25   S    
C27   H9    S    
C49   C54   S    
C37   C38   A    
C38   C41   A    
O2    C1    A    
C24   C25   A    
C18   C19   A    
C51   H18   S    
O15   V3    S    
O13   C48   A    
C28   C29   A    
C32   O29   S    
O26   H28   S    
C30   H10   S    
C32   C33   A    
O11   C46   A    
O14   C46   A    
H11   C43   S    
C63   H29   S    
O17   V4    S    
O3    C4    A    
C64   O35   D    
O1    V2    S    
C5    C63   S    
C21   C22   A    
C42   C43   A    
O6    V2    S    
O9    V2    S    
C23   C24   A    
O2    V1    S    
C54   C64   S    
C25   C26   A    
O23   H25   S    
C56   H22   S    
C31   O28   S    
C27   C28   A    
C29   C30   A    
C13   C67   S    
O1    C2    A    
C6    C65   S    
C45   O16   A    
O34   H36   S    
O5    V1    S    
O8    C3    A    
O13   V3    S    
C50   C53   S    
O33   H35   S    
C55   C58   S    
C2    C52   S    
C36   C40   A    
C56   C57   S    
C66   H39   S    
C5    C10   S    
C41   C42   A    
C49   C53   S    
C65   O36   D    
O31   H33   S    
C35   C36   A    
O4    V1    S    
O3    V1    S    
C33   H12   S    
O25   H27   S    
C51   H19   S    
C18   H8    S    
C34   C35   A    
C15   C16   T    
O14   V3    S    
V3    O20   S    
C53   C57   S    
C21   C23   A    
C51   C55   S    
O7    V2    S    
C38   C39   A    
C24   C27   A    
C62   O22   D    
C63   O27   D    
C64   H37   S    
C50   O31   S    
O15   C47   A    
C11   C14   S    
C55   C56   S    
C12   C13   S    
C22   C26   A    
V1    O10   S    
C34   H13   S    
C65   H38   S    
V2    O10   S    
O28   H30   S    
C49   O30   S    
