data_mof_unit_45614.cif
_audit_creation_date              2012-12-11T14:30:03-0500
_audit_creation_method            fapswitch 2.2
_symmetry_space_group_name_H-M    P1
_symmetry_Int_Tables_number       1
_space_group_crystal_system       triclinic
_cell_length_a                    12.837684
_cell_length_b                    12.87961
_cell_length_c                    27.102405
_cell_angle_alpha                 90.04916
_cell_angle_beta                  89.839284
_cell_angle_gamma                 120.078924
_cell_volume                      3877.75280662

loop_
_atom_site_label
_atom_site_type_symbol
_atom_type_description
_atom_site_fract_x
_atom_site_fract_y
_atom_site_fract_z
_atom_type_partial_charge
C1    C     C_R   0.556657 0.455271 0.821732 0.568212
C2    C     C_R   0.894589 0.439002 0.677378 0.529472
C3    C     C_R   0.545448 0.102885 0.822105 0.551489
C4    C     C_R   0.559688 0.456163 0.677847 0.532071
C5    C     C_R   0.893541 0.440074 0.822764 0.558591
C6    C     C_R   0.544861 0.105270 0.677280 0.536383
C7    C     C_R   0.454594 0.557643 0.322176 0.541170
C8    C     C_R   0.439449 0.894444 0.177479 0.526592
C9    C     C_R   0.101439 0.544422 0.321784 0.544180
C10   C     C_R   0.455577 0.561090 0.177391 0.568337
C11   C     C_R   0.443662 0.898980 0.321660 0.541252
C12   C     C_R   0.105584 0.544775 0.177641 0.566986
C13   C     C_R   0.999312 0.512515 0.973882 -0.042451
C14   C     C_R   0.519426 0.025210 0.523063 -0.019195
C15   C     C_R   0.504118 0.492601 0.973843 -0.023506
C16   C     C_R   0.992247 0.490598 0.524832 -0.034832
C17   C     C_R   0.510387 0.997404 0.972772 -0.026051
C18   C     C_R   0.502221 0.495910 0.525592 -0.036707
C19   C     C_R   0.518441 0.013026 0.471121 -0.027904
C20   C     C_R   0.017874 0.516932 0.025275 -0.022544
C21   C     C_R   0.489968 0.496773 0.473786 -0.037699
C22   C     C_R   0.496555 0.981643 0.024376 -0.008983
C23   C     C_R   0.005611 0.502984 0.473114 -0.022767
C24   C     C_R   0.501216 0.505375 0.025516 0.004983
C25   C     C_R   0.884976 0.614799 0.985204 0.136289
C26   C     C_R   0.633725 0.921160 0.530784 0.118362
C27   C     C_R   0.411186 0.276928 0.984442 0.123009
C28   C     C_R   0.121026 0.706133 0.534820 0.146948
C29   C     C_R   0.728925 0.108495 0.983383 0.075590
C30   C     C_R   0.283450 0.386357 0.534723 0.169335
C31   C     C_R   0.639893 0.917608 0.479136 0.160772
C32   C     C_R   0.890085 0.606236 0.036568 0.121897
C33   C     C_R   0.272076 0.378428 0.483336 0.156551
C34   C     C_R   0.714611 0.097661 0.035002 0.134476
C35   C     C_R   0.132417 0.718667 0.483325 0.073587
C36   C     C_R   0.411989 0.289295 0.035727 0.142892
C37   C     C_R   0.890581 0.529451 0.904273 0.088023
C38   C     C_R   0.586194 0.003603 0.605557 0.092308
C39   C     C_R   0.442891 0.367174 0.900226 0.076943
C40   C     C_R   0.012663 0.579420 0.607061 0.103803
C41   C     C_R   0.637008 0.075054 0.899508 0.099219
C42   C     C_R   0.415712 0.431636 0.608708 0.062820
C43   C     C_R   0.577602 0.948882 0.396835 0.097124
C44   C     C_R   0.993250 0.575557 0.109005 0.095703
C45   C     C_R   0.366856 0.433314 0.399682 0.078089
C46   C     C_R   0.582298 0.004383 0.107391 0.107908
C47   C     C_R   0.067851 0.629191 0.399847 0.091432
C48   C     C_R   0.427842 0.418873 0.107937 0.088935
C49   C     C_R   0.062894 0.528163 0.126691 0.032908
C50   C     C_R   0.491130 0.962338 0.369288 -0.038423
C51   C     C_R   0.475864 0.535293 0.126539 0.027098
C52   C     C_R   0.042534 0.528382 0.370528 0.006001
C53   C     C_R   0.465242 0.936442 0.126265 -0.022519
C54   C     C_R   0.468150 0.515567 0.371353 -0.009433
C55   C     C_R   0.528439 0.062301 0.625755 0.006363
C56   C     C_R   0.941199 0.478433 0.873009 0.006161
C57   C     C_R   0.532842 0.476793 0.627170 -0.008032
C58   C     C_R   0.533545 0.046230 0.870958 -0.000150
C59   C     C_R   0.939213 0.463569 0.626208 -0.014803
C60   C     C_R   0.514905 0.469161 0.870980 0.021467
C61   C     C_R   0.926327 0.554761 0.954136 0.005248
C62   C     C_R   0.579985 0.982074 0.553679 0.073064
C63   C     C_R   0.449668 0.377023 0.952604 -0.031273
C64   C     C_R   0.043051 0.593201 0.556033 0.063064
C65   C     C_R   0.627053 0.060466 0.951689 0.020474
C66   C     C_R   0.398975 0.439907 0.556998 0.025642
C67   C     C_R   0.581525 0.961963 0.448819 0.081748
C68   C     C_R   0.964460 0.565399 0.057665 0.037617
C69   C     C_R   0.374869 0.434988 0.452014 0.018665
C70   C     C_R   0.598906 0.029241 0.055923 0.100239
C71   C     C_R   0.067290 0.618452 0.451935 0.002479
C72   C     C_R   0.446157 0.402559 0.057044 0.021336
C73   C     C_R   0.025376 0.451503 0.891575 -0.141864
C74   C     C_R   0.460129 0.092917 0.595353 -0.151427
C75   C     C_R   0.567407 0.582348 0.892270 -0.141345
C76   C     C_R   0.902256 0.363326 0.595602 -0.145178
C77   C     C_R   0.420266 0.977902 0.891689 -0.163196
C78   C     C_R   0.632115 0.540034 0.596071 -0.120631
C79   C     C_R   0.437154 0.021608 0.390942 -0.145630
C80   C     C_R   0.105800 0.472940 0.094841 -0.144210
C81   C     C_R   0.581094 0.570685 0.393095 -0.127475
C82   C     C_R   0.366047 0.897902 0.095127 -0.138351
C83   C     C_R   0.980714 0.414361 0.391578 -0.179699
C84   C     C_R   0.541263 0.634490 0.095825 -0.145021
C85   C     C_R   0.051950 0.463705 0.942113 0.029234
C86   C     C_R   0.455919 0.077091 0.544411 -0.012647
C87   C     C_R   0.560384 0.595735 0.943240 0.050270
C88   C     C_R   0.929061 0.375185 0.545449 0.013763
C89   C     C_R   0.406818 0.950746 0.942153 0.038096
C90   C     C_R   0.618786 0.550912 0.545910 0.033482
C91   C     C_R   0.452308 0.050120 0.441345 0.030304
C92   C     C_R   0.086130 0.468017 0.044372 0.003582
C93   C     C_R   0.593787 0.556622 0.443456 0.028618
C94   C     C_R   0.379571 0.920183 0.044660 0.037667
C95   C     C_R   0.957195 0.399859 0.442535 -0.007585
C96   C     C_R   0.553965 0.621689 0.045662 0.038810
C97   C     C_R   0.134047 0.414244 0.013151 0.110695
C98   C     C_R   0.389348 0.101095 0.463165 0.155505
C99   C     C_R   0.618590 0.724418 0.015710 0.128250
C100  C     C_R   0.900058 0.284487 0.464111 0.136067
C101  C     C_R   0.276894 0.880964 0.014629 0.151207
C102  C     C_R   0.708981 0.611126 0.464317 0.103516
C103  C     C_R   0.388950 0.112467 0.514462 0.115355
C104  C     C_R   0.121484 0.417529 0.961578 0.119549
C105  C     C_R   0.721412 0.612268 0.515758 0.112083
C106  C     C_R   0.290736 0.891702 0.962911 0.140222
C107  C     C_R   0.893315 0.272854 0.515796 0.192067
C108  C     C_R   0.617741 0.711021 0.963994 0.140211
Cr1   Cr    Cr6+3 0.487630 0.241180 0.750000 1.030401
Cr2   Cr    Cr6+3 0.753550 0.512370 0.750000 1.024615
Cr3   Cr    Cr6+3 0.758820 0.246450 0.750000 1.032354
Cr4   Cr    Cr6+3 0.241180 0.487630 0.250000 1.024227
Cr5   Cr    Cr6+3 0.512370 0.753550 0.250000 0.998521
Cr6   Cr    Cr6+3 0.246450 0.758820 0.250000 1.041129
H1    H     H_    0.162248 0.440064 0.109617 0.180502
H2    H     H_    0.376202 0.037594 0.368973 0.182902
H3    H     H_    0.576030 0.723736 0.110913 0.170263
H4    H     H_    0.957214 0.337799 0.368109 0.129950
H5    H     H_    0.276404 0.843937 0.110366 0.177839
H6    H     H_    0.659040 0.628194 0.370663 0.179357
H7    H     H_    0.414495 0.135596 0.611844 0.145839
H8    H     H_    0.062387 0.411993 0.866847 0.175200
H9    H     H_    0.721965 0.575315 0.610858 0.184774
H10   H     H_    0.342525 0.953123 0.868598 0.174639
H11   H     H_    0.845472 0.274277 0.610666 0.166197
H12   H     H_    0.619463 0.659765 0.868882 0.174503
O1    O     O_R   0.460870 0.120930 0.805240 -0.528494
O2    O     O_R   0.660060 0.539130 0.694760 -0.521507
O3    O     O_R   0.879070 0.339940 0.805240 -0.516982
O4    O     O_R   0.460870 0.120930 0.694760 -0.517646
O5    O     O_R   0.660060 0.539130 0.805240 -0.516011
O6    O     O_R   0.879070 0.339940 0.694760 -0.520321
O7    O     O_R   0.120930 0.460870 0.305240 -0.538395
O8    O     O_R   0.539130 0.660060 0.194760 -0.535086
O9    O     O_R   0.339940 0.879070 0.305240 -0.493561
O10   O     O_R   0.120930 0.460870 0.194760 -0.525868
O11   O     O_R   0.539130 0.660060 0.305240 -0.531323
O12   O     O_R   0.339940 0.879070 0.194760 -0.520035
O13   O     O_R   0.498910 0.350470 0.801870 -0.462110
O14   O     O_R   0.851560 0.501090 0.698130 -0.510942
O15   O     O_R   0.649530 0.148440 0.801870 -0.456527
O16   O     O_R   0.498910 0.350470 0.698130 -0.508503
O17   O     O_R   0.851560 0.501090 0.801870 -0.467154
O18   O     O_R   0.649530 0.148440 0.698130 -0.510944
O19   O     O_R   0.350470 0.498910 0.301870 -0.502985
O20   O     O_R   0.501090 0.851560 0.198130 -0.512140
O21   O     O_R   0.148440 0.649530 0.301870 -0.475812
O22   O     O_R   0.350470 0.498910 0.198130 -0.465777
O23   O     O_R   0.501090 0.851560 0.301870 -0.513370
O24   O     O_R   0.148440 0.649530 0.198130 -0.473230
O25   O     O_3   0.666667 0.333333 0.750000 -0.253471
O26   O     O_3   0.333333 0.666667 0.250000 -0.254231
N1    N     N_3   0.963884 0.641620 0.143473 -0.628221
H13   H     H_    0.000075 0.730295 0.131662 0.239697
H14   H     H_    0.871631 0.598390 0.150412 0.228980
N2    N     N_3   0.664230 0.926690 0.372642 -0.577551
H15   H     H_    0.700137 0.982661 0.341872 0.231720
H16   H     H_    0.623945 0.836462 0.362815 0.287523
N3    N     N_3   0.353030 0.321838 0.140482 -0.625640
H17   H     H_    0.267898 0.269297 0.124921 0.238034
H18   H     H_    0.394284 0.272511 0.149813 0.225093
N4    N     N_3   0.086803 0.738548 0.377021 -0.588894
H19   H     H_    0.045211 0.774012 0.398894 0.210869
H20   H     H_    0.033291 0.716144 0.345426 0.243992
N5    N     N_3   0.683262 0.046209 0.140132 -0.576512
H21   H     H_    0.689379 0.972912 0.152839 0.252214
H22   H     H_    0.671055 0.090484 0.170011 0.226521
N6    N     N_3   0.261298 0.341017 0.375735 -0.662112
H23   H     H_    0.286298 0.301919 0.347707 0.254311
H24   H     H_    0.210689 0.376718 0.361509 0.275333
N7    N     N_3   0.651700 0.967944 0.637446 -0.654556
H25   H     H_    0.597326 0.920167 0.667433 0.237273
H26   H     H_    0.729026 0.044292 0.649990 0.257163
N8    N     N_3   0.786971 0.533087 0.887519 -0.575557
H27   H     H_    0.719033 0.494058 0.914140 0.251466
H28   H     H_    0.810126 0.621552 0.880003 0.269940
N9    N     N_3   0.315582 0.375865 0.642096 -0.663710
H29   H     H_    0.330220 0.434182 0.671513 0.241074
H30   H     H_    0.308517 0.296634 0.655590 0.249793
N10   N     N_3   0.749920 0.117510 0.874524 -0.566392
H31   H     H_    0.807442 0.207854 0.882738 0.284309
H32   H     H_    0.787135 0.064127 0.883674 0.253259
N11   N     N_3   0.053082 0.682034 0.638621 -0.576619
H33   H     H_    0.095154 0.670879 0.669497 0.231740
H34   H     H_    0.978638 0.688222 0.650108 0.252811
N12   N     N_3   0.354328 0.260106 0.875810 -0.600288
H35   H     H_    0.381121 0.196111 0.874537 0.254850
H36   H     H_    0.270618 0.226808 0.892939 0.222032
N13   N     N_3   0.810041 0.630226 0.064967 -0.649130
H37   H     H_    0.856406 0.710341 0.084523 0.220400
H38   H     H_    0.754071 0.556337 0.086981 0.238911
N14   N     N_3   0.699521 0.860008 0.457759 -0.581390
H39   H     H_    0.787999 0.901415 0.470750 0.243589
H40   H     H_    0.653279 0.772126 0.470293 0.255339
N15   N     N_3   0.388776 0.186103 0.064360 -0.602121
H41   H     H_    0.305022 0.148162 0.081677 0.220817
H42   H     H_    0.459559 0.207941 0.088831 0.231622
N16   N     N_3   0.223111 0.831474 0.464378 -0.639405
H43   H     H_    0.183246 0.879469 0.451448 0.246929
H44   H     H_    0.270355 0.816832 0.436378 0.272201
N17   N     N_3   0.818976 0.156424 0.066109 -0.585318
H45   H     H_    0.878502 0.125791 0.057801 0.221774
H46   H     H_    0.861227 0.249035 0.060609 0.233582
N18   N     N_3   0.152291 0.314548 0.464436 -0.588805
H47   H     H_    0.138032 0.235941 0.447188 0.257229
H48   H     H_    0.141601 0.370537 0.439922 0.247718
N19   N     N_3   0.682719 0.860096 0.558209 -0.645856
H49   H     H_    0.617633 0.798008 0.582324 0.269535
H50   H     H_    0.760652 0.921948 0.576715 0.270008
N20   N     N_3   0.847365 0.693564 0.964475 -0.631066
H51   H     H_    0.841616 0.747843 0.991675 0.251585
H52   H     H_    0.917419 0.754826 0.941877 0.201124
N21   N     N_3   0.173636 0.334727 0.562721 -0.590077
H53   H     H_    0.174637 0.398952 0.586626 0.261761
H54   H     H_    0.161571 0.258734 0.581562 0.256330
N22   N     N_3   0.848494 0.170621 0.963806 -0.672968
H55   H     H_    0.891539 0.256781 0.978377 0.247289
H56   H     H_    0.894310 0.126213 0.974284 0.217796
N23   N     N_3   0.191721 0.808602 0.565428 -0.564763
H57   H     H_    0.282522 0.838062 0.558805 0.254869
H58   H     H_    0.173733 0.876468 0.555585 0.243726
N24   N     N_3   0.386638 0.163069 0.966500 -0.596871
H59   H     H_    0.457336 0.176579 0.943280 0.236796
H60   H     H_    0.302965 0.119573 0.949197 0.223438
N25   N     N_3   0.189368 0.351745 0.034825 -0.648942
H61   H     H_    0.121725 0.276333 0.053010 0.211034
H62   H     H_    0.224038 0.318688 0.008456 0.231610
N26   N     N_3   0.320205 0.135674 0.433016 -0.641043
H63   H     H_    0.355330 0.227298 0.437831 0.269436
H64   H     H_    0.230886 0.090849 0.445268 0.247567
N27   N     N_3   0.687819 0.840253 0.038768 -0.645821
H65   H     H_    0.752407 0.837037 0.061112 0.220862
H66   H     H_    0.737503 0.907442 0.013273 0.227132
N28   N     N_3   0.851426 0.178336 0.434238 -0.624184
H67   H     H_    0.921328 0.177111 0.414897 0.234140
H68   H     H_    0.790783 0.180369 0.409152 0.238858
N29   N     N_3   0.160768 0.836045 0.037676 -0.652006
H69   H     H_    0.163975 0.906030 0.058461 0.220283
H70   H     H_    0.092841 0.814385 0.012109 0.228976
N30   N     N_3   0.812925 0.668145 0.432952 -0.662105
H71   H     H_    0.866673 0.757674 0.443562 0.228292
H72   H     H_    0.860835 0.623179 0.437343 0.237915
N31   N     N_3   0.315758 0.156167 0.535407 -0.650600
H73   H     H_    0.371467 0.230892 0.556586 0.235835
H74   H     H_    0.251299 0.090198 0.558497 0.223809
N32   N     N_3   0.172358 0.367856 0.928498 -0.650207
H75   H     H_    0.135516 0.276476 0.936020 0.221757
H76   H     H_    0.265323 0.413804 0.933468 0.251907
N33   N     N_3   0.837987 0.679794 0.537782 -0.645487
H77   H     H_    0.893404 0.652442 0.521372 0.235780
H78   H     H_    0.872314 0.770552 0.529676 0.236575
N34   N     N_3   0.188438 0.848615 0.930876 -0.665887
H79   H     H_    0.132391 0.757006 0.936929 0.247368
H80   H     H_    0.142612 0.894949 0.938139 0.214322
N35   N     N_3   0.857711 0.158947 0.538677 -0.619688
H81   H     H_    0.922267 0.172148 0.565163 0.225335
H82   H     H_    0.864778 0.101496 0.513494 0.264258
N36   N     N_3   0.676234 0.813171 0.931888 -0.659283
H83   H     H_    0.768508 0.860943 0.939197 0.223659
H84   H     H_    0.638378 0.867062 0.937883 0.248888

loop_
_geom_bond_atom_site_label_1
_geom_bond_atom_site_label_2
_ccdc_geom_bond_type
C44   C49   A    
C97   N25   S    
N7    H25   S    
N35   H82   S    
N31   H73   S    
N5    H21   S    
C82   C94   A    
C46   N5    S    
C18   C21   A    
N17   H46   S    
N17   H45   S    
C41   N10   S    
C100  N28   S    
C26   N19   S    
C3    O15   A    
Cr6   O26   S    
Cr4   O7    S    
C6    O4    A    
C50   C79   A    
N26   H64   S    
C12   C49   S    
C38   N7    S    
N21   H53   S    
C78   C90   A    
N16   H43   S    
C31   C67   A    
C99   C108  A    
N7    H26   S    
C81   H6    S    
C77   C89   A    
N33   H77   S    
C44   N1    S    
C83   H4    S    
C15   C87   A    
N2    H15   S    
Cr1   O25   S    
N22   H56   S    
C41   C58   A    
C11   O9    A    
N11   H34   S    
N20   H51   S    
C4    O16   A    
C3    O1    A    
C5    O17   A    
C86   C103  A    
C34   N17   S    
C98   C103  A    
C14   C62   A    
C96   C99   A    
C27   N24   S    
C81   C93   A    
Cr4   O19   S    
C102  C105  A    
C8    O12   A    
N1    H13   S    
C84   C96   A    
C106  N34   S    
N13   H38   S    
N8    H27   S    
C5    C56   S    
C58   C77   A    
C37   N8    S    
C47   N4    S    
C108  N36   S    
N2    H16   S    
C11   O23   A    
C48   C51   A    
C37   C61   A    
C87   C108  A    
C28   C35   A    
N10   H32   S    
C84   H3    S    
N31   H74   S    
C89   C106  A    
C2    O6    A    
Cr6   O9    S    
Cr4   O26   S    
C19   C67   A    
Cr1   O16   S    
C77   H10   S    
N1    H14   S    
Cr2   O2    S    
C34   C70   A    
N4    H20   S    
C13   C20   A    
C33   C69   A    
C32   C68   A    
C40   N11   S    
Cr2   O14   S    
C25   C32   A    
N6    H24   S    
C35   C71   A    
C26   C31   A    
N5    H22   S    
C40   C59   A    
N29   H69   S    
C4    C57   S    
C76   H11   S    
C22   C94   A    
Cr5   O26   S    
N13   H37   S    
C9    C52   S    
N28   H68   S    
C82   H5    S    
C48   C72   A    
C6    C55   S    
C10   C51   S    
C14   C19   A    
C42   C57   A    
N30   H72   S    
N26   H63   S    
Cr3   O3    S    
C92   C97   A    
C98   N26   S    
N21   H54   S    
C48   N3    S    
N32   H76   S    
N33   H78   S    
C46   C70   A    
C38   C55   A    
C101  N29   S    
N19   H49   S    
C18   C90   A    
C12   O24   A    
C42   C66   A    
C17   C89   A    
N22   H55   S    
C94   C101  A    
Cr2   O25   S    
C1    C60   S    
N23   H57   S    
C7    O11   A    
C88   C107  A    
C4    O2    A    
C2    C59   S    
C29   N22   S    
C41   C65   A    
N9    H30   S    
C38   C62   A    
C45   C69   A    
C31   N14   S    
C9    O21   A    
Cr4   O22   S    
C21   C69   A    
C53   C82   A    
N14   H40   S    
Cr5   O20   S    
C80   C92   A    
C52   C83   A    
N36   H84   S    
N11   H33   S    
C9    O7    A    
Cr5   O23   S    
C17   C65   A    
N23   H58   S    
C20   C92   A    
C39   N12   S    
C103  N31   S    
N3    H17   S    
C79   C91   A    
C80   H1    S    
C83   C95   A    
N3    H18   S    
N25   H61   S    
C107  N35   S    
Cr2   O5    S    
N27   H66   S    
C25   C61   A    
C74   C86   A    
N24   H60   S    
C78   H9    S    
C14   C86   A    
C30   C66   A    
C85   C104  A    
C27   C63   A    
C37   C56   A    
C29   C65   A    
Cr3   O18   S    
C75   C87   A    
N6    H23   S    
C59   C76   A    
N18   H48   S    
C45   C54   A    
C73   H8    S    
C16   C23   A    
C104  N32   S    
Cr5   O8    S    
N29   H70   S    
Cr5   O11   S    
C44   C68   A    
C18   C66   A    
N28   H67   S    
C47   C71   A    
N12   H36   S    
C43   N2    S    
C28   C64   A    
N27   H65   S    
N10   H31   S    
C24   C72   A    
N34   H80   S    
N4    H19   S    
C73   C85   A    
C101  C106  A    
C76   C88   A    
N32   H75   S    
C15   C24   A    
C100  C107  A    
C15   C63   A    
C56   C73   A    
C33   N18   S    
C30   C33   A    
C95   C100  A    
C93   C102  A    
C102  N30   S    
C57   C78   A    
C20   C68   A    
C8    O20   A    
C10   O8    A    
C90   C105  A    
N19   H50   S    
C1    O5    A    
Cr3   O25   S    
C8    C53   S    
Cr6   O21   S    
C99   N27   S    
C43   C50   A    
C47   C52   A    
C1    O13   A    
C27   C36   A    
C28   N23   S    
C39   C63   A    
C16   C64   A    
C60   C75   A    
N20   H52   S    
C17   C22   A    
C40   C64   A    
C49   C80   A    
Cr1   O13   S    
C75   H12   S    
C2    O14   A    
N14   H39   S    
Cr2   O17   S    
C24   C96   A    
N36   H83   S    
C26   C62   A    
Cr4   O10   S    
C105  N33   S    
C55   C74   A    
C11   C50   S    
C30   N21   S    
C21   C93   A    
C39   C60   A    
C29   C34   A    
C46   C53   A    
C5    O3    A    
N30   H71   S    
N25   H62   S    
C23   C95   A    
C32   N13   S    
Cr6   O12   S    
C91   C98   A    
C25   N20   S    
N24   H59   S    
C45   N6    S    
N8    H28   S    
C36   N15   S    
C97   C104  A    
C19   C91   A    
Cr3   O15   S    
N15   H41   S    
C3    C58   S    
C36   C72   A    
Cr3   O6    S    
C74   H7    S    
C13   C61   A    
N18   H47   S    
C23   C71   A    
C43   C67   A    
N9    H29   S    
C12   O10   A    
C13   C85   A    
Cr1   O4    S    
C16   C88   A    
Cr6   O24   S    
N16   H44   S    
C42   N9    S    
C7    C54   S    
C7    O19   A    
N12   H35   S    
C79   H2    S    
C6    O18   A    
C51   C84   A    
C22   C70   A    
C54   C81   A    
N35   H81   S    
C35   N16   S    
C10   O22   A    
N34   H79   S    
N15   H42   S    
Cr1   O1    S    
