data_mof_unit_34964.cif
_audit_creation_date              2013-03-05T16:10:36-0500
_audit_creation_method            fapswitch 2.2
_symmetry_space_group_name_H-M    P1
_symmetry_Int_Tables_number       1
_space_group_crystal_system       triclinic
_cell_length_a                    16.5676
_cell_length_b                    16.267816
_cell_length_c                    9.393221
_cell_angle_alpha                 90.351098
_cell_angle_beta                  90.008257
_cell_angle_gamma                 89.920501
_cell_volume                      2531.59842362

loop_
_atom_site_label
_atom_site_type_symbol
_atom_site_description
_atom_site_fract_x
_atom_site_fract_y
_atom_site_fract_z
_atom_type_partial_charge
O1    O     O_R   0.091250 0.408820 0.620260 -0.551131
O2    O     O_R   0.091250 0.408820 0.379740 -0.537076
O3    O     O_R   0.091250 0.591180 0.620260 -0.594263
O4    O     O_R   0.091250 0.591180 0.379740 -0.613423
O5    O     O_R   0.591250 0.908820 0.620260 -0.539510
O6    O     O_R   0.591250 0.908820 0.379740 -0.528172
O7    O     O_R   0.591250 0.091180 0.620260 -0.607450
O8    O     O_R   0.591250 0.091180 0.379740 -0.584140
C1    C     C_R   0.125326 0.385158 0.499473 0.840780
C2    C     C_R   0.121126 0.620211 0.499856 0.721966
C3    C     C_R   0.625857 0.885267 0.500159 0.963359
C4    C     C_R   0.621951 0.118611 0.501219 0.721371
O9    O     O_R   0.908940 0.408800 0.620260 -0.556160
O10   O     O_R   0.908940 0.408800 0.379740 -0.551299
O11   O     O_R   0.908940 0.591200 0.620260 -0.564501
O12   O     O_R   0.908940 0.591200 0.379740 -0.578926
O13   O     O_R   0.408940 0.908800 0.620260 -0.546359
O14   O     O_R   0.408940 0.908800 0.379740 -0.559552
O15   O     O_R   0.408940 0.091200 0.620260 -0.562535
O16   O     O_R   0.408940 0.091200 0.379740 -0.581100
C5    C     C_R   0.879752 0.379133 0.500612 1.007440
C6    C     C_R   0.877809 0.618112 0.499101 1.023305
C7    C     C_R   0.387569 0.872627 0.498625 1.050353
C8    C     C_R   0.375332 0.115888 0.501205 1.006682
Cu1   Cu    Cu3+1 0.000100 0.500000 0.642410 1.038245
Cu2   Cu    Cu3+1 0.000100 0.500000 0.357590 1.037879
Cu3   Cu    Cu3+1 0.500100 0.000000 0.642410 1.050131
Cu4   Cu    Cu3+1 0.500100 1.000000 0.357590 1.050061
C9    C     C_3   0.821432 0.244381 0.628264 0.068344
C10   C     C_3   0.793860 0.266883 0.353560 0.130618
C11   C     C_3   0.822245 0.750161 0.626347 0.093209
C12   C     C_3   0.813272 0.742916 0.354808 -0.021852
C13   C     C_3   0.318470 0.747239 0.635838 0.092324
C14   C     C_3   0.321822 0.744118 0.360185 0.068230
C15   C     C_3   0.298045 0.231068 0.652735 0.120610
C16   C     C_3   0.320833 0.246591 0.381015 0.064894
H1    H     H_    0.821026 0.280489 0.726278 0.233092
H2    H     H_    0.750981 0.305214 0.296174 0.216948
H3    H     H_    0.800366 0.714984 0.717704 0.160039
H4    H     H_    0.811177 0.699182 0.267339 0.235718
H5    H     H_    0.296232 0.789625 0.715671 0.209080
H6    H     H_    0.320558 0.783178 0.266097 0.229332
H7    H     H_    0.269099 0.185653 0.714252 0.209490
H8    H     H_    0.317470 0.207851 0.286096 0.216141
C17   C     C_3   0.256812 0.672710 0.628154 0.050078
C18   C     C_3   0.244843 0.684576 0.345386 0.057880
C19   C     C_3   0.240839 0.309425 0.653863 -0.017491
C20   C     C_3   0.256960 0.319599 0.365939 0.052432
C21   C     C_3   0.749964 0.179214 0.645677 0.048255
C22   C     C_3   0.748618 0.182932 0.362748 0.028805
C23   C     C_3   0.770386 0.833333 0.611912 -0.004090
C24   C     C_3   0.734249 0.800213 0.337220 0.036437
C25   C     C_3   0.721384 0.352142 0.540752 0.369720
C26   C     C_3   0.719344 0.652611 0.508100 0.268397
C27   C     C_3   0.231895 0.849031 0.496132 0.385910
C28   C     C_3   0.210694 0.148858 0.469777 0.303691
C29   C     C_3   0.808659 0.311424 0.504262 -0.369076
C30   C     C_3   0.810784 0.689022 0.497009 -0.295465
C31   C     C_3   0.318752 0.803315 0.496443 -0.388505
C32   C     C_3   0.303798 0.183259 0.504451 -0.346489
C33   C     C_3   0.192722 0.688075 0.497535 -0.455896
C34   C     C_3   0.191697 0.313455 0.499730 -0.263109
C35   C     C_3   0.690816 0.187941 0.506564 -0.453669
C36   C     C_3   0.695203 0.815325 0.499317 -0.262404
C37   C     C_3   0.158309 0.780868 0.514988 -0.366634
C38   C     C_3   0.146362 0.225743 0.483587 -0.348660
C39   C     C_3   0.651581 0.279515 0.517189 -0.363913
C40   C     C_3   0.658980 0.727971 0.553607 -0.344945
C41   C     C_3   0.929687 0.543825 0.084016 -0.200772
C42   C     C_3   0.932147 0.547619 0.916286 -0.192471
C43   C     C_3   0.997450 0.415696 0.081908 -0.131390
C44   C     C_3   0.992282 0.415859 0.915009 -0.144498
C45   C     C_3   0.422788 0.028108 0.083558 -0.156559
C46   C     C_3   0.422567 0.027727 0.915953 -0.182988
C47   C     C_3   0.516301 0.917072 0.083224 -0.172513
C48   C     C_3   0.516152 0.917176 0.916181 -0.151262
H9    H     H_    0.926995 0.607510 0.125055 0.222124
H10   H     H_    0.935961 0.612963 0.882662 0.202681
H11   H     H_    0.050160 0.379879 0.113618 0.274316
H12   H     H_    0.037155 0.373666 0.868698 0.258054
H13   H     H_    0.409280 0.091630 0.120704 0.213065
H14   H     H_    0.408684 0.090857 0.879343 0.218685
H15   H     H_    0.576672 0.896393 0.117382 0.233543
H16   H     H_    0.576273 0.896511 0.881753 0.257670
H17   H     H_    0.873119 0.513239 0.119224 0.230866
H18   H     H_    0.874628 0.523218 0.873637 0.253922
H19   H     H_    0.944226 0.383267 0.124418 0.223302
H20   H     H_    0.933109 0.389484 0.882900 0.210586
H21   H     H_    0.373595 0.987987 0.121943 0.246879
H22   H     H_    0.373127 0.987632 0.875631 0.220460
H23   H     H_    0.471117 0.872582 0.123993 0.222612
H24   H     H_    0.470350 0.873106 0.876492 0.235787
H25   H     H_    0.068588 0.606687 0.117546 0.214540
H26   H     H_    0.080816 0.601180 0.878012 0.209743
H27   H     H_    0.128509 0.515095 0.130076 0.217586
H28   H     H_    0.127438 0.502062 0.882020 0.238798
H29   H     H_    0.554809 0.117972 0.124792 0.218396
H30   H     H_    0.553557 0.118720 0.878699 0.207620
H31   H     H_    0.621879 0.030418 0.120756 0.248791
H32   H     H_    0.621775 0.032580 0.878039 0.245772
C49   C     C_3   0.072509 0.541305 0.084592 -0.126398
C50   C     C_3   0.074665 0.537412 0.917745 -0.117130
C51   C     C_3   0.563528 0.054349 0.084124 -0.139575
C52   C     C_3   0.563092 0.054876 0.916882 -0.145243
N1    N     N_3   0.001260 0.500000 0.143650 -0.230119
N2    N     N_3   0.001260 0.500000 0.856350 -0.227913
N3    N     N_3   0.501260 0.000000 0.143650 -0.237495
N4    N     N_3   0.501260 0.000000 0.856350 -0.232320
N5    N     N_R   0.900958 0.206887 0.639921 0.145513
O17   O     O_R   0.930425 0.196842 0.767634 -0.216069
O18   O     O_R   0.930608 0.162834 0.537416 -0.343672
N6    N     N_R   0.860672 0.265215 0.253995 0.166579
O19   O     O_R   0.847506 0.260367 0.117490 -0.222119
O20   O     O_R   0.932839 0.256814 0.300863 -0.320938
N7    N     N_R   0.906326 0.765060 0.664609 0.174449
O21   O     O_R   0.925697 0.781975 0.795870 -0.240409
O22   O     O_R   0.962817 0.749328 0.574062 -0.410363
N8    N     N_R   0.892144 0.781170 0.323296 0.141878
O23   O     O_R   0.941930 0.740564 0.242113 -0.358887
O24   O     O_R   0.903947 0.859762 0.333590 -0.284821
N9    N     N_R   0.394595 0.724535 0.705184 0.167614
O25   O     O_R   0.390773 0.686707 0.826923 -0.171153
O26   O     O_R   0.457506 0.769025 0.685762 -0.347186
N10   N     N_R   0.399362 0.701987 0.341663 0.169699
O27   O     O_R   0.440462 0.713721 0.225283 -0.202525
O28   O     O_R   0.420066 0.641415 0.422769 -0.284638
N11   N     N_R   0.369013 0.240521 0.744367 0.173767
O29   O     O_R   0.359244 0.253642 0.880278 -0.247234
O30   O     O_R   0.441102 0.230165 0.697201 -0.347923
N12   N     N_R   0.404062 0.274539 0.370295 0.083385
O31   O     O_R   0.436032 0.279437 0.243835 -0.309293
O32   O     O_R   0.434793 0.318124 0.471839 -0.229375
C53   C     C_2   0.297624 0.590444 0.600060 0.661016
H33   H     H_    0.260080 0.543200 0.556792 -0.083304
O33   O     O_2   0.363869 0.571054 0.645874 -0.350583
C54   C     C_2   0.269363 0.595714 0.308505 0.556637
H34   H     H_    0.230387 0.545640 0.338187 -0.012092
O34   O     O_2   0.322118 0.580374 0.221246 -0.381025
C55   C     C_2   0.287266 0.388742 0.678569 0.669230
H35   H     H_    0.251869 0.443665 0.690975 0.045717
O35   O     O_2   0.359913 0.393029 0.699096 -0.321432
C56   C     C_2   0.302917 0.401424 0.346681 0.449457
H36   H     H_    0.314120 0.422992 0.239309 0.203659
O36   O     O_2   0.338150 0.438987 0.438987 -0.493411
C57   C     C_2   0.779658 0.090287 0.656185 0.571362
H37   H     H_    0.742708 0.042119 0.612104 -0.017732
O37   O     O_2   0.835067 0.070255 0.734389 -0.330619
C58   C     C_2   0.807487 0.110790 0.369455 0.629857
H38   H     H_    0.783069 0.054122 0.402116 0.009364
O38   O     O_2   0.871264 0.107929 0.304445 -0.359823
C59   C     C_2   0.823982 0.902504 0.563734 0.615395
H39   H     H_    0.807567 0.938515 0.475561 0.021010
O39   O     O_2   0.884373 0.922551 0.629962 -0.331042
C60   C     C_2   0.754625 0.876905 0.251121 0.476732
H40   H     H_    0.793326 0.870375 0.158413 0.205852
O40   O     O_2   0.723956 0.943752 0.272207 -0.592686
N13   N     N_R   0.220333 0.663703 0.773074 0.103999
O41   O     O_R   0.205005 0.727730 0.852488 -0.283507
O42   O     O_R   0.231490 0.595486 0.842301 -0.316945
N14   N     N_R   0.198974 0.710016 0.214445 0.096941
O43   O     O_R   0.185575 0.786318 0.183347 -0.271037
O44   O     O_R   0.195179 0.660610 0.105557 -0.285042
N15   N     N_R   0.187714 0.304509 0.784441 0.143438
O45   O     O_R   0.171728 0.235094 0.846988 -0.251237
O46   O     O_R   0.177945 0.368899 0.865236 -0.352562
N16   N     N_R   0.216376 0.311994 0.224356 0.153315
O47   O     O_R   0.220834 0.246347 0.144568 -0.213918
O48   O     O_R   0.186441 0.377083 0.164272 -0.361698
N17   N     N_R   0.710642 0.193833 0.787766 0.105610
O49   O     O_R   0.699451 0.266733 0.840798 -0.271625
O50   O     O_R   0.711544 0.136221 0.882118 -0.263794
N18   N     N_R   0.706148 0.168217 0.223916 0.125482
O51   O     O_R   0.665901 0.225309 0.158857 -0.284535
O52   O     O_R   0.731506 0.108652 0.142067 -0.247016
N19   N     N_R   0.743345 0.860449 0.756131 0.151793
O53   O     O_R   0.766588 0.822171 0.870487 -0.293803
O54   O     O_R   0.713687 0.933535 0.774574 -0.378183
N20   N     N_R   0.678877 0.757032 0.236348 0.146930
O55   O     O_R   0.708089 0.725612 0.119041 -0.287972
O56   O     O_R   0.602846 0.774257 0.232253 -0.268923
N21   N     N_R   0.720437 0.390237 0.687625 0.172593
O57   O     O_R   0.655151 0.420888 0.742527 -0.122030
O58   O     O_R   0.785668 0.410332 0.755332 -0.337884
N22   N     N_R   0.703740 0.420555 0.445013 0.146948
O59   O     O_R   0.634853 0.458165 0.456910 -0.139534
O60   O     O_R   0.750545 0.438761 0.339216 -0.319948
N23   N     N_R   0.710912 0.587519 0.616536 0.099424
O61   O     O_R   0.767886 0.570905 0.706360 -0.364993
O62   O     O_R   0.638543 0.563720 0.650227 -0.253543
N24   N     N_R   0.696372 0.613779 0.368635 0.176607
O63   O     O_R   0.750879 0.582389 0.285302 -0.301086
O64   O     O_R   0.621915 0.598160 0.333964 -0.184453
N25   N     N_R   0.235069 0.912452 0.610644 0.157342
O65   O     O_R   0.219065 0.899278 0.744243 -0.261781
O66   O     O_R   0.279518 0.975867 0.584238 -0.337196
N26   N     N_R   0.219772 0.897172 0.362300 0.178652
O67   O     O_R   0.156386 0.942545 0.347430 -0.133896
O68   O     O_R   0.275868 0.909440 0.268786 -0.317158
N27   N     N_R   0.178997 0.083817 0.565840 0.129670
O69   O     O_R   0.196265 0.079623 0.700899 -0.283407
O70   O     O_R   0.113176 0.046002 0.527522 -0.222432
N28   N     N_R   0.210710 0.110566 0.322952 0.161311
O71   O     O_R   0.274051 0.072280 0.276852 -0.319276
O72   O     O_R   0.144678 0.091435 0.255553 -0.204608
C61   C     C_2   0.110824 0.790168 0.653272 0.680570
H41   H     H_    0.091526 0.736382 0.710790 0.119365
O73   O     O_2   0.079971 0.855611 0.688607 -0.317535
C62   C     C_2   0.090495 0.791658 0.408181 0.672324
H42   H     H_    0.074333 0.742822 0.335957 0.134261
O74   O     O_2   0.047803 0.852673 0.409522 -0.323151
C63   C     C_2   0.088059 0.216987 0.609801 0.499396
H43   H     H_    0.080260 0.162534 0.672530 0.233041
O75   O     O_2   0.041722 0.271894 0.640980 -0.496345
C64   C     C_2   0.084489 0.219067 0.365843 0.680202
H44   H     H_    0.043235 0.167239 0.367278 0.186935
O76   O     O_2   0.078241 0.266485 0.267769 -0.439295
C65   C     C_2   0.589078 0.283792 0.633485 0.606623
H45   H     H_    0.580445 0.233404 0.705408 0.136260
O77   O     O_2   0.544901 0.343537 0.646658 -0.315472
C66   C     C_2   0.597724 0.286844 0.385400 0.653249
H46   H     H_    0.555734 0.237611 0.365151 0.103070
O78   O     O_2   0.599122 0.342664 0.299371 -0.343613
C67   C     C_2   0.646987 0.728141 0.717284 0.495887
H47   H     H_    0.681278 0.689833 0.788752 0.180522
O79   O     O_2   0.598047 0.772257 0.775469 -0.469227
C68   C     C_2   0.573796 0.710359 0.506952 0.747387
H48   H     H_    0.547242 0.651828 0.533434 0.184749
O80   O     O_2   0.530456 0.762009 0.454457 -0.492656

loop_
_geom_bond_atom_site_label_1
_geom_bond_atom_site_label_2
_geom_bond_distance
_ccdc_geom_bond_type
O1    Cu1   2.124634 S    
C47   N3    1.481199 S    
N24   O63   1.297306 A    
C21   C35   1.639969 S    
C62   O74   1.218023 D    
C27   C31   1.618935 S    
C42   H10   1.112670 S    
C13   C17   1.587784 S    
C45   C46   1.574326 S    
C41   H9    1.104046 S    
C67   H47   1.079739 S    
C14   H6    1.091846 S    
C12   C30   1.602813 S    
C15   C19   1.587351 S    
C48   H16   1.098903 S    
C19   C34   1.662523 S    
C43   H11   1.091547 S    
N20   O55   1.304700 A    
N19   O54   1.296509 A    
C37   C62   1.516876 S    
C9    C21   1.599460 S    
C61   H41   1.079972 S    
C7    C31   1.604684 S    
C49   C50   1.568530 S    
N28   O72   1.301078 A    
C36   C40   1.628171 S    
C11   C30   1.576991 S    
C9    N5    1.455518 S    
C39   C66   1.531016 S    
N15   O46   1.299694 A    
C58   O38   1.221158 D    
O5    C3    1.320043 A    
H28   C50   1.097292 S    
N5    O18   1.293317 A    
C51   N3    1.472199 S    
C64   O76   1.209494 D    
N20   O56   1.290669 A    
O11   Cu1   2.126716 S    
C28   N28   1.509828 S    
Cu4   N3    2.009680 S    
C24   C60   1.529101 S    
N7    O21   1.301870 A    
C10   C29   1.605250 S    
C16   N12   1.456217 S    
H32   C52   1.098809 S    
O7    Cu3   2.129334 S    
N22   O59   1.298721 A    
C10   H2    1.089427 S    
C15   N11   1.464759 S    
N17   O49   1.296577 A    
C45   H13   1.111138 S    
N8    O23   1.300278 A    
C12   C24   1.615119 S    
C27   C37   1.659358 S    
C13   C31   1.600395 S    
O5    Cu3   2.124634 S    
N12   O31   1.303604 A    
O11   C6    1.325980 A    
O6    Cu4   2.126371 S    
O16   C8    1.329299 A    
N22   O60   1.296567 A    
C62   H42   1.075657 S    
N25   O66   1.293600 A    
O15   Cu3   2.126716 S    
N24   O64   1.300781 A    
C59   H39   1.052870 S    
C17   N13   1.497567 S    
C16   C20   1.596564 S    
C14   C18   1.608054 S    
C15   H7    1.056411 S    
C60   O40   1.214835 D    
C47   H23   1.111686 S    
C28   N27   1.490941 S    
C19   N15   1.512352 S    
N21   O58   1.295200 A    
C27   N26   1.498516 S    
C10   C22   1.561644 S    
C23   C59   1.506192 S    
N27   O69   1.302625 A    
C48   N4    1.483383 S    
C59   O39   1.221752 D    
N16   O48   1.300561 A    
C22   C35   1.657540 S    
N17   O50   1.293913 A    
C14   N10   1.465089 S    
O9    Cu1   2.127861 S    
C46   H14   1.108839 S    
Cu2   N1    2.009680 S    
C11   N7    1.458828 S    
C66   H46   1.077608 S    
C57   O37   1.220848 D    
N18   O52   1.302449 A    
Cu1   N2    2.009675 S    
C57   H37   1.075868 S    
N8    O24   1.296694 A    
C61   O73   1.224359 D    
C49   N1    1.469566 S    
O7    C4    1.309611 A    
C35   C39   1.627036 S    
N9    O26   1.283445 A    
N28   O71   1.292938 A    
C34   C38   1.619692 S    
C18   C33   1.670529 S    
C21   C57   1.531103 S    
C1    C34   1.601947 S    
O13   Cu3   2.127861 S    
O1    C1    1.322269 A    
C39   C65   1.506548 S    
O14   Cu4   2.129681 S    
C58   H38   1.054586 S    
N26   O68   1.295395 A    
C3    C36   1.615832 S    
C42   N2    1.490146 S    
C25   N22   1.464276 S    
H25   C49   1.107745 S    
O6    C3    1.326455 A    
C4    C35   1.605964 S    
C41   N1    1.493483 S    
C64   H44   1.086249 S    
C54   H34   1.078220 S    
O16   Cu4   2.124979 S    
N7    O22   1.289083 A    
C65   H45   1.075134 S    
N21   O57   1.296150 A    
C18   C54   1.538513 S    
O14   C7    1.314318 A    
N13   O41   1.302155 A    
C10   N6    1.449336 S    
C15   C32   1.593932 S    
N14   O44   1.298506 A    
C38   C64   1.511398 S    
C13   N9    1.467238 S    
N12   O32   1.290070 A    
C47   C48   1.569078 S    
N11   O30   1.284441 A    
C63   H43   1.074855 S    
C5    C29   1.614242 S    
C25   N21   1.509017 S    
C20   C34   1.661541 S    
N19   O53   1.302799 A    
O3    Cu1   2.129334 S    
O8    C4    1.324441 A    
C26   C40   1.635889 S    
C18   N14   1.505555 S    
C9    C29   1.614267 S    
N9    O25   1.303492 A    
C20   C56   1.545997 S    
O2    Cu2   2.126371 S    
O13   C7    1.330133 A    
O10   Cu2   2.129681 S    
C23   N19   1.490890 S    
C60   H40   1.086086 S    
H29   C51   1.110312 S    
C48   H24   1.107675 S    
C43   H19   1.104221 S    
N6    O20   1.281463 A    
C54   O34   1.222743 D    
C27   N25   1.486848 S    
C44   N2    1.486324 S    
N25   O65   1.301779 A    
C68   O80   1.211622 D    
C26   N23   1.480512 S    
C43   N1    1.487169 S    
C24   C36   1.671080 S    
C53   H33   1.067793 S    
O8    Cu4   2.127514 S    
C56   O36   1.208412 D    
C16   H8    1.090149 S    
C2    C33   1.621805 S    
C19   C55   1.519695 S    
O4    C2    1.317194 A    
N11   O29   1.303146 A    
C42   H18   1.106866 S    
C12   N8    1.478856 S    
C52   N4    1.471663 S    
C41   H17   1.112969 S    
N18   O51   1.298381 A    
O10   C5    1.327917 A    
N10   O28   1.295081 A    
C26   C30   1.630963 S    
C22   C58   1.526511 S    
O12   C6    1.307009 A    
C26   N24   1.500157 S    
C63   O75   1.211572 D    
C14   C31   1.597770 S    
H31   C51   1.097743 S    
C23   C36   1.659150 S    
C11   C23   1.608184 S    
N26   O67   1.290826 A    
C16   C32   1.581452 S    
O12   Cu2   2.124979 S    
C25   C29   1.625321 S    
C6    C30   1.600264 S    
O4    Cu2   2.127514 S    
C55   H35   1.073815 S    
C67   O79   1.210326 D    
C65   O77   1.221550 D    
C17   C53   1.520213 S    
C66   O78   1.219501 D    
C44   H20   1.111594 S    
C37   C61   1.525315 S    
C13   H5    1.080072 S    
N14   O43   1.295755 A    
C46   H22   1.112745 S    
O15   C8    1.314019 A    
Cu1   Cu2   2.675376 S    
C45   H21   1.106657 S    
N23   O61   1.295303 A    
C44   H12   1.099119 S    
O3    C2    1.324582 A    
N5    O17   1.306207 A    
O9    C5    1.312906 A    
C21   N17   1.502745 S    
C55   O35   1.220922 D    
C47   H15   1.103103 S    
N16   O47   1.302926 A    
Cu3   N4    2.009675 S    
C28   C38   1.646686 S    
C17   C33   1.642543 S    
C11   H3    1.096332 S    
C50   N2    1.476334 S    
N6    O19   1.302551 A    
C12   H4    1.084128 S    
C33   C37   1.620265 S    
C41   C42   1.577643 S    
C25   C39   1.668187 S    
C24   N20   1.492049 S    
N23   O62   1.300188 A    
N15   O45   1.303649 A    
C45   N3    1.489715 S    
C40   C68   1.505081 S    
C46   N4    1.487337 S    
C40   C67   1.550246 S    
C28   C32   1.672912 S    
C43   C44   1.570056 S    
C20   N16   1.494674 S    
H26   C50   1.109444 S    
N13   O42   1.302608 A    
C68   H48   1.079888 S    
C9    H1    1.089070 S    
C51   C52   1.571034 S    
N27   O70   1.302377 A    
C53   O33   1.220582 D    
C56   H36   1.085965 S    
C22   N18   1.499795 S    
C8    C32   1.613280 S    
C38   C63   1.536765 S    
O2    C1    1.317688 A    
H30   C52   1.111938 S    
H27   C49   1.107305 S    
N10   O27   1.303182 A    
Cu3   Cu4   2.675376 S    
