data_mof_unit_29243.cif
_audit_creation_date              2012-12-10T19:24:11-0500
_audit_creation_method            fapswitch 2.2
_symmetry_space_group_name_H-M    P1
_symmetry_Int_Tables_number       1
_space_group_crystal_system       triclinic
_cell_length_a                    10.520152
_cell_length_b                    10.518075
_cell_length_c                    9.79822
_cell_angle_alpha                 89.562219
_cell_angle_beta                  90.615691
_cell_angle_gamma                 89.832531
_cell_volume                      1084.09102971

loop_
_atom_site_label
_atom_site_type_symbol
_atom_type_description
_atom_site_fract_x
_atom_site_fract_y
_atom_site_fract_z
_atom_type_partial_charge
C1    C     C_R   0.498937 0.258130 0.500694 0.886598
C2    C     C_R   0.501062 0.741870 0.499306 0.886600
C3    C     C_3   0.392819 0.956625 0.551572 0.076198
C4    C     C_3   0.607180 0.043375 0.448428 0.076198
C5    C     C_3   0.452903 0.398097 0.047069 0.210187
C6    C     C_3   0.547097 0.601903 0.952931 0.210213
C7    C     C_3   0.566750 0.405498 0.952524 -0.095914
C8    C     C_3   0.433250 0.594502 0.047476 -0.095946
C9    C     C_3   0.384842 0.489991 0.949868 -0.158935
C10   C     C_3   0.615158 0.510009 0.050132 -0.158912
C11   C     C_R   0.258120 0.501332 0.499073 0.884216
C12   C     C_R   0.741879 0.498667 0.500927 0.884220
C13   C     C_3   0.044443 0.391759 0.550608 0.108640
C14   C     C_3   0.955556 0.608236 0.449391 0.108698
C15   C     C_3   0.956807 0.400071 0.423315 -0.345686
C16   C     C_3   0.043193 0.599924 0.576684 -0.345683
C17   C     C_3   0.876146 0.497413 0.502620 -0.043065
C18   C     C_3   0.123853 0.502582 0.497379 -0.043091
C19   C     C_3   0.963525 0.486667 0.628191 0.153652
C20   C     C_3   0.036474 0.513329 0.371807 0.153645
C21   C     C_3   0.489708 0.037276 0.628152 0.159928
C22   C     C_3   0.510290 0.962724 0.371848 0.159929
C23   C     C_3   0.601582 0.956510 0.576046 -0.295059
C24   C     C_3   0.398417 0.043489 0.423954 -0.295064
C25   C     C_3   0.502162 0.876123 0.497800 -0.052691
C26   C     C_3   0.497837 0.123876 0.502199 -0.052690
H1    H     H_    0.920135 0.319633 0.361846 0.156740
H2    H     H_    0.079864 0.680363 0.638151 0.156738
H3    H     H_    0.683375 0.919010 0.636714 0.145336
H4    H     H_    0.316624 0.080990 0.363286 0.145333
H5    H     H_    0.620760 0.325245 0.908107 0.146593
H6    H     H_    0.379240 0.674755 0.091893 0.146597
H7    H     H_    0.288627 0.479352 0.903747 0.138004
H8    H     H_    0.711372 0.520648 0.096253 0.138006
N1    N     N_3   0.499910 0.500030 0.863290 -0.084425
N2    N     N_3   0.500090 0.499970 0.136710 -0.084432
O1    O     O_R   0.500010 0.313960 0.616610 -0.618693
O2    O     O_R   0.499990 0.686040 0.383390 -0.618686
O3    O     O_R   0.500060 0.313950 0.383350 -0.595240
O4    O     O_R   0.499940 0.686050 0.616650 -0.595236
O5    O     O_R   0.313930 0.499970 0.616610 -0.613223
O6    O     O_R   0.686070 0.500030 0.383390 -0.613232
O7    O     O_R   0.313980 0.499960 0.383350 -0.627498
O8    O     O_R   0.686020 0.500040 0.616650 -0.627439
Zn1   Zn    Zn3+2 0.499970 0.500010 0.655740 0.956186
Zn2   Zn    Zn3+2 0.500030 0.499990 0.344260 0.956165
N3    N     N_3   0.097612 0.275125 0.608864 -0.464396
H9    H     H_    0.021474 0.215182 0.631264 0.182258
H10   H     H_    0.149807 0.230795 0.532429 0.158157
N4    N     N_3   0.902388 0.724871 0.391136 -0.464353
H11   H     H_    0.978526 0.784818 0.368750 0.182265
H12   H     H_    0.850183 0.769194 0.467568 0.158141
N5    N     N_3   0.921674 0.467916 0.768141 -0.446317
H13   H     H_    0.003215 0.458207 0.829234 0.180019
H14   H     H_    0.877005 0.551817 0.798308 0.175054
N6    N     N_3   0.078316 0.532086 0.231856 -0.446325
H15   H     H_    0.996766 0.541581 0.170740 0.179993
H16   H     H_    0.123169 0.448261 0.201756 0.175103
N7    N     N_3   0.476231 0.080434 0.768214 -0.447508
H17   H     H_    0.471955 0.999519 0.830537 0.197185
H18   H     H_    0.388125 0.125978 0.775014 0.184982
N8    N     N_3   0.523767 0.919565 0.231786 -0.447508
H19   H     H_    0.528024 0.000479 0.169460 0.197185
H20   H     H_    0.611879 0.874035 0.224981 0.184980
N9    N     N_3   0.277371 0.904743 0.610557 -0.458543
H21   H     H_    0.218736 0.981578 0.634518 0.172273
H22   H     H_    0.230572 0.853970 0.533845 0.171022
N10   N     N_3   0.722628 0.095257 0.389442 -0.458543
H23   H     H_    0.781259 0.018422 0.365473 0.172273
H24   H     H_    0.769432 0.146022 0.466157 0.171021
N11   N     N_3   0.400219 0.281896 0.104510 -0.429925
H25   H     H_    0.370190 0.225557 0.023012 0.153952
H26   H     H_    0.318803 0.307112 0.158231 0.179860
N12   N     N_3   0.599782 0.718103 0.895490 -0.429918
H27   H     H_    0.629791 0.774452 0.976987 0.153956
H28   H     H_    0.681210 0.692888 0.841788 0.179873

loop_
_geom_bond_atom_site_label_1
_geom_bond_atom_site_label_2
_ccdc_geom_bond_type
C16   H2    S    
C7    C10   S    
C21   C26   S    
C11   C18   S    
C20   N6    S    
N3    H10   S    
N5    H13   S    
N6    H15   S    
N12   H28   S    
C13   C18   S    
C23   H3    S    
C24   C26   S    
C21   N7    S    
O6    Zn2   S    
C5    N2    S    
C6    N1    S    
C8    N2    S    
N8    H20   S    
C13   N3    S    
N10   H23   S    
N9    H22   S    
C22   C25   S    
C12   C17   S    
N4    H12   S    
C11   O7    A    
C14   C16   S    
C1    O1    A    
C19   N5    S    
N7    H17   S    
C9    H7    S    
C14   C17   S    
C3    C24   S    
C3    N9    S    
C6    N12   S    
N5    H14   S    
O4    Zn1   S    
N7    H18   S    
C7    H5    S    
N12   H27   S    
C13   C19   S    
C12   O6    A    
C8    H6    S    
C14   C20   S    
C3    C25   S    
C5    C7    S    
C4    C23   S    
C8    C9    S    
C6    C8    S    
C4    N10   S    
C15   C20   S    
C5    C9    S    
N8    H19   S    
C22   N8    S    
C4    C22   S    
C2    O2    A    
C15   H1    S    
N3    H9    S    
N4    H11   S    
C10   H8    S    
N2    Zn2   S    
O3    Zn2   S    
C16   C18   S    
C13   C15   S    
C1    C26   S    
C22   C24   S    
C3    C21   S    
O1    Zn1   S    
N1    Zn1   S    
O8    Zn1   S    
N11   H26   S    
C15   C17   S    
C7    N1    S    
C6    C10   S    
C4    C26   S    
C21   C23   S    
N11   H25   S    
C5    N11   S    
C14   N4    S    
C16   C19   S    
C17   C19   S    
N6    H16   S    
C11   O5    A    
C2    C25   S    
C18   C20   S    
C23   C25   S    
O7    Zn2   S    
C24   H4    S    
O2    Zn2   S    
C1    O3    A    
C2    O4    A    
N10   H24   S    
N9    H21   S    
C9    N1    S    
O5    Zn1   S    
C12   O8    A    
C10   N2    S    
