data_mof_unit_52401.cif
_audit_creation_date              2012-12-11T17:04:44-0500
_audit_creation_method            fapswitch 2.2
_symmetry_space_group_name_H-M    P1
_symmetry_Int_Tables_number       1
_space_group_crystal_system       triclinic
_cell_length_a                    17.578462
_cell_length_b                    24.716011
_cell_length_c                    14.95675
_cell_angle_alpha                 90.708522
_cell_angle_beta                  125.635299
_cell_angle_gamma                 89.228346
_cell_volume                      5280.84077

loop_
_atom_site_label
_atom_site_type_symbol
_atom_type_description
_atom_site_fract_x
_atom_site_fract_y
_atom_site_fract_z
_atom_type_partial_charge
C1    C     C_R   0.854866 0.652449 0.905291 0.072378
C2    C     C_R   0.183710 0.633035 0.096834 0.112887
C3    C     C_R   0.345449 0.151791 0.911577 0.085893
C4    C     C_R   0.681780 0.135406 0.090102 0.104311
C5    C     C_R   0.881535 0.321345 0.007208 0.075158
C6    C     C_R   0.181098 0.362346 0.994663 0.079392
C7    C     C_R   0.374369 0.823994 0.003957 0.080234
C8    C     C_R   0.676462 0.858946 0.990348 0.066727
C9    C     C_R   0.946667 0.499915 0.269537 0.118486
C10   C     C_R   0.924349 0.498153 0.625764 0.112534
C11   C     C_R   0.486716 0.999392 0.313203 0.124477
C12   C     C_R   0.421185 0.996536 0.625954 0.114844
C13   C     C_R   0.674748 0.501025 0.711531 0.017623
C14   C     C_R   0.302956 0.501518 0.365949 0.014433
C15   C     C_R   0.174265 0.000780 0.706777 0.006865
C16   C     C_R   0.799737 0.001795 0.368817 0.014795
C17   C     C_3   0.505863 0.457674 0.604884 -0.269582
C18   C     C_3   0.468945 0.461974 0.482543 -0.265876
C19   C     C_3   0.005952 0.956987 0.601290 -0.268618
C20   C     C_3   0.966562 0.963122 0.478502 -0.265775
C21   C     C_3   0.433642 0.500458 0.586797 0.386322
C22   C     C_3   0.536129 0.508319 0.509849 0.391421
C23   C     C_3   0.934564 0.999043 0.587770 0.382813
C24   C     C_3   0.033057 0.009902 0.506114 0.387862
C25   C     C_3   0.397141 0.504175 0.466232 0.110427
C26   C     C_3   0.573945 0.503736 0.630900 0.103944
C27   C     C_3   0.895361 0.004572 0.466653 0.113433
C28   C     C_3   0.073322 0.003474 0.627445 0.104386
C29   C     C_3   0.464634 0.550835 0.492703 -0.230859
C30   C     C_3   0.503207 0.546778 0.615860 -0.235124
C31   C     C_3   0.962164 0.051701 0.493324 -0.233456
C32   C     C_3   0.003426 0.045787 0.617042 -0.231628
C33   C     C_R   0.832887 0.227586 0.963298 0.024365
C34   C     C_R   0.215084 0.267617 0.020540 0.046773
C35   C     C_R   0.379042 0.733950 0.071606 0.056642
C36   C     C_R   0.687988 0.779526 0.903352 0.042776
C37   C     C_R   0.832758 0.276994 0.008520 0.044910
C38   C     C_R   0.232393 0.317805 0.995099 0.030782
C39   C     C_R   0.329582 0.776892 0.002144 0.071786
C40   C     C_R   0.733031 0.821586 0.979387 0.039965
C41   C     C_R   0.766553 0.287974 0.030043 -0.210863
C42   C     C_R   0.309870 0.324665 0.992131 -0.208861
C43   C     C_R   0.232321 0.774972 0.929184 -0.213910
C44   C     C_R   0.831164 0.824152 0.046613 -0.187102
C45   C     C_R   0.941850 0.352207 0.096064 -0.174158
C46   C     C_R   0.093788 0.376167 0.904328 -0.146676
C47   C     C_R   0.442285 0.851915 0.093966 -0.151538
C48   C     C_R   0.590295 0.874739 0.902162 -0.136478
C49   C     C_R   0.185991 0.732361 0.934743 -0.218109
C50   C     C_R   0.882769 0.780370 0.047206 -0.212277
C51   C     C_R   0.709656 0.246838 0.020050 -0.188810
C52   C     C_R   0.361067 0.278973 0.999924 -0.207134
C53   C     C_R   0.236621 0.688127 0.003462 0.017247
C54   C     C_R   0.834890 0.733794 0.986104 0.098626
C55   C     C_R   0.720302 0.195136 0.989514 0.018134
C56   C     C_R   0.334812 0.228144 0.013942 0.038995
C57   C     C_R   0.334814 0.686914 0.064194 0.109680
C58   C     C_R   0.738513 0.735230 0.912172 0.046362
C59   C     C_R   0.774564 0.187090 0.950468 0.115793
C60   C     C_R   0.268224 0.223799 0.034707 0.102711
C61   C     C_3   0.412628 0.673641 0.182133 -0.003865
C62   C     C_3   0.665075 0.695523 0.888386 0.034111
C63   C     C_3   0.841915 0.142791 0.972080 0.040592
C64   C     C_3   0.189951 0.184646 0.993363 0.040758
C65   C     C_3   0.909828 0.187875 0.993078 -0.127415
C66   C     C_3   0.128991 0.234025 0.975848 -0.118160
C67   C     C_3   0.452992 0.729880 0.192970 -0.104358
C68   C     C_3   0.605881 0.745064 0.873729 -0.106879
C69   C     C_R   0.917831 0.548006 0.481126 0.103181
C70   C     C_R   0.920617 0.549659 0.391666 0.105208
C71   C     C_R   0.367815 0.038885 0.446085 0.130348
C72   C     C_R   0.396085 0.039642 0.376728 0.117924
C73   C     C_R   0.895525 0.500697 0.510816 -0.071766
C74   C     C_R   0.902979 0.503488 0.328211 -0.066077
C75   C     C_R   0.383446 0.992545 0.508598 -0.071905
C76   C     C_R   0.452261 0.997414 0.381019 -0.068026
C77   C     C_R   0.850752 0.458775 0.429143 0.244711
C78   C     C_R   0.854532 0.460454 0.335836 0.259576
C79   C     C_R   0.404732 0.944647 0.474662 0.259832
C80   C     C_R   0.461269 0.949613 0.437851 0.242111
C81   C     C_3   0.002528 0.587084 0.447765 -0.480122
C82   C     C_3   0.000083 0.584735 0.546668 -0.471555
C83   C     C_3   0.416022 0.098872 0.394530 -0.492806
C84   C     C_3   0.387472 0.098000 0.471970 -0.491054
C85   C     C_R   0.971092 0.544383 0.237209 -0.161922
C86   C     C_R   0.935898 0.543031 0.688517 -0.130126
C87   C     C_R   0.500736 0.045165 0.271653 -0.151279
C88   C     C_R   0.434956 0.042334 0.687698 -0.140871
C89   C     C_R   0.730283 0.455163 0.735449 0.176507
C90   C     C_R   0.256676 0.455888 0.306158 0.161063
C91   C     C_R   0.229939 0.955070 0.732930 0.180987
C92   C     C_R   0.755261 0.956168 0.307420 0.163621
C93   C     C_R   0.983547 0.454995 0.251430 -0.163365
C94   C     C_R   0.949412 0.454375 0.694262 -0.156382
C95   C     C_R   0.502072 0.954602 0.269614 -0.167609
C96   C     C_R   0.448268 0.953710 0.695981 -0.161469
C97   C     C_R   0.730358 0.546227 0.745917 -0.181186
C98   C     C_R   0.254615 0.545491 0.305946 -0.189876
C99   C     C_R   0.229599 0.045690 0.739787 -0.177419
C100  C     C_R   0.751681 0.045567 0.307576 -0.196320
C101  C     C_R   0.853943 0.349074 0.914198 -0.157289
C102  C     C_R   0.186909 0.376164 0.087940 -0.142857
C103  C     C_R   0.349092 0.851237 0.911819 -0.181130
C104  C     C_R   0.685261 0.873095 0.085943 -0.150850
C105  C     C_R   0.938073 0.653196 0.087511 0.277413
C106  C     C_R   0.099603 0.627510 0.913246 0.294855
C107  C     C_R   0.438485 0.149788 0.094033 0.306361
C108  C     C_R   0.590137 0.132131 0.906449 0.311527
C109  C     C_R   0.879737 0.683576 0.994493 -0.004550
C110  C     C_R   0.182737 0.646316 0.006932 -0.020616
C111  C     C_R   0.373542 0.179418 0.006033 -0.036454
C112  C     C_R   0.672025 0.151537 0.995881 -0.042973
H1    H     H_    0.522742 0.419893 0.652643 0.138837
H2    H     H_    0.456505 0.427587 0.427206 0.135543
H3    H     H_    0.023457 0.918532 0.647244 0.135149
H4    H     H_    0.954079 0.929736 0.421260 0.132595
H5    H     H_    0.446723 0.588857 0.445285 0.127040
H6    H     H_    0.519432 0.581152 0.672746 0.130424
H7    H     H_    0.943471 0.090392 0.447876 0.130075
H8    H     H_    0.020928 0.079279 0.676131 0.129034
H9    H     H_    0.760116 0.327897 0.055973 0.149243
H10   H     H_    0.328014 0.364249 0.979924 0.139891
H11   H     H_    0.191921 0.808570 0.875433 0.134561
H12   H     H_    0.866986 0.858232 0.101372 0.130846
H13   H     H_    0.110343 0.734662 0.887151 0.154497
H14   H     H_    0.958375 0.781883 0.098764 0.129679
H15   H     H_    0.661055 0.254482 0.041116 0.134716
H16   H     H_    0.417075 0.282668 0.989978 0.135380
H17   H     H_    0.393837 0.667295 0.239068 0.145312
H18   H     H_    0.638334 0.671312 0.812493 0.129852
H19   H     H_    0.862526 0.117040 0.043225 0.137552
H20   H     H_    0.171323 0.162648 0.918037 0.134222
H21   H     H_    0.926149 0.188571 0.931586 0.139824
H22   H     H_    0.108063 0.235613 0.032824 0.137163
H23   H     H_    0.524974 0.728971 0.213942 0.140911
H24   H     H_    0.589774 0.748389 0.935442 0.151598
H25   H     H_    0.983952 0.627710 0.409010 0.195540
H26   H     H_    0.062748 0.563901 0.617110 0.201482
H27   H     H_    0.367445 0.122714 0.318962 0.200039
H28   H     H_    0.448536 0.107315 0.556753 0.204343
H29   H     H_    0.981661 0.339953 0.181151 0.103299
H30   H     H_    0.064526 0.367356 0.819318 0.113463
H31   H     H_    0.488369 0.838429 0.176610 0.117168
H32   H     H_    0.560675 0.868376 0.816365 0.101735
H33   H     H_    0.067022 0.568499 0.462845 0.202049
H34   H     H_    0.981125 0.624236 0.565272 0.201144
H35   H     H_    0.491469 0.108302 0.437485 0.194712
H36   H     H_    0.323053 0.122112 0.442084 0.195825
H37   H     H_    0.941043 0.583155 0.228946 0.148462
H38   H     H_    0.905456 0.582243 0.654552 0.112280
H39   H     H_    0.491648 0.085899 0.287965 0.129812
H40   H     H_    0.398299 0.079691 0.651907 0.112151
H41   H     H_    0.979011 0.413544 0.269309 0.118946
H42   H     H_    0.941804 0.412309 0.671916 0.094885
H43   H     H_    0.496332 0.912576 0.281798 0.124752
H44   H     H_    0.435193 0.911702 0.675033 0.117029
H45   H     H_    0.706713 0.587713 0.732892 0.114975
H46   H     H_    0.261849 0.584071 0.343378 0.132601
H47   H     H_    0.204262 0.085876 0.716265 0.135531
H48   H     H_    0.758394 0.085098 0.341945 0.130146
H49   H     H_    0.816764 0.330674 0.834309 0.122174
H50   H     H_    0.243859 0.366612 0.170370 0.110641
H51   H     H_    0.313513 0.833003 0.831856 0.128379
H52   H     H_    0.743531 0.863641 0.167667 0.114139
N1    N     N_R   0.892620 0.603790 0.941770 -0.072542
N2    N     N_R   0.107380 0.603790 0.058230 -0.075812
N3    N     N_R   0.392620 0.103790 0.941770 -0.070369
N4    N     N_R   0.607380 0.103790 0.058230 -0.070500
N5    N     N_R   0.952270 0.397640 0.058010 -0.037275
N6    N     N_R   0.047730 0.397640 0.941990 -0.045910
N7    N     N_R   0.452270 0.897640 0.058010 -0.043063
N8    N     N_R   0.547730 0.897640 0.941990 -0.043276
N9    N     N_R   0.026310 0.529110 0.206760 -0.040236
N10   N     N_R   0.973690 0.529110 0.793240 -0.033264
N11   N     N_R   0.526310 0.029110 0.206760 -0.036587
N12   N     N_R   0.473690 0.029110 0.793240 -0.035690
N13   N     N_R   0.818570 0.472310 0.793020 -0.054388
N14   N     N_R   0.181430 0.472310 0.206980 -0.053382
N15   N     N_R   0.318570 0.972310 0.793020 -0.054982
N16   N     N_R   0.681430 0.972310 0.206980 -0.054129
N17   N     N_R   0.026930 0.472300 0.207330 -0.046202
N18   N     N_R   0.973070 0.472300 0.792670 -0.042533
N19   N     N_R   0.526930 0.972300 0.207330 -0.043198
N20   N     N_R   0.473070 0.972300 0.792670 -0.043653
N21   N     N_R   0.817960 0.529130 0.792460 -0.050422
N22   N     N_R   0.182040 0.529130 0.207540 -0.046007
N23   N     N_R   0.317960 0.029130 0.792460 -0.051597
N24   N     N_R   0.682040 0.029130 0.207540 -0.045507
N25   N     N_R   0.894850 0.397640 0.943830 -0.038008
N26   N     N_R   0.105150 0.397640 0.056170 -0.046922
N27   N     N_R   0.394850 0.897640 0.943830 -0.036191
N28   N     N_R   0.605150 0.897640 0.056170 -0.045491
N29   N     N_R   0.950040 0.603780 0.055950 -0.072959
N30   N     N_R   0.049960 0.603780 0.944050 -0.072147
N31   N     N_R   0.450040 0.103780 0.055950 -0.069531
N32   N     N_R   0.549960 0.103780 0.944050 -0.077275
Ni1   Ni    Ni4+2 0.934160 0.565860 0.869070 0.194417
Ni2   Ni    Ni4+2 0.065840 0.565860 0.130930 0.195724
Ni3   Ni    Ni4+2 0.434160 0.065860 0.869070 0.195729
Ni4   Ni    Ni4+2 0.565840 0.065860 0.130930 0.198533
Ni5   Ni    Ni4+2 0.067260 0.435560 0.132230 0.199816
Ni6   Ni    Ni4+2 0.932740 0.435560 0.867770 0.195639
Ni7   Ni    Ni4+2 0.567260 0.935560 0.132230 0.199518
Ni8   Ni    Ni4+2 0.432740 0.935560 0.867770 0.195143
C113  C     C_3   0.818527 0.672666 0.791820 -0.435257
C114  C     C_3   0.876860 0.719544 0.795765 -0.239199
C115  C     C_3   0.844156 0.735706 0.680228 -0.945757
H53   H     H_    0.850828 0.700971 0.637322 0.257565
H54   H     H_    0.769939 0.749454 0.631577 0.267716
H55   H     H_    0.887899 0.769374 0.685600 0.250756
H56   H     H_    0.870406 0.755466 0.836267 0.201527
H57   H     H_    0.951797 0.707430 0.843952 0.197436
H58   H     H_    0.821466 0.639070 0.743869 0.197858
H59   H     H_    0.744388 0.685671 0.748419 0.168438
C116  C     C_3   0.235213 0.662341 0.205335 -0.480989
C117  C     C_3   0.172339 0.677231 0.240688 -0.227640
C118  C     C_3   0.225896 0.703321 0.354656 -0.974859
H60   H     H_    0.284201 0.676609 0.416165 0.265840
H61   H     H_    0.253470 0.743127 0.353669 0.269417
H62   H     H_    0.178290 0.709939 0.379851 0.265551
H63   H     H_    0.117443 0.705724 0.179408 0.205961
H64   H     H_    0.139945 0.639831 0.242538 0.222203
H65   H     H_    0.297193 0.638959 0.268546 0.185362
H66   H     H_    0.260088 0.700290 0.196756 0.184470
C119  C     C_3   0.285594 0.178047 0.799310 -0.439618
C120  C     C_3   0.323912 0.169804 0.731610 -0.245762
C121  C     C_3   0.252257 0.185795 0.611892 -0.955918
H67   H     H_    0.189644 0.159623 0.573766 0.264389
H68   H     H_    0.230849 0.228820 0.606319 0.273041
H69   H     H_    0.283378 0.180457 0.565606 0.256288
H70   H     H_    0.386575 0.195716 0.767901 0.202904
H71   H     H_    0.343485 0.126951 0.734180 0.209375
H72   H     H_    0.211794 0.165947 0.755818 0.169303
H73   H     H_    0.282353 0.222455 0.808828 0.192151
C122  C     C_3   0.761181 0.154606 0.203748 -0.433684
C123  C     C_3   0.727982 0.189278 0.260321 -0.232331
C124  C     C_3   0.810241 0.214718 0.366472 -0.951536
H74   H     H_    0.858202 0.182765 0.424498 0.261440
H75   H     H_    0.849584 0.241935 0.348611 0.266320
H76   H     H_    0.783746 0.238915 0.406182 0.260265
H77   H     H_    0.680445 0.221961 0.204469 0.195943
H78   H     H_    0.689521 0.163952 0.280837 0.201547
H79   H     H_    0.807694 0.120931 0.254020 0.181469
H80   H     H_    0.808531 0.180375 0.196838 0.191797
C125  C     C_3   0.474712 0.627158 0.189924 -0.983314
H81   H     H_    0.538603 0.624129 0.275665 0.256711
H82   H     H_    0.435967 0.588495 0.167646 0.258384
H83   H     H_    0.495921 0.633472 0.133840 0.257146
C126  C     C_3   0.691729 0.660561 0.986854 -0.973044
H84   H     H_    0.627761 0.641893 0.970855 0.250611
H85   H     H_    0.740063 0.627595 0.998224 0.256803
H86   H     H_    0.726062 0.685008 0.063756 0.256612
C127  C     C_3   0.807364 0.109176 0.868562 -0.984738
H87   H     H_    0.865325 0.083087 0.882763 0.255851
H88   H     H_    0.749042 0.082902 0.850137 0.260713
H89   H     H_    0.782186 0.135384 0.796264 0.253590
C128  C     C_3   0.207594 0.146543 0.083552 -1.019732
H90   H     H_    0.142953 0.123491 0.053227 0.257749
H91   H     H_    0.264430 0.117472 0.104551 0.261069
H92   H     H_    0.228047 0.169286 0.159013 0.252108
C129  C     C_3   0.999952 0.191217 0.112400 -0.393927
C130  C     C_3   0.986729 0.193518 0.205695 -0.216128
C131  C     C_3   0.079134 0.183095 0.317107 -0.972400
H93   H     H_    0.101886 0.140396 0.322213 0.269268
H94   H     H_    0.134534 0.210112 0.329813 0.273561
H95   H     H_    0.069633 0.190622 0.383362 0.260811
H96   H     H_    0.959805 0.233990 0.208023 0.198102
H97   H     H_    0.936837 0.162773 0.194584 0.182732
H98   H     H_    0.044277 0.155580 0.124652 0.203948
H99   H     H_    0.038669 0.228008 0.119606 0.180859
C132  C     C_3   0.043883 0.243458 0.855333 -0.395755
C133  C     C_3   0.065036 0.246646 0.768934 -0.226823
C134  C     C_3   0.977764 0.263214 0.657065 -0.963959
H100  H     H_    0.920592 0.233829 0.628962 0.270101
H101  H     H_    0.953774 0.304208 0.662013 0.255492
H102  H     H_    0.994067 0.263982 0.595660 0.261642
H103  H     H_    0.120774 0.276360 0.793610 0.204919
H104  H     H_    0.088384 0.206600 0.758953 0.178082
H105  H     H_    0.994131 0.209780 0.831640 0.183136
H106  H     H_    0.007226 0.280882 0.853011 0.196914
C135  C     C_3   0.443095 0.768062 0.270745 -0.395162
C136  C     C_3   0.343569 0.789620 0.227651 -0.238463
C137  C     C_3   0.327275 0.850333 0.208322 -0.934330
H107  H     H_    0.383514 0.873037 0.279365 0.269557
H108  H     H_    0.319794 0.862622 0.132953 0.277511
H109  H     H_    0.260615 0.861499 0.196640 0.245495
H110  H     H_    0.288437 0.770946 0.149285 0.215947
H111  H     H_    0.330414 0.779596 0.289479 0.187419
H112  H     H_    0.469459 0.744279 0.346196 0.158890
H113  H     H_    0.493568 0.801604 0.303753 0.179181
C138  C     C_3   0.517551 0.751366 0.754390 -0.418609
C139  C     C_3   0.537838 0.763413 0.669218 -0.211565
C140  C     C_3   0.452601 0.752553 0.552563 -0.991807
H114  H     H_    0.389206 0.771810 0.538587 0.280854
H115  H     H_    0.464338 0.769501 0.493331 0.260425
H116  H     H_    0.441583 0.708277 0.538266 0.265578
H117  H     H_    0.558573 0.806408 0.677083 0.187801
H118  H     H_    0.596207 0.738006 0.682897 0.187007
H119  H     H_    0.476483 0.713464 0.731303 0.205420
H120  H     H_    0.473046 0.784461 0.752109 0.182692
C141  C     C_3   0.796002 0.415382 0.437930 -1.000039
H121  H     H_    0.754823 0.389333 0.364220 0.264997
H122  H     H_    0.842825 0.387544 0.506107 0.243487
H123  H     H_    0.744385 0.435376 0.447343 0.245768
C142  C     C_3   0.807668 0.417656 0.246299 -1.027888
H124  H     H_    0.731698 0.416540 0.209487 0.254757
H125  H     H_    0.811850 0.426324 0.176778 0.253161
H126  H     H_    0.840039 0.377428 0.280685 0.253873
C143  C     C_3   0.373048 0.889491 0.480511 -1.069877
H127  H     H_    0.340990 0.868037 0.401102 0.272362
H128  H     H_    0.433227 0.865230 0.545417 0.274564
H129  H     H_    0.318100 0.892471 0.494362 0.255605
C144  C     C_3   0.543122 0.910569 0.483596 -1.024365
H130  H     H_    0.577490 0.905215 0.573109 0.256603
H131  H     H_    0.520125 0.870211 0.444092 0.253590
H132  H     H_    0.598226 0.926278 0.476618 0.251661
C145  C     C_3   0.697950 0.401254 0.676303 -0.473032
C146  C     C_3   0.763998 0.378796 0.649030 -0.254286
C147  C     C_3   0.729268 0.325103 0.586806 -0.934464
H133  H     H_    0.726585 0.294155 0.638091 0.261030
H134  H     H_    0.658437 0.330260 0.508836 0.268906
H135  H     H_    0.777631 0.310621 0.566569 0.254700
H136  H     H_    0.767163 0.408769 0.597656 0.207452
H137  H     H_    0.836588 0.373604 0.723269 0.195220
H138  H     H_    0.686266 0.372700 0.723514 0.186433
H139  H     H_    0.629572 0.406086 0.596203 0.207174
C148  C     C_3   0.272968 0.400962 0.359642 -0.472685
C149  C     C_3   0.183975 0.374304 0.332382 -0.239005
C150  C     C_3   0.205666 0.321240 0.394176 -0.966155
H140  H     H_    0.237857 0.291728 0.368538 0.266204
H141  H     H_    0.254074 0.328137 0.484395 0.270639
H142  H     H_    0.139663 0.304164 0.375264 0.256546
H143  H     H_    0.149159 0.401901 0.357260 0.205785
H144  H     H_    0.136754 0.365579 0.243293 0.208410
H145  H     H_    0.312282 0.373594 0.340911 0.177743
H146  H     H_    0.319373 0.406130 0.450349 0.206647
C151  C     C_3   0.196968 0.901738 0.671497 -0.470667
C152  C     C_3   0.262198 0.879833 0.643026 -0.252614
C153  C     C_3   0.228533 0.825479 0.583245 -0.948539
H147  H     H_    0.226585 0.795082 0.635937 0.264592
H148  H     H_    0.157572 0.829778 0.505093 0.267382
H149  H     H_    0.277232 0.810751 0.563801 0.256040
H150  H     H_    0.262472 0.909749 0.588756 0.197363
H151  H     H_    0.334870 0.875141 0.717514 0.197334
H152  H     H_    0.183787 0.872634 0.716536 0.179257
H153  H     H_    0.128959 0.907336 0.591227 0.206807
C154  C     C_3   0.775631 0.900142 0.357882 -0.466113
C155  C     C_3   0.689660 0.869296 0.329887 -0.250978
C156  C     C_3   0.717050 0.813505 0.383256 -0.954058
H154  H     H_    0.750823 0.789005 0.352429 0.267329
H155  H     H_    0.766040 0.817408 0.474161 0.272472
H156  H     H_    0.653725 0.792025 0.362729 0.242833
H157  H     H_    0.655414 0.892324 0.361427 0.201641
H158  H     H_    0.640298 0.863821 0.240074 0.208227
H159  H     H_    0.817103 0.875976 0.337635 0.176360
H160  H     H_    0.821797 0.904226 0.448849 0.204141
C157  C     C_3   0.977706 0.673576 0.202396 -1.111368
H161  H     H_    0.032646 0.647114 0.267984 0.253630
H162  H     H_    0.920027 0.678014 0.212256 0.262998
H163  H     H_    0.009473 0.713818 0.216799 0.262188
C158  C     C_3   0.073756 0.631814 0.799070 -1.065669
H164  H     H_    0.002532 0.649134 0.743640 0.251155
H165  H     H_    0.083751 0.591686 0.774605 0.263694
H166  H     H_    0.121739 0.657562 0.793467 0.262779
C159  C     C_3   0.503802 0.172609 0.207467 -1.073145
H167  H     H_    0.562813 0.144681 0.259866 0.241626
H168  H     H_    0.465312 0.180200 0.244574 0.257076
H169  H     H_    0.532547 0.211531 0.203603 0.256094
C160  C     C_3   0.552905 0.143742 0.789269 -1.055352
H170  H     H_    0.477255 0.150913 0.738297 0.238892
H171  H     H_    0.572223 0.110057 0.756383 0.259919
H172  H     H_    0.583635 0.181071 0.782821 0.258784
C161  C     C_3   0.372556 0.496835 0.627808 -1.049005
H173  H     H_    0.417508 0.495371 0.719019 0.258522
H174  H     H_    0.325831 0.532854 0.600167 0.254306
H175  H     H_    0.329344 0.459780 0.594664 0.251801
C162  C     C_3   0.593202 0.513773 0.463562 -1.042454
H176  H     H_    0.545341 0.516914 0.372613 0.259609
H177  H     H_    0.636818 0.550681 0.497611 0.253809
H178  H     H_    0.639219 0.477880 0.485862 0.250792
C163  C     C_3   0.875812 0.993629 0.631614 -1.041405
H179  H     H_    0.922425 0.990742 0.722648 0.257189
H180  H     H_    0.829394 0.029593 0.607601 0.256400
H181  H     H_    0.832324 0.956712 0.597063 0.251277
C164  C     C_3   0.088405 0.016892 0.457904 -1.044457
H182  H     H_    0.039338 0.020751 0.367185 0.255324
H183  H     H_    0.131576 0.053955 0.492396 0.255645
H184  H     H_    0.134819 0.981335 0.478045 0.254674

loop_
_geom_bond_atom_site_label_1
_geom_bond_atom_site_label_2
_ccdc_geom_bond_type
C145  H139  S    
C63   C65   S    
C157  H161  S    
N20   Ni8   S    
C22   C29   S    
C55   C59   A    
C19   C20   S    
C99   N23   A    
C151  C152  S    
C141  H121  S    
C97   N21   A    
C136  C137  S    
C146  H136  S    
C100  N24   A    
C96   N20   A    
C101  N25   A    
C11   C76   S    
N30   Ni1   S    
C10   C94   A    
C132  C133  S    
C104  N28   A    
C47   H31   S    
C134  H102  S    
C48   H32   S    
C131  H94   S    
C14   C90   A    
C162  H178  S    
C92   N16   A    
C93   N17   A    
C138  C139  S    
C133  C134  S    
C70   C74   A    
C115  H55   S    
C125  H83   S    
C160  H172  S    
C132  H105  S    
C33   C59   A    
C125  H81   S    
C34   C60   A    
C139  H117  S    
C18   C25   S    
C83   H27   S    
C148  H146  S    
C25   C29   S    
C158  H166  S    
C5    C101  A    
C27   C31   S    
C28   C32   S    
C161  H175  S    
C114  C115  S    
C17   C21   S    
C4    N4    A    
C86   N10   A    
C64   C66   S    
C19   C23   S    
C116  C117  S    
N2    Ni2   S    
C149  H143  S    
C121  H67   S    
C36   C40   A    
C8    C104  A    
C122  H79   S    
C113  H59   S    
C157  H163  S    
C163  H179  S    
N12   Ni3   S    
N11   N19   A    
C141  H123  S    
C44   C50   A    
N12   N20   A    
C133  H104  S    
N3    N31   A    
N17   Ni5   S    
C104  H52   S    
C47   N7    A    
C36   C68   S    
C57   C61   S    
C59   C63   S    
C62   C68   S    
C60   C64   S    
C93   H41   S    
C51   H15   S    
C82   H26   S    
C159  H167  S    
C107  C159  S    
C95   N19   A    
C96   H44   S    
C49   C53   A    
C155  C156  S    
C51   C55   A    
C6    C102  A    
C13   C97   A    
C69   C70   A    
N6    Ni6   S    
C15   C91   A    
N14   N22   A    
C114  H57   S    
C12   C75   S    
C7    C39   S    
C4    C122  S    
C8    C40   S    
N21   Ni1   S    
C75   C79   A    
C41   C51   A    
C42   C52   A    
C164  H183  S    
C147  H134  S    
C156  H154  S    
C99   H47   S    
C62   H18   S    
N5    N25   A    
C67   C135  S    
N16   Ni7   S    
N10   N18   A    
C3    N3    A    
C144  H130  S    
C155  H158  S    
C106  N30   A    
N8    N28   A    
C126  H84   S    
C29   C30   S    
C119  H73   S    
N22   Ni2   S    
C86   H38   S    
C129  C130  S    
C120  H71   S    
C144  H131  S    
N24   Ni4   S    
C152  H150  S    
C123  C124  S    
C22   C162  S    
C128  H90   S    
C69   C82   S    
C9    C85   A    
C66   H22   S    
C31   C32   S    
C11   C87   A    
C142  H125  S    
C163  H181  S    
C76   C80   A    
C6    C38   S    
C19   H3    S    
C154  H160  S    
C129  H98   S    
C61   H17   S    
C16   C27   S    
C136  H110  S    
C7    C103  A    
C124  H74   S    
C137  H109  S    
C150  H141  S    
N32   Ni3   S    
C14   C98   A    
C143  H128  S    
C12   C88   A    
C64   H20   S    
C159  H169  S    
C116  H65   S    
C130  H96   S    
C16   C100  A    
C30   H6    S    
C118  H60   S    
C46   N6    A    
C123  H77   S    
C140  H114  S    
C19   C28   S    
C61   C67   S    
C83   C84   S    
C35   C67   S    
C17   C18   S    
C129  H99   S    
C138  H120  S    
C151  H153  S    
C121  H68   S    
C26   C30   S    
C156  H156  S    
C22   C26   S    
C13   C26   S    
C68   C138  S    
C103  N27   A    
C9    C74   S    
C43   H11   S    
C64   C128  S    
C145  H138  S    
C21   C25   S    
C10   C86   A    
C126  H86   S    
C73   C77   A    
C18   C22   S    
C107  C111  A    
C24   C164  S    
C65   C129  S    
C79   C143  S    
C149  C150  S    
C105  C157  S    
C127  H89   S    
C130  C131  S    
N25   Ni6   S    
C78   C142  S    
C87   N11   A    
C88   N12   A    
C146  H137  S    
C23   C163  S    
C128  H92   S    
C71   C72   A    
C134  H101  S    
C37   C41   A    
C162  H177  S    
C113  H58   S    
C40   C44   A    
C153  H149  S    
C120  C121  S    
C124  H76   S    
C137  H107  S    
C115  H54   S    
N3    Ni3   S    
C160  H171  S    
C58   C62   S    
C90   N14   A    
C139  H118  S    
C116  H66   S    
C148  H145  S    
C52   H16   S    
C131  H93   S    
C46   H30   S    
C77   C78   A    
C118  H62   S    
C81   H25   S    
C158  H165  S    
C50   C54   A    
C160  H170  S    
C140  H116  S    
C161  H174  S    
C106  C110  A    
C10   C73   S    
N15   N23   A    
C5    C37   S    
N29   Ni2   S    
N13   N21   A    
N8    Ni8   S    
C89   C145  S    
C117  H63   S    
C149  H144  S    
C66   C132  S    
N16   N24   A    
C1    C109  A    
C53   C110  S    
C98   H46   S    
C3    C111  A    
N10   Ni1   S    
C122  C123  S    
C77   C141  S    
C69   C73   A    
C63   H19   S    
C108  N32   A    
C2    N2    A    
C56   C111  S    
C135  H113  S    
C84   H36   S    
N9    N17   A    
C2    C116  S    
C157  H162  S    
C45   H29   S    
C34   C66   S    
C82   H34   S    
C141  H122  S    
C17   H1    S    
C115  H53   S    
C24   C28   S    
C154  C155  S    
C53   C57   A    
C143  H127  S    
C5    C45   A    
C44   H12   S    
C33   C37   A    
C108  C112  A    
C45   N5    A    
C7    C47   A    
C71   C84   S    
C67   H23   S    
C80   C144  S    
C8    C48   A    
N1    Ni1   S    
C153  H147  S    
C102  H50   S    
N7    N27   A    
C31   H7    S    
C132  H106  S    
C16   C92   A    
C89   N13   A    
C125  H82   S    
N27   Ni8   S    
C164  H182  S    
C2    C110  A    
C21   C161  S    
N4    Ni4   S    
N18   Ni6   S    
C20   C27   S    
C49   H13   S    
C21   C30   S    
C35   C57   A    
C119  H72   S    
C23   C32   S    
C24   C31   S    
C148  C149  S    
C98   N22   A    
C15   C28   S    
C127  H87   S    
C105  C109  A    
C152  H151  S    
C102  N26   A    
N28   Ni7   S    
C14   C25   S    
N7    Ni7   S    
C122  H80   S    
C72   C83   S    
N5    Ni5   S    
C147  H133  S    
C56   C60   A    
C142  H124  S    
C74   C78   A    
N23   Ni3   S    
C163  H180  S    
C12   C96   A    
C94   N18   A    
C154  H159  S    
C108  C160  S    
C131  H95   S    
C136  H111  S    
C133  H103  S    
C55   C112  S    
C137  H108  S    
C150  H140  S    
C35   C39   A    
C72   C76   A    
C18   H2    S    
C107  N31   A    
C81   C82   S    
C33   C65   S    
C113  C114  S    
C105  N29   A    
C17   C26   S    
C139  C140  S    
C38   C42   A    
C36   C58   A    
C159  H168  S    
C130  H97   S    
C61   C125  S    
C120  H70   S    
C41   H9    S    
C70   C81   S    
C90   C148  S    
C48   N8    A    
C114  H56   S    
C62   C126  S    
C20   C24   S    
C91   N15   A    
C85   N9    A    
C50   H14   S    
C106  C158  S    
C23   C27   S    
C1    C113  S    
C3    C119  S    
C164  H184  S    
C151  H152  S    
C4    C112  A    
C147  H135  S    
C156  H155  S    
C87   H39   S    
C88   H40   S    
C32   H8    S    
C155  H157  S    
C85   H37   S    
C126  H85   S    
C68   H24   S    
C117  C118  S    
C20   H4    S    
C43   C49   A    
C144  H132  S    
C39   C43   A    
C135  C136  S    
C29   H5    S    
C54   C109  S    
C128  H91   S    
C97   H45   S    
C146  C147  S    
C100  H48   S    
C127  H88   S    
C1    N1    A    
C94   H42   S    
C142  H126  S    
C119  C120  S    
C162  H176  S    
C83   H35   S    
C153  H148  S    
C81   H33   S    
C124  H75   S    
C150  H142  S    
N14   Ni5   S    
N2    N30   A    
C9    C93   A    
C138  H119  S    
C42   H10   S    
N31   Ni4   S    
C54   C58   A    
C143  H129  S    
C11   C95   A    
C6    C46   A    
C13   C89   A    
N9    Ni2   S    
C34   C38   A    
C15   C99   A    
N1    N29   A    
C92   C154  S    
N26   Ni5   S    
C118  H61   S    
C158  H164  S    
N6    N26   A    
C103  H51   S    
C91   C151  S    
N19   Ni7   S    
C101  H49   S    
C140  H115  S    
C161  H173  S    
C71   C75   A    
C63   C127  S    
C95   H43   S    
C145  C146  S    
C117  H64   S    
N11   Ni4   S    
C123  H78   S    
C79   C80   A    
C121  H69   S    
N15   Ni8   S    
C84   H28   S    
C152  C153  S    
N4    N32   A    
N13   Ni6   S    
C65   H21   S    
C52   C56   A    
C135  H112  S    
C134  H100  S    
