data_mof_unit_23232.cif
_audit_creation_date              2012-12-10T16:54:53-0500
_audit_creation_method            fapswitch 2.2
_symmetry_space_group_name_H-M    P1
_symmetry_Int_Tables_number       1
_space_group_crystal_system       triclinic
_cell_length_a                    8.006431
_cell_length_b                    8.58614
_cell_length_c                    15.713185
_cell_angle_alpha                 96.939089
_cell_angle_beta                  83.210284
_cell_angle_gamma                 92.699317
_cell_volume                      1064.17002337

loop_
_atom_site_label
_atom_site_type_symbol
_atom_type_description
_atom_site_fract_x
_atom_site_fract_y
_atom_site_fract_z
_atom_type_partial_charge
C1    C     C_R   0.543945 0.793584 0.497729 0.888356
C2    C     C_2   0.432547 0.043376 0.503262 -0.375238
C3    C     C_R   0.497366 0.499426 0.661286 0.839004
C4    C     C_R   0.455974 0.206338 0.501744 0.948087
C5    C     C_R   0.502235 0.498889 0.338583 0.895369
C6    C     C_3   0.333229 0.571064 0.967381 -0.405780
C7    C     C_3   0.649768 0.601227 0.946582 -0.396001
C8    C     C_3   0.654855 0.600682 0.044499 -0.399686
C9    C     C_1   0.507099 0.499457 0.249173 -0.142971
C10   C     C_3   0.496108 0.501128 0.917445 0.368175
C11   C     C_R   0.004755 0.653909 0.604103 0.171884
C12   C     C_3   0.338187 0.571007 0.065313 -0.385722
C13   C     C_R   0.132593 0.725980 0.653621 -0.095342
C14   C     C_R   0.105988 0.793661 0.739624 -0.197943
C15   C     C_R   0.944761 0.815154 0.778977 -0.108265
C16   C     C_R   0.815084 0.782759 0.728767 -0.191785
C17   C     C_R   0.847487 0.714139 0.642912 -0.125220
C18   C     C_3   0.504305 0.500729 0.082244 0.357156
C19   C     C_3   0.515002 0.330785 0.036482 -0.398270
C20   C     C_3   0.510335 0.331036 0.938578 -0.399891
C21   C     C_1   0.507719 0.500198 0.173665 -0.114142
C22   C     C_1   0.492322 0.500901 0.826128 -0.128520
C23   C     C_1   0.492498 0.500168 0.750636 -0.149815
C24   C     C_2   0.567278 0.956602 0.496782 -0.359817
F1    F     F_    0.028428 0.362882 0.412844 -0.543319
H1    H     H_    0.327859 0.693291 0.097891 0.171169
H2    H     H_    0.649983 0.723320 0.076924 0.169576
H3    H     H_    0.775653 0.552136 0.056040 0.169996
H4    H     H_    0.401251 0.256880 0.917783 0.164134
H5    H     H_    0.626632 0.278434 0.902930 0.167779
H6    H     H_    0.407990 0.256718 0.062940 0.170878
H7    H     H_    0.258001 0.743438 0.630163 0.190863
H8    H     H_    0.211696 0.835941 0.774166 0.124530
H9    H     H_    0.921700 0.869587 0.844913 0.122439
H10   H     H_    0.688960 0.816769 0.755071 0.120493
H11   H     H_    0.741912 0.723525 0.614098 0.187347
H12   H     H_    0.221063 0.500996 0.947154 0.169079
H13   H     H_    0.228137 0.501179 0.092364 0.175753
H14   H     H_    0.633406 0.277862 0.048065 0.167720
H15   H     H_    0.695697 0.004764 0.490548 0.201550
H16   H     H_    0.304128 0.995181 0.509648 0.192795
H17   H     H_    0.320366 0.693307 0.952689 0.162785
H18   H     H_    0.768423 0.553551 0.910871 0.176427
H19   H     H_    0.641954 0.724104 0.931808 0.160014
N1    N     N_2   0.950340 0.457950 0.477370 0.208742
N2    N     N_2   0.049660 0.542050 0.522630 -0.041862
O1    O     O_R   0.389240 0.738570 0.505550 -0.654474
O2    O     O_R   0.678400 0.711630 0.491050 -0.659040
O3    O     O_R   0.355360 0.513470 0.630110 -0.648992
O4    O     O_R   0.644510 0.486530 0.615610 -0.641893
O5    O     O_R   0.321600 0.288370 0.508950 -0.575557
O6    O     O_R   0.610760 0.261430 0.494450 -0.598227
O7    O     O_R   0.355490 0.513470 0.384390 -0.551898
O8    O     O_R   0.644640 0.486530 0.369890 -0.589767
Zn1   Zn    Zn3+2 0.306930 0.517990 0.509680 1.011626
Zn2   Zn    Zn3+2 0.693070 0.482010 0.490320 1.025709

loop_
_geom_bond_atom_site_label_1
_geom_bond_atom_site_label_2
_ccdc_geom_bond_type
N2    Zn1   S    
C6    C10   S    
C7    C10   S    
C2    C4    S    
C1    O2    A    
C5    C9    S    
C17   H11   S    
C7    H18   S    
C18   C21   S    
O4    Zn2   S    
C15   H9    S    
C3    C23   S    
C19   C20   S    
C19   H6    S    
C14   H8    S    
C3    O3    A    
C6    H12   S    
C7    C8    S    
C20   H5    S    
C7    H19   S    
C10   C22   S    
C6    C12   S    
C11   C13   A    
C9    C21   T    
C19   H14   S    
C4    O6    A    
C5    O7    A    
C24   H15   S    
C3    O4    A    
O5    Zn1   S    
C20   H4    S    
O7    Zn1   S    
C16   H10   S    
C2    C24   D    
C8    H3    S    
O8    Zn2   S    
C12   H1    S    
C2    H16   S    
C15   C16   A    
C12   H13   S    
F1    N1    S    
C5    O8    A    
C1    C24   S    
O1    Zn1   S    
C18   C19   S    
C6    H17   S    
C12   C18   S    
O2    Zn2   S    
C8    H2    S    
C14   C15   A    
C1    O1    A    
C11   N2    S    
C4    O5    A    
C13   C14   A    
N1    N2    D    
C13   H7    S    
C22   C23   T    
C8    C18   S    
O6    Zn2   S    
N1    Zn2   S    
C10   C20   S    
C16   C17   A    
O3    Zn1   S    
C11   C17   A    
