data_mof_unit_18962.cif
_audit_creation_date              2012-12-10T18:51:34-0500
_audit_creation_method            fapswitch 2.2
_symmetry_space_group_name_H-M    P1
_symmetry_Int_Tables_number       1
_space_group_crystal_system       triclinic
_cell_length_a                    10.800401
_cell_length_b                    9.827973
_cell_length_c                    10.49273
_cell_angle_alpha                 89.679987
_cell_angle_beta                  89.999674
_cell_angle_gamma                 89.911537
_cell_volume                      1113.74313754

loop_
_atom_site_label
_atom_site_type_symbol
_atom_type_description
_atom_site_fract_x
_atom_site_fract_y
_atom_site_fract_z
_atom_type_partial_charge
C1    C     C_R   0.871869 0.499983 0.499285 -0.425439
C2    C     C_3   0.398655 0.435536 0.042708 -0.163848
C3    C     C_3   0.398219 0.563863 0.957166 -0.160789
C4    C     C_3   0.602538 0.436145 0.042845 -0.128084
C5    C     C_3   0.500436 0.498499 0.877740 0.014235
C6    C     C_3   0.500278 0.501495 0.122253 0.014108
C7    C     C_R   0.522151 0.071219 0.609604 0.032303
C8    C     C_R   0.477925 0.928765 0.390388 0.025567
C9    C     C_R   0.478110 0.072526 0.390358 -0.002844
C10   C     C_R   0.522474 0.927441 0.609540 -0.028422
C11   C     C_R   0.060347 0.375404 0.502530 0.302577
C12   C     C_R   0.126125 0.500438 0.498873 -0.424785
C13   C     C_R   0.936223 0.618142 0.461307 0.307907
C14   C     C_R   0.937090 0.381989 0.536448 0.311286
C15   C     C_R   0.059721 0.625417 0.494607 0.299125
C16   C     C_R   0.259381 0.500149 0.499636 1.005637
C17   C     C_R   0.739883 0.499940 0.499918 1.053549
C18   C     C_R   0.499990 0.500471 0.257176 0.899451
C19   C     C_R   0.500178 0.499527 0.742821 0.898163
C20   C     C_3   0.499868 0.629985 0.039412 -0.163828
C21   C     C_3   0.500903 0.370010 0.960577 -0.162662
C22   C     C_3   0.602101 0.564447 0.957259 -0.132021
H1    H     H_    0.540342 0.124739 0.697303 0.117616
H2    H     H_    0.316014 0.383321 0.082453 0.184397
H3    H     H_    0.223692 0.152352 0.280475 0.374764
H4    H     H_    0.734447 0.745695 0.207340 0.369291
H5    H     H_    0.742455 0.250730 0.794880 0.364990
H6    H     H_    0.248706 0.852285 0.690626 0.379165
H7    H     H_    0.459794 0.875239 0.302671 0.119509
H8    H     H_    0.460552 0.127026 0.302474 0.127509
H9    H     H_    0.540857 0.872902 0.697250 0.130558
H10   H     H_    0.315235 0.615599 0.917294 0.185421
H11   H     H_    0.685594 0.384504 0.082656 0.173565
H12   H     H_    0.499524 0.735925 0.075637 0.146719
H13   H     H_    0.501428 0.264072 0.924348 0.147288
H14   H     H_    0.684794 0.616580 0.917531 0.171916
N1    N     N_R   0.500000 0.857200 0.500000 -0.073913
N2    N     N_R   0.500000 0.142800 0.500000 -0.071729
O1    O     O_R   0.316770 0.614620 0.499990 -0.558745
O2    O     O_2   0.013263 0.125627 0.406845 -0.161369
O3    O     O_3   0.207420 0.243997 0.315508 -0.581976
O4    O     O_2   0.803132 0.849175 0.431651 -0.216625
O5    O     O_2   0.974407 0.812791 0.282613 -0.217548
O6    O     O_3   0.775645 0.669535 0.252788 -0.589385
O7    O     O_2   0.806674 0.149732 0.564579 -0.217597
O8    O     O_2   0.977917 0.186522 0.713349 -0.219627
O9    O     O_3   0.777495 0.327402 0.744972 -0.592722
O10   O     O_2   0.191654 0.851399 0.442682 -0.246760
O11   O     O_2   0.013340 0.878283 0.584549 -0.148648
O12   O     O_R   0.683230 0.385380 0.500010 -0.566190
O13   O     O_3   0.208648 0.762981 0.676768 -0.566570
O14   O     O_R   0.683230 0.614620 0.500010 -0.568184
O15   O     O_R   0.316770 0.385380 0.499990 -0.552358
O16   O     O_R   0.499970 0.614650 0.313950 -0.634533
O17   O     O_R   0.500030 0.385350 0.686050 -0.632817
O18   O     O_R   0.500030 0.614650 0.686050 -0.641261
O19   O     O_R   0.499970 0.385350 0.313950 -0.636847
O20   O     O_2   0.193541 0.147455 0.546852 -0.230240
S1    S     S_3+6 0.118416 0.216810 0.444788 0.129467
S2    S     S_3+6 0.872724 0.744077 0.356470 0.104647
S3    S     S_3+6 0.875151 0.254794 0.640462 0.099818
S4    S     S_3+6 0.118052 0.785632 0.547801 0.133772
Zn1   Zn    Zn3+2 0.500000 0.653120 0.500000 1.042608
Zn2   Zn    Zn3+2 0.500000 0.346880 0.500000 1.051436

loop_
_geom_bond_atom_site_label_1
_geom_bond_atom_site_label_2
_ccdc_geom_bond_type
C19   O18   A    
O9    S3    S    
C7    C10   A    
C11   C12   A    
C5    C19   S    
C17   O12   A    
C1    C14   A    
O12   Zn2   S    
C18   O19   A    
O10   S4    D    
C22   H14   S    
C12   C15   A    
C20   H12   S    
O17   Zn2   S    
O7    S3    D    
C2    C21   S    
C2    C3    S    
O18   Zn1   S    
H4    O6    S    
C3    C20   S    
O2    S1    D    
C4    C21   S    
C2    C6    S    
O13   S4    S    
C6    C20   S    
O6    S2    S    
C10   N1    A    
C7    H1    S    
C8    H7    S    
O5    S2    D    
C17   O14   A    
H5    O9    S    
C9    N2    A    
N1    Zn1   S    
C7    N2    A    
C20   C22   S    
C10   H9    S    
N2    Zn2   S    
O1    Zn1   S    
C13   C15   A    
C2    H2    S    
C3    H10   S    
C6    C18   S    
H6    O13   S    
C11   S1    S    
C21   H13   S    
C1    C13   A    
C8    N1    A    
C18   O16   A    
C16   O1    A    
H3    O3    S    
O4    S2    D    
C5    C21   S    
O3    S1    S    
C9    H8    S    
C4    C6    S    
O16   Zn1   S    
C19   O17   A    
C11   C14   A    
C13   S2    S    
C4    C22   S    
C4    H11   S    
C8    C9    A    
O11   S4    D    
O8    S3    D    
O20   S1    D    
C16   O15   A    
C14   S3    S    
C1    C17   S    
O15   Zn2   S    
C15   S4    S    
C5    C22   S    
C12   C16   S    
O19   Zn2   S    
C3    C5    S    
O14   Zn1   S    
