data_mof_unit_6953.cif
_audit_creation_date              2012-12-11T15:06:39-0500
_audit_creation_method            fapswitch 2.2
_symmetry_space_group_name_H-M    P1
_symmetry_Int_Tables_number       1
_space_group_crystal_system       triclinic
_cell_length_a                    7.229719
_cell_length_b                    15.243122
_cell_length_c                    22.506342
_cell_angle_alpha                 89.999658
_cell_angle_beta                  90.00025
_cell_angle_gamma                 90.001057
_cell_volume                      2480.27740675

loop_
_atom_site_label
_atom_site_type_symbol
_atom_type_description
_atom_site_fract_x
_atom_site_fract_y
_atom_site_fract_z
_atom_type_partial_charge
O1    O     O_R   0.390810 0.844810 0.447340 -0.537508
O2    O     O_R   0.109190 0.155190 0.947340 -0.537494
O3    O     O_R   0.890810 0.655190 0.552660 -0.537488
O4    O     O_R   0.609190 0.344810 0.052660 -0.537477
O5    O     O_R   0.720550 0.655820 0.440420 -0.536545
O6    O     O_R   0.779450 0.344180 0.940420 -0.536555
O7    O     O_R   0.220550 0.844180 0.559580 -0.536555
O8    O     O_R   0.279450 0.155820 0.059580 -0.536563
C1    C     C_R   0.553391 0.625010 0.427996 0.662347
C2    C     C_R   0.946608 0.374993 0.927998 0.662365
C3    C     C_R   0.053395 0.874994 0.572002 0.662359
C4    C     C_R   0.446604 0.125003 0.071999 0.662374
O9    O     O_R   0.720530 0.844130 0.440420 -0.534281
O10   O     O_R   0.779470 0.155870 0.940420 -0.534291
O11   O     O_R   0.220530 0.655870 0.559580 -0.534287
O12   O     O_R   0.279470 0.344130 0.059580 -0.534295
O13   O     O_R   0.890830 0.844810 0.552660 -0.533665
O14   O     O_R   0.609170 0.155190 0.052660 -0.533657
O15   O     O_R   0.390830 0.655190 0.447340 -0.533678
O16   O     O_R   0.109170 0.344810 0.947340 -0.533669
C5    C     C_R   0.552260 0.871208 0.424791 0.640827
C6    C     C_R   0.947739 0.128791 0.924791 0.640843
C7    C     C_R   0.052259 0.628790 0.575208 0.640859
C8    C     C_R   0.447742 0.371211 0.075207 0.640869
O17   O     O_3   0.557310 0.749980 0.536820 -0.354978
O18   O     O_3   0.942690 0.250020 0.036820 -0.354980
O19   O     O_3   0.057310 0.750020 0.463180 -0.354984
O20   O     O_3   0.442690 0.249980 0.963180 -0.354986
V1    V     V_3+5 0.832160 0.749980 0.493170 1.521956
V2    V     V_3+5 0.667840 0.250020 0.993170 1.521955
V3    V     V_3+5 0.332160 0.750020 0.506830 1.521918
V4    V     V_3+5 0.167840 0.249980 0.006830 1.521920
C9    C     C_R   0.804755 0.588963 0.860834 -0.154427
C10   C     C_R   0.695117 0.411013 0.360844 -0.154411
C11   C     C_R   0.304627 0.911057 0.139173 -0.154442
C12   C     C_R   0.195275 0.088960 0.639167 -0.154429
H1    H     H_    0.780795 0.529306 0.946443 0.109471
H2    H     H_    0.719062 0.470665 0.446455 0.109465
H3    H     H_    0.280658 0.970715 0.053566 0.109475
H4    H     H_    0.219243 0.029303 0.553560 0.109472
H5    H     H_    0.747030 0.702421 0.776385 0.139859
H6    H     H_    0.752812 0.297546 0.276400 0.139826
H7    H     H_    0.246855 0.797611 0.223627 0.139898
H8    H     H_    0.253005 0.202417 0.723616 0.139867
H9    H     H_    0.723706 0.645412 0.874293 0.109498
H10   H     H_    0.776100 0.354546 0.374310 0.109495
H11   H     H_    0.223514 0.854623 0.125721 0.109500
H12   H     H_    0.276337 0.145407 0.625710 0.109499
C13   C     C_R   0.944376 0.450167 0.886755 -0.033398
C14   C     C_R   0.555610 0.549839 0.386751 -0.033372
C15   C     C_R   0.444359 0.049827 0.113241 -0.033422
C16   C     C_R   0.055633 0.950167 0.613246 -0.033401
C17   C     C_R   0.136304 0.480075 0.603356 -0.139421
C18   C     C_R   0.363758 0.519939 0.103344 -0.139447
C19   C     C_R   0.636376 0.019911 0.396633 -0.139397
C20   C     C_R   0.863670 0.980079 0.896642 -0.139420
C21   C     C_R   0.162668 0.411746 0.642955 -0.122923
C22   C     C_R   0.337429 0.588276 0.142938 -0.122917
C23   C     C_R   0.662774 0.088231 0.357029 -0.122928
C24   C     C_R   0.837295 0.911753 0.857042 -0.122924
C25   C     C_R   0.109150 0.420113 0.701846 -0.134619
C26   C     C_R   0.390929 0.579909 0.201831 -0.134600
C27   C     C_R   0.609233 0.079865 0.298141 -0.134635
C28   C     C_R   0.890818 0.920119 0.798152 -0.134625
C29   C     C_R   0.024149 0.497565 0.723124 0.079868
C30   C     C_R   0.475876 0.502447 0.223116 0.079861
C31   C     C_R   0.524170 0.002424 0.276870 0.079878
C32   C     C_R   0.975840 0.997568 0.776875 0.079869
C33   C     C_R   0.986956 0.567430 0.681597 -0.002358
C34   C     C_R   0.513032 0.432573 0.181595 -0.002349
C35   C     C_R   0.486939 0.932568 0.318401 -0.002367
C36   C     C_R   0.013042 0.067432 0.818402 -0.002359
C37   C     C_R   0.971593 0.506310 0.784395 0.069565
C38   C     C_R   0.528405 0.493698 0.284390 0.069564
C39   C     C_R   0.471586 0.993682 0.215601 0.069566
C40   C     C_R   0.028406 0.006311 0.715604 0.069565
C41   C     C_R   0.867523 0.580322 0.802156 0.115837
C42   C     C_R   0.632396 0.419665 0.302160 0.115837
C43   C     C_R   0.367438 0.919688 0.197848 0.115835
C44   C     C_R   0.132494 0.080321 0.697845 0.115835
C45   C     C_R   0.825104 0.645605 0.761548 -0.203941
C46   C     C_R   0.674787 0.354374 0.261557 -0.203936
C47   C     C_R   0.324984 0.854415 0.238459 -0.203944
C48   C     C_R   0.174919 0.145603 0.738453 -0.203942
C49   C     C_R   0.886312 0.641615 0.702870 -0.054988
C50   C     C_R   0.613618 0.358374 0.202875 -0.054954
C51   C     C_R   0.386230 0.858396 0.297134 -0.055035
C52   C     C_R   0.113700 0.141615 0.797130 -0.054993
C53   C     C_R   0.016168 0.443508 0.828866 -0.214704
C54   C     C_R   0.483876 0.556514 0.328855 -0.214631
C55   C     C_R   0.516202 0.056472 0.171125 -0.214759
C56   C     C_R   0.983827 0.943511 0.671133 -0.214711
C57   C     C_R   0.839296 0.523532 0.902275 -0.152979
C58   C     C_R   0.660605 0.476452 0.402282 -0.153007
C59   C     C_R   0.339200 0.976480 0.097729 -0.152955
C60   C     C_R   0.160731 0.023530 0.597726 -0.152976
C61   C     C_R   0.050142 0.558162 0.620925 -0.080474
C62   C     C_R   0.449868 0.441842 0.120920 -0.080463
C63   C     C_R   0.550154 0.941833 0.379071 -0.080482
C64   C     C_R   0.949849 0.058164 0.879074 -0.080472
H13   H     H_    0.102743 0.388472 0.819400 0.131577
H14   H     H_    0.397381 0.611573 0.319381 0.131493
H15   H     H_    0.602846 0.111492 0.180583 0.131649
H16   H     H_    0.897238 0.888476 0.680597 0.131587
H17   H     H_    0.185127 0.472048 0.558120 0.106354
H18   H     H_    0.314954 0.527966 0.058106 0.106348
H19   H     H_    0.685221 0.027935 0.441867 0.106354
H20   H     H_    0.814842 0.972053 0.941878 0.106349
H21   H     H_    0.132878 0.363501 0.729392 0.111259
H22   H     H_    0.367225 0.636528 0.229372 0.111244
H23   H     H_    0.632988 0.136471 0.270592 0.111269
H24   H     H_    0.867075 0.863510 0.770606 0.111263
H25   H     H_    0.227638 0.351673 0.627962 0.113266
H26   H     H_    0.272500 0.648357 0.127940 0.113268
H27   H     H_    0.727793 0.148297 0.372017 0.113261
H28   H     H_    0.772309 0.851682 0.872035 0.113266
C65   C     C_2   0.844308 0.718934 0.666955 0.404670
H29   H     H_    0.955632 0.751523 0.644292 -0.000377
O21   O     O_2   0.687468 0.748542 0.664621 -0.524782
C66   C     C_2   0.655606 0.281053 0.166961 0.404635
H30   H     H_    0.544271 0.248463 0.144303 -0.000388
O22   O     O_2   0.812448 0.251448 0.164620 -0.524782
C67   C     C_2   0.344198 0.781081 0.333051 0.404717
H31   H     H_    0.455503 0.748496 0.355725 -0.000363
O23   O     O_2   0.187357 0.751467 0.335374 -0.524775
C68   C     C_2   0.155708 0.218934 0.833044 0.404675
H32   H     H_    0.044388 0.251521 0.855708 -0.000375
O24   O     O_2   0.312547 0.248546 0.835377 -0.524782

loop_
_geom_bond_atom_site_label_1
_geom_bond_atom_site_label_2
_ccdc_geom_bond_type
O17   V3    S    
C47   C51   A    
C22   C26   A    
C68   H32   S    
C19   C23   A    
O19   V1    S    
C9    H9    S    
O1    C5    A    
O3    C7    A    
H6    C46   S    
C44   C48   A    
C25   H21   S    
C36   C64   A    
C29   C37   A    
C67   H31   S    
O7    C3    A    
C51   C67   S    
C8    C62   S    
C28   C32   A    
O9    V1    S    
O10   V2    S    
C65   O21   D    
C18   C22   A    
O4    C8    A    
C29   C33   A    
C67   O23   D    
C30   C38   A    
H7    C47   S    
O1    V3    S    
O13   V1    S    
O2    V4    S    
C1    O15   A    
O3    V1    S    
C12   C60   A    
C20   H20   S    
C52   C68   S    
C3    C16   S    
C15   C55   A    
C14   C54   A    
C54   H14   S    
C2    O16   A    
O2    C6    A    
C16   C60   A    
O14   V2    S    
O8    C4    A    
C53   H13   S    
O11   C7    A    
O15   V3    S    
O12   C8    A    
H4    C60   S    
C36   C52   A    
C66   O22   D    
O5    V1    S    
C27   C31   A    
C6    C64   S    
C18   H18   S    
H1    C57   S    
O8    V4    S    
C40   C44   A    
C26   C30   A    
O7    V3    S    
C12   C44   A    
C13   C53   A    
C17   C21   A    
O18   V4    S    
C14   C58   A    
C21   H25   S    
C17   C61   A    
C46   C50   A    
C35   C63   A    
O11   V3    S    
C20   C24   A    
C19   H19   S    
O5    C1    A    
C25   C29   A    
C42   C46   A    
C26   H22   S    
C41   C45   A    
C32   C36   A    
H5    C45   S    
H2    C58   S    
O9    C5    A    
C49   C65   S    
H3    C59   S    
C40   C56   A    
C10   H10   S    
C7    C61   S    
C10   C58   A    
C11   C59   A    
C35   C51   A    
C16   C56   A    
C32   C40   A    
C20   C64   A    
C19   C63   A    
C34   C50   A    
C4    C15   S    
C33   C49   A    
C66   H30   S    
O16   V4    S    
C3    O13   A    
C68   O24   D    
O6    V2    S    
C1    C14   S    
C48   C52   A    
C55   H15   S    
H8    C48   S    
C9    C57   A    
O6    C2    A    
C21   C25   A    
C39   C55   A    
O12   V4    S    
C23   C27   A    
C24   C28   A    
O10   C6    A    
O20   V2    S    
C37   C53   A    
C24   H28   S    
C65   H29   S    
C10   C42   A    
C43   C47   A    
C9    C41   A    
C30   C34   A    
C5    C63   S    
C38   C54   A    
C11   C43   A    
C12   H12   S    
C31   C35   A    
C27   H23   S    
O4    V2    S    
C28   H24   S    
C56   H16   S    
C17   H17   S    
C31   C39   A    
C23   H27   S    
C38   C42   A    
C4    O14   A    
C22   H26   S    
C37   C41   A    
C18   C62   A    
C50   C66   S    
C13   C57   A    
C11   H11   S    
C2    C13   S    
C39   C43   A    
C45   C49   A    
C34   C62   A    
C15   C59   A    
C33   C61   A    
