data_mof_unit_6278.cif
_audit_creation_date              2013-03-05T15:53:27-0500
_audit_creation_method            fapswitch 2.2
_symmetry_space_group_name_H-M    P1
_symmetry_Int_Tables_number       1
_space_group_crystal_system       triclinic
_cell_length_a                    24.395288
_cell_length_b                    17.241206
_cell_length_c                    15.738892
_cell_angle_alpha                 90.000583
_cell_angle_beta                  128.600319
_cell_angle_gamma                 90.001946
_cell_volume                      5173.52049606

loop_
_atom_site_label
_atom_site_type_symbol
_atom_site_description
_atom_site_fract_x
_atom_site_fract_y
_atom_site_fract_z
_atom_type_partial_charge
C1    C     C_R   0.833043 0.893800 0.199379 0.319558
C2    C     C_R   0.164617 0.887489 0.798666 0.322366
C3    C     C_R   0.347857 0.361932 0.237348 0.362738
C4    C     C_R   0.665881 0.391553 0.799593 0.320099
N1    N     N_R   0.888400 0.921830 0.294620 -0.090770
N2    N     N_R   0.111600 0.921830 0.705380 -0.093603
N3    N     N_R   0.388400 0.421830 0.294620 -0.091706
N4    N     N_R   0.611600 0.421830 0.705380 -0.091449
C5    C     C_R   0.084658 0.855680 0.405836 -0.163068
C6    C     C_R   0.913547 0.855264 0.591968 -0.181602
C7    C     C_R   0.593042 0.359546 0.409258 -0.176022
C8    C     C_R   0.386956 0.392508 0.591686 -0.161075
H1    H     H_    0.052240 0.839596 0.321484 0.123487
H2    H     H_    0.945115 0.838345 0.675753 0.122487
H3    H     H_    0.569391 0.347533 0.326695 0.106039
H4    H     H_    0.408823 0.388829 0.675996 0.093926
N5    N     N_R   0.079940 0.922160 0.443410 -0.059550
N6    N     N_R   0.920060 0.922160 0.556590 -0.065925
N7    N     N_R   0.579940 0.422160 0.443410 -0.064791
N8    N     N_R   0.420060 0.422160 0.556590 -0.056216
C9    C     C_R   0.160906 0.854762 0.586093 -0.061165
C10   C     C_R   0.838642 0.855308 0.410821 -0.085710
C11   C     C_R   0.663837 0.357298 0.590015 -0.088698
C12   C     C_R   0.311576 0.401510 0.412020 -0.015720
H5    H     H_    0.202818 0.836303 0.665789 0.179244
H6    H     H_    0.799425 0.837815 0.328252 0.161117
H7    H     H_    0.702523 0.339972 0.672733 0.161841
H8    H     H_    0.263128 0.415156 0.333629 0.153718
N9    N     N_R   0.125650 0.922400 0.556620 -0.034131
N10   N     N_R   0.874350 0.922400 0.443380 -0.041907
N11   N     N_R   0.625650 0.422400 0.556620 -0.042564
N12   N     N_R   0.374350 0.422400 0.443380 -0.059754
C13   C     C_R   0.073450 0.890507 0.798039 -0.217895
C14   C     C_R   0.923947 0.894676 0.198460 -0.210223
C15   C     C_R   0.573262 0.389936 0.797178 -0.178573
C16   C     C_R   0.435850 0.364486 0.228958 -0.184353
H9    H     H_    0.043089 0.891593 0.826668 0.124914
H10   H     H_    0.953906 0.896908 0.169101 0.124262
H11   H     H_    0.541476 0.388712 0.823356 0.124061
H12   H     H_    0.464204 0.355214 0.198139 0.123036
N13   N     N_R   0.054230 0.922730 0.705400 -0.066640
N14   N     N_R   0.945770 0.922730 0.294600 -0.064643
N15   N     N_R   0.554230 0.422730 0.705400 -0.067113
N16   N     N_R   0.445770 0.422730 0.294600 -0.068616
C17   C     C_R   0.853642 0.876452 0.136949 0.005371
C18   C     C_R   0.142013 0.867517 0.857373 -0.001196
C19   C     C_R   0.377092 0.323147 0.197208 -0.026773
C20   C     C_R   0.643364 0.371122 0.858920 -0.005140
C21   C     C_R   0.135175 0.811589 0.493640 0.035676
C22   C     C_R   0.862768 0.811590 0.502432 0.061574
C23   C     C_R   0.642926 0.315551 0.498854 0.066884
C24   C     C_R   0.317799 0.382232 0.502269 0.037462
C25   C     C_R   0.810064 0.093414 0.412894 -0.116132
C26   C     C_R   0.161018 0.144427 0.587963 -0.144868
C27   C     C_R   0.310364 0.597514 0.410416 -0.189131
C28   C     C_R   0.689891 0.594912 0.587551 -0.116608
H13   H     H_    0.762304 0.077106 0.334938 0.203555
H14   H     H_    0.195801 0.166868 0.668214 0.192694
H15   H     H_    0.262345 0.584105 0.331248 0.192994
H16   H     H_    0.737889 0.579793 0.665927 0.201820
N17   N     N_R   0.873790 0.077030 0.443380 -0.075492
N18   N     N_R   0.126210 0.077030 0.556620 -0.054680
N19   N     N_R   0.373790 0.577030 0.443380 -0.077318
N20   N     N_R   0.626210 0.577030 0.556620 -0.074451
C29   C     C_R   0.939630 0.138989 0.237512 -0.231107
C30   C     C_R   0.071481 0.111950 0.794223 -0.161397
C31   C     C_R   0.443685 0.642541 0.246784 -0.171820
C32   C     C_R   0.556609 0.642233 0.754223 -0.193645
H17   H     H_    0.971344 0.152177 0.213935 0.195262
H18   H     H_    0.039783 0.112844 0.820250 0.187041
H19   H     H_    0.481047 0.659451 0.235120 0.197301
H20   H     H_    0.520157 0.659034 0.767415 0.207451
N21   N     N_R   0.945200 0.076700 0.294600 -0.077548
N22   N     N_R   0.054800 0.076700 0.705400 -0.072800
N23   N     N_R   0.445200 0.576700 0.294600 -0.074760
N24   N     N_R   0.554800 0.576700 0.705400 -0.076001
C33   C     C_R   0.163979 0.112119 0.798291 0.319623
C34   C     C_R   0.851366 0.141058 0.243161 0.398098
C35   C     C_R   0.647490 0.642262 0.754662 0.394842
C36   C     C_R   0.351134 0.640673 0.243298 0.380378
N25   N     N_R   0.111030 0.077600 0.705380 -0.094213
N26   N     N_R   0.888970 0.077600 0.294620 -0.090643
N27   N     N_R   0.611030 0.577600 0.705380 -0.091382
N28   N     N_R   0.388970 0.577600 0.294620 -0.090967
C37   C     C_R   0.884123 0.101136 0.591301 0.557417
C38   C     C_R   0.098019 0.136004 0.408907 0.502219
C39   C     C_R   0.382651 0.602961 0.588801 0.535613
C40   C     C_R   0.616379 0.601182 0.409215 0.525982
N29   N     N_R   0.919490 0.077280 0.556590 -0.109189
N30   N     N_R   0.080510 0.077280 0.443410 -0.121408
N31   N     N_R   0.419490 0.577280 0.556590 -0.107585
N32   N     N_R   0.580510 0.577280 0.443410 -0.112026
Ni1   Ni    Ni4+2 0.882160 0.999430 0.370180 0.293639
Ni2   Ni    Ni4+2 0.117840 0.999430 0.629820 0.315284
Ni3   Ni    Ni4+2 0.382160 0.499430 0.370180 0.275246
Ni4   Ni    Ni4+2 0.617840 0.499430 0.629820 0.294947
Ni5   Ni    Ni4+2 0.012460 0.999430 0.370180 0.183028
Ni6   Ni    Ni4+2 0.987540 0.999430 0.629820 0.192533
Ni7   Ni    Ni4+2 0.512460 0.499430 0.370180 0.196483
Ni8   Ni    Ni4+2 0.487540 0.499430 0.629820 0.191374
C41   C     C_R   0.814338 0.111301 0.502387 -0.128479
C42   C     C_R   0.142986 0.183529 0.497333 -0.085380
C43   C     C_R   0.313968 0.616302 0.498668 -0.089581
C44   C     C_R   0.685806 0.613255 0.498316 -0.109353
C45   C     C_R   0.882468 0.181834 0.207886 -0.037946
C46   C     C_R   0.140078 0.133858 0.855080 -0.033142
C47   C     C_R   0.384706 0.684055 0.213714 -0.051909
C48   C     C_R   0.614403 0.684884 0.785382 -0.048309
C49   C     C_R   0.855695 0.703864 0.601712 0.181418
C50   C     C_R   0.145602 0.711858 0.390913 0.175166
C51   C     C_R   0.278103 0.334862 0.601145 0.164982
C52   C     C_R   0.646924 0.204329 0.400441 0.175483
C53   C     C_R   0.836957 0.735319 0.504741 0.044189
C54   C     C_R   0.160540 0.736404 0.488128 0.049612
C55   C     C_R   0.260821 0.361194 0.503462 0.015762
C56   C     C_R   0.668294 0.239011 0.497309 0.045491
C57   C     C_R   0.783458 0.697464 0.407427 -0.217661
C58   C     C_R   0.210733 0.694195 0.583228 -0.206891
C59   C     C_R   0.193689 0.346263 0.405353 -0.177148
C60   C     C_R   0.720990 0.201071 0.594982 -0.212621
H21   H     H_    0.770941 0.713733 0.330724 0.157940
H22   H     H_    0.219910 0.706064 0.658684 0.168067
H23   H     H_    0.177358 0.368062 0.328329 0.155643
H24   H     H_    0.734907 0.219249 0.671967 0.159495
C61   C     C_R   0.149713 0.294348 0.403899 -0.108660
C62   C     C_R   0.764073 0.146778 0.596312 -0.144330
C63   C     C_R   0.738018 0.646519 0.405739 -0.138266
C64   C     C_R   0.257105 0.644582 0.585347 -0.144537
H25   H     H_    0.100380 0.279217 0.326597 0.175858
H26   H     H_    0.808604 0.126099 0.674507 0.192438
H27   H     H_    0.693483 0.625510 0.327647 0.193884
H28   H     H_    0.299229 0.618951 0.662042 0.179444
C65   C     C_R   0.173100 0.256949 0.500176 0.037607
C66   C     C_R   0.754558 0.130790 0.499995 0.062235
C67   C     C_R   0.745930 0.633481 0.501406 0.061719
C68   C     C_R   0.253327 0.638045 0.492557 0.058012
C69   C     C_R   0.234090 0.282732 0.599566 0.165942
C70   C     C_R   0.689068 0.149992 0.401759 0.112324
C71   C     C_R   0.810940 0.653368 0.599975 0.108633
C72   C     C_R   0.191802 0.663678 0.393525 0.086529
C73   C     C_3   0.829562 0.686225 0.702846 -0.386216
C74   C     C_3   0.182592 0.706335 0.302888 -0.348723
C75   C     C_3   0.236368 0.328645 0.682360 -0.451701
C76   C     C_3   0.667941 0.177756 0.295041 -0.387464
C77   C     C_3   0.878355 0.741164 0.704913 -0.564771
C78   C     C_3   0.131211 0.758008 0.298262 -0.569273
C79   C     C_3   0.284012 0.384951 0.683920 -0.535161
C80   C     C_3   0.622421 0.237232 0.294050 -0.557593
H29   H     H_    0.785266 0.717356 0.689608 0.261228
H30   H     H_    0.230880 0.738269 0.331625 0.245919
H31   H     H_    0.184632 0.353910 0.649733 0.199421
H32   H     H_    0.711375 0.205508 0.302090 0.264313
H33   H     H_    0.857318 0.643769 0.770850 0.224993
H34   H     H_    0.158007 0.670158 0.228809 0.229193
H35   H     H_    0.263071 0.296846 0.760224 0.245882
H36   H     H_    0.637549 0.133576 0.229714 0.224247
H37   H     H_    0.861145 0.802541 0.694641 0.206698
H38   H     H_    0.149822 0.819077 0.319749 0.210027
H39   H     H_    0.260280 0.443361 0.652063 0.203503
H40   H     H_    0.641627 0.297101 0.300244 0.207907
H41   H     H_    0.934559 0.730131 0.773708 0.209005
H42   H     H_    0.076453 0.750530 0.222415 0.205214
H43   H     H_    0.338211 0.385409 0.762397 0.201618
H44   H     H_    0.565448 0.227607 0.228178 0.208995
H45   H     H_    0.754108 0.213102 0.056780 0.159680
H46   H     H_    0.276193 0.119978 0.029327 0.156614
H47   H     H_    0.258731 0.707363 0.044454 0.154426
H48   H     H_    0.742443 0.719217 0.937820 0.161126
H49   H     H_    0.279060 0.882772 0.027610 0.150685
H50   H     H_    0.713184 0.888719 0.966411 0.175503
H51   H     H_    0.781871 0.384714 0.031948 0.170760
H52   H     H_    0.248308 0.293845 0.044126 0.157269
C81   C     C_2   0.182269 0.827967 0.961209 -0.176482
C82   C     C_2   0.812280 0.841663 0.029603 -0.201383
C83   C     C_2   0.683211 0.334612 0.964552 -0.198633
C84   C     C_2   0.350432 0.251496 0.135451 -0.165846
C85   C     C_2   0.252014 0.832737 0.027769 -0.045271
C86   C     C_2   0.742454 0.842209 0.964784 -0.044523
C87   C     C_2   0.752838 0.336616 0.031063 -0.042566
C88   C     C_2   0.281536 0.242939 0.069243 0.039578
H53   H     H_    0.892391 0.300963 0.164914 0.149220
H54   H     H_    0.149834 0.217278 0.965487 0.171672
H55   H     H_    0.392438 0.806496 0.178860 0.149441
H56   H     H_    0.602613 0.804706 0.825049 0.155186
C89   C     C_2   0.856620 0.254579 0.147717 -0.139022
C90   C     C_2   0.177920 0.171437 0.959396 -0.185175
C91   C     C_2   0.358458 0.756275 0.152305 -0.155707
C92   C     C_2   0.639155 0.758954 0.843398 -0.128775
C93   C     C_2   0.787519 0.263475 0.079575 0.012287
C94   C     C_2   0.247310 0.168855 0.027419 -0.036731
C95   C     C_2   0.289715 0.760431 0.073690 0.067370
C96   C     C_2   0.708274 0.768992 0.913763 0.004355
H57   H     H_    0.156042 0.780423 0.968372 0.167793
H58   H     H_    0.839605 0.798830 0.017480 0.165124
H59   H     H_    0.655631 0.289948 0.973577 0.168063
H60   H     H_    0.385784 0.204103 0.154336 0.150916
N33   N     N_R   0.762558 0.901331 0.161526 0.205489
O1    O     O_R   0.721625 0.840930 0.123337 -0.438503
O2    O     O_R   0.745240 0.961949 0.189187 -0.391992
N34   N     N_R   0.233078 0.871864 0.831419 0.198648
O3    O     O_R   0.257727 0.801488 0.857730 -0.445944
O4    O     O_R   0.266436 0.923504 0.819557 -0.352096
N35   N     N_R   0.281725 0.347265 0.212687 0.194726
O5    O     O_R   0.269548 0.280844 0.237326 -0.423003
O6    O     O_R   0.230775 0.396639 0.153430 -0.414522
N36   N     N_R   0.736930 0.398999 0.839917 0.204279
O7    O     O_R   0.777494 0.338307 0.877363 -0.442093
O8    O     O_R   0.755486 0.460427 0.815552 -0.392211
N37   N     N_R   0.234578 0.118676 0.835747 0.203026
O9    O     O_R   0.258928 0.067835 0.806303 -0.354575
O10   O     O_R   0.267329 0.184582 0.873922 -0.463361
N38   N     N_R   0.792177 0.165567 0.234077 0.195673
O11   O     O_R   0.732880 0.129223 0.167424 -0.421819
O12   O     O_R   0.792468 0.234686 0.267545 -0.450103
N39   N     N_R   0.707759 0.665929 0.766315 0.196533
O13   O     O_R   0.766471 0.628774 0.833849 -0.422811
O14   O     O_R   0.708780 0.734976 0.734007 -0.453030
N40   N     N_R   0.282688 0.653571 0.210728 0.196225
O15   O     O_R   0.234835 0.600475 0.154944 -0.423564
O16   O     O_R   0.264631 0.722504 0.218478 -0.467158
O17   O     O_3   0.910864 0.099402 0.698652 -0.653903
C97   C     C_3   0.915635 0.021721 0.730888 0.182122
H61   H     H_    0.957682 0.991191 0.736555 0.117178
H62   H     H_    0.864927 0.990336 0.673523 0.107577
C98   C     C_3   0.934837 0.020087 0.843286 -0.889410
H63   H     H_    0.893623 0.049335 0.841586 0.260227
H64   H     H_    0.939706 0.959042 0.869743 0.215956
H65   H     H_    0.985710 0.050021 0.902826 0.259007
O18   O     O_3   0.090676 0.137233 0.313980 -0.655845
C99   C     C_3   0.086099 0.061185 0.276405 0.252201
H66   H     H_    0.037896 0.031342 0.252441 0.095011
H67   H     H_    0.133085 0.026482 0.339991 0.114169
C100  C     C_3   0.082731 0.065274 0.176710 -0.855327
H68   H     H_    0.130577 0.093929 0.197757 0.276935
H69   H     H_    0.079167 0.005806 0.146477 0.205527
H70   H     H_    0.035814 0.098810 0.111302 0.256953
O19   O     O_3   0.409181 0.614364 0.695121 -0.649775
C101  C     C_3   0.427244 0.542577 0.748781 0.173231
H71   H     H_    0.468366 0.512887 0.750711 0.117521
H72   H     H_    0.379757 0.505599 0.709049 0.097917
C102  C     C_3   0.456404 0.555803 0.865602 -0.867335
H73   H     H_    0.416743 0.585364 0.867541 0.265087
H74   H     H_    0.469840 0.499112 0.907844 0.209977
H75   H     H_    0.504459 0.592103 0.908766 0.267175
O20   O     O_3   0.590575 0.599836 0.302253 -0.659408
C103  C     C_3   0.577414 0.522664 0.264636 0.207122
H76   H     H_    0.530775 0.499490 0.253019 0.123825
H77   H     H_    0.623854 0.484831 0.321271 0.102843
C104  C     C_3   0.561423 0.520878 0.154622 -0.887928
H78   H     H_    0.607181 0.542335 0.162095 0.258658
H79   H     H_    0.549559 0.460520 0.123109 0.211963
H80   H     H_    0.515282 0.558139 0.096335 0.272143

loop_
_geom_bond_atom_site_label_1
_geom_bond_atom_site_label_2
_geom_bond_distance
_ccdc_geom_bond_type
C12   C24   1.371885 A    
N35   O5    1.301454 A    
C65   C69   1.397913 A    
C85   C95   1.446734 S    
C44   C67   1.478614 S    
C27   H15   1.075629 S    
N5    N9    1.392518 A    
C74   C78   1.502108 S    
C1    N33   1.431881 S    
C14   N14   1.342301 A    
N4    N15   1.399841 A    
C52   C56   1.400700 A    
C74   H30   1.109300 S    
C76   C80   1.504442 S    
N7    N11   1.392518 A    
C59   H23   1.080257 S    
C9    C21   1.387681 A    
C31   N23   1.349692 A    
C73   H29   1.103777 S    
C50   C72   1.379941 A    
N22   Ni6   1.856489 S    
C41   C66   1.473973 S    
C2    C18   1.382785 A    
N21   Ni5   1.856584 S    
N35   O6    1.301174 A    
C36   C47   1.386642 A    
C7    N7    1.330742 A    
C104  H78   1.110347 S    
O18   C99   1.413835 S    
H50   C86   1.084619 S    
C34   C45   1.379765 A    
C39   O19   1.380697 S    
C33   C46   1.389088 A    
C72   C74   1.492125 S    
N10   Ni1   1.844270 S    
C3    N3    1.320888 A    
N39   O14   1.300839 A    
H54   C90   1.088711 S    
N9    Ni2   1.844260 S    
N16   Ni7   1.842729 S    
C60   C62   1.397820 A    
N23   N28   1.372034 A    
C31   H19   1.076196 S    
C62   H26   1.074114 S    
N11   Ni4   1.844261 S    
C30   N22   1.333945 A    
C47   C91   1.456859 S    
C98   H65   1.110652 S    
C29   N21   1.351590 A    
C99   C100  1.520826 S    
C102  H73   1.110715 S    
C80   H40   1.112404 S    
C45   C89   1.456854 S    
N33   O2    1.299926 A    
C5    H1    1.074606 S    
C57   H21   1.081360 S    
N4    Ni4   1.858325 S    
N37   O10   1.300567 A    
C40   O20   1.381505 S    
C103  H76   1.108134 S    
C7    H3    1.062461 S    
C68   C72   1.399463 A    
C57   C63   1.401498 A    
C11   C23   1.386937 A    
C40   N32   1.346394 A    
C25   C41   1.380809 A    
N34   O3    1.301800 A    
N2    Ni2   1.858325 S    
N2    N13   1.399841 A    
C27   N19   1.336571 A    
H45   C93   1.087387 S    
C28   N20   1.342286 A    
N6    N10   1.392516 A    
C11   H7    1.068529 S    
N31   Ni8   1.870466 S    
C15   N15   1.336035 A    
C100  H68   1.110718 S    
C82   C86   1.331976 D    
N30   Ni5   1.870371 S    
C91   C95   1.326401 D    
C19   C84   1.450840 S    
C4    N4    1.332196 A    
C10   C22   1.390911 A    
C20   C83   1.445236 S    
H52   C88   1.088071 S    
C35   N39   1.423154 S    
C21   C54   1.462134 S    
C69   C75   1.495790 S    
C79   H39   1.112918 S    
N26   Ni1   1.872117 S    
O19   C101  1.405355 S    
C13   C18   1.370377 A    
C78   H42   1.111917 S    
H51   C87   1.084991 S    
C103  C104  1.519339 S    
C2    N2    1.345236 A    
C58   C64   1.401983 A    
C30   C46   1.363977 A    
N8    N12   1.392516 A    
N7    Ni7   1.856319 S    
C15   C20   1.378625 A    
C64   H28   1.077324 S    
N24   N27   1.372028 A    
H49   C85   1.086982 S    
C8    C24   1.376841 A    
N17   N29   1.392516 A    
C98   H63   1.110135 S    
C103  H77   1.115147 S    
C31   C47   1.385307 A    
C51   C55   1.392397 A    
C101  H72   1.111566 S    
C104  H79   1.110661 S    
C39   N31   1.352483 A    
C36   N28   1.325430 A    
C80   H44   1.111823 S    
C8    H4    1.079865 S    
C16   H12   1.076075 S    
N19   Ni3   1.858104 S    
C5    C21   1.371649 A    
N15   Ni8   1.842829 S    
C28   C44   1.381249 A    
C38   N30   1.338597 A    
N14   Ni5   1.842728 S    
C37   N29   1.341721 A    
N36   O7    1.301505 A    
C23   C56   1.464188 S    
C83   C87   1.327967 D    
C26   N18   1.338619 A    
C97   C98   1.521711 S    
N29   Ni6   1.870467 S    
C9    N9    1.347996 A    
C56   C60   1.406383 A    
C99   H66   1.111910 S    
C84   H60   1.086287 S    
C51   C79   1.493138 S    
H56   C92   1.085890 S    
H46   C94   1.086810 S    
N28   Ni3   1.872117 S    
C11   N11   1.339056 A    
C76   H36   1.111678 S    
N6    Ni6   1.856222 S    
C15   H11   1.081728 S    
C43   C68   1.469947 S    
C12   N12   1.332418 A    
C58   H22   1.081946 S    
C48   C92   1.463274 S    
O17   C97   1.411052 S    
C52   C70   1.381493 A    
C86   C96   1.448456 S    
C100  H70   1.110836 S    
C34   N26   1.329486 A    
C75   H35   1.109369 S    
N33   O1    1.301499 A    
C101  C102  1.518751 S    
C81   C85   1.332319 D    
C32   H20   1.071548 S    
C8    N8    1.332390 A    
N23   Ni7   1.856584 S    
N37   O9    1.295948 A    
C18   C81   1.448345 S    
C14   C17   1.380470 A    
N3    N16   1.399842 A    
C74   H34   1.111563 S    
C27   C43   1.374606 A    
C99   H67   1.114496 S    
C49   C53   1.400687 A    
C100  H69   1.110664 S    
C46   C90   1.440944 S    
C54   C58   1.408000 A    
C53   C57   1.407434 A    
C59   C61   1.386331 A    
C5    N5    1.327282 A    
C37   O17   1.380524 S    
N38   O12   1.301158 A    
C75   C79   1.502748 S    
C55   C59   1.406141 A    
N18   Ni2   1.858108 S    
C81   H57   1.088106 S    
C26   H14   1.061935 S    
C2    N34   1.432979 S    
C16   C19   1.385124 A    
C16   N16   1.349946 A    
C32   N24   1.351544 A    
N20   N32   1.392519 A    
N22   N25   1.372028 A    
C25   N17   1.340206 A    
C6    C22   1.381696 A    
C34   N38   1.423513 S    
N21   N26   1.372034 A    
C1    N1    1.333526 A    
C37   C41   1.383721 A    
C51   C69   1.388509 A    
N1    N14   1.399842 A    
C4    C20   1.392013 A    
C24   C55   1.447943 S    
C61   C65   1.399540 A    
C9    H5    1.058221 S    
C101  H71   1.109665 S    
C97   H62   1.115600 S    
C104  H80   1.110370 S    
H53   C89   1.086065 S    
C75   H31   1.112541 S    
C10   N10   1.342543 A    
C82   H58   1.088506 S    
C14   H10   1.081921 S    
C38   O18   1.389513 S    
C26   C42   1.378327 A    
C49   C77   1.495643 S    
C12   H8    1.074699 S    
O20   C103  1.409507 S    
C25   H13   1.076183 S    
C66   C70   1.403724 A    
N1    Ni1   1.858313 S    
C29   C45   1.377119 A    
C89   C93   1.326516 D    
C78   H38   1.112421 S    
C36   N40   1.425587 S    
C33   N37   1.435162 S    
N24   Ni8   1.856488 S    
N3    Ni3   1.858313 S    
C77   H37   1.112473 S    
C67   C71   1.403375 A    
C52   C80   1.494692 S    
C87   C93   1.443272 S    
H48   C96   1.086693 S    
C92   C96   1.330243 D    
N40   O16   1.299435 A    
C49   C71   1.383268 A    
C22   C53   1.468183 S    
C13   N13   1.342158 A    
C50   C54   1.399005 A    
C102  H75   1.110744 S    
C63   H27   1.075178 S    
C64   C68   1.409280 A    
C39   C43   1.380924 A    
N8    Ni8   1.856223 S    
C76   H32   1.103301 S    
C70   C76   1.495269 S    
C17   C82   1.450914 S    
C35   N27   1.332188 A    
N25   Ni2   1.872111 S    
C71   C73   1.493617 S    
C73   H33   1.111588 S    
N40   O15   1.301041 A    
C30   H18   1.077630 S    
C77   H41   1.111790 S    
C6    N6    1.332650 A    
C29   H17   1.070583 S    
N27   Ni4   1.872109 S    
N18   N30   1.392519 A    
C3    C19   1.384624 A    
C73   C77   1.505573 S    
C98   H64   1.110637 S    
C35   C48   1.382853 A    
N20   Ni4   1.858107 S    
N17   Ni1   1.858104 S    
C88   C94   1.440864 S    
N39   O13   1.300809 A    
C97   H61   1.105930 S    
C63   C67   1.411478 A    
C1    C17   1.386922 A    
C13   H9    1.080924 S    
C42   C65   1.450163 S    
C7    C23   1.379740 A    
C4    N36   1.432079 S    
C61   H25   1.081499 S    
C84   C88   1.321776 D    
N12   Ni3   1.844270 S    
C28   H16   1.076300 S    
N38   O11   1.300818 A    
C62   C66   1.410254 A    
N34   O4    1.295882 A    
C33   N25   1.343179 A    
C10   H6    1.069440 S    
N19   N31   1.392516 A    
C3    N35   1.426876 S    
C79   H43   1.111808 S    
C90   C94   1.323768 D    
C32   C48   1.380676 A    
C102  H74   1.110371 S    
C50   C78   1.498005 S    
N36   O8    1.300102 A    
N5    Ni5   1.856319 S    
C40   C44   1.383769 A    
C83   H59   1.088609 S    
N13   Ni6   1.842827 S    
H55   C91   1.085926 S    
C60   H24   1.080891 S    
N32   Ni7   1.870371 S    
C6    H2    1.072355 S    
H47   C95   1.089118 S    
C38   C42   1.380814 A    
