data_mof_unit_14423.cif
_audit_creation_date              2012-12-11T15:33:37-0500
_audit_creation_method            fapswitch 2.2
_symmetry_space_group_name_H-M    P1
_symmetry_Int_Tables_number       1
_space_group_crystal_system       triclinic
_cell_length_a                    27.136663
_cell_length_b                    7.208029
_cell_length_c                    22.752253
_cell_angle_alpha                 90.001097
_cell_angle_beta                  101.140675
_cell_angle_gamma                 90.001357
_cell_volume                      4366.51870523

loop_
_atom_site_label
_atom_site_type_symbol
_atom_type_description
_atom_site_fract_x
_atom_site_fract_y
_atom_site_fract_z
_atom_type_partial_charge
O1    O     O_R   0.207310 0.594030 0.676830 -0.531779
O2    O     O_R   0.792690 0.405970 0.323170 -0.531779
O3    O     O_R   0.292690 0.094030 0.823170 -0.531779
O4    O     O_R   0.707310 0.905970 0.176830 -0.531779
O5    O     O_R   0.197320 0.262370 0.795700 -0.540673
O6    O     O_R   0.802680 0.737630 0.204300 -0.540673
O7    O     O_R   0.302680 0.762370 0.704300 -0.540669
O8    O     O_R   0.697320 0.237630 0.295700 -0.540669
C1    C     C_R   0.184714 0.432201 0.811918 0.681376
C2    C     C_R   0.815286 0.567798 0.188082 0.681376
C3    C     C_R   0.315289 0.932203 0.688084 0.681364
C4    C     C_R   0.684711 0.067796 0.311916 0.681365
O9    O     O_R   0.201410 0.264250 0.675590 -0.535062
O10   O     O_R   0.798590 0.735750 0.324410 -0.535062
O11   O     O_R   0.298590 0.764250 0.824410 -0.535059
O12   O     O_R   0.701410 0.235750 0.175590 -0.535059
O13   O     O_R   0.296810 0.094940 0.702210 -0.536965
O14   O     O_R   0.703190 0.905060 0.297790 -0.536966
O15   O     O_R   0.203190 0.594940 0.797790 -0.536969
O16   O     O_R   0.796810 0.405060 0.202210 -0.536968
C5    C     C_R   0.189801 0.432496 0.653479 0.685262
C6    C     C_R   0.810199 0.567504 0.346521 0.685262
C7    C     C_R   0.310198 0.932502 0.846521 0.685260
C8    C     C_R   0.689802 0.067498 0.153479 0.685259
O17   O     O_3   0.281300 0.427390 0.758870 -0.372449
O18   O     O_3   0.718700 0.572610 0.241130 -0.372449
O19   O     O_3   0.218700 0.927390 0.741130 -0.372449
O20   O     O_3   0.781300 0.072610 0.258870 -0.372449
V1    V     V_3+5 0.244190 0.152150 0.748350 1.410042
V2    V     V_3+5 0.755810 0.847850 0.251650 1.410042
V3    V     V_3+5 0.255810 0.652150 0.751650 1.410041
V4    V     V_3+5 0.744190 0.347850 0.248350 1.410040
C9    C     C_R   0.654867 0.062640 0.095138 -0.037955
C10   C     C_R   0.345133 0.937360 0.904861 -0.037955
C11   C     C_R   0.845135 0.562672 0.404861 -0.037977
C12   C     C_R   0.154865 0.437328 0.595139 -0.037977
C13   C     C_R   0.639240 0.126703 0.988896 -0.159070
C14   C     C_R   0.360760 0.873296 0.011104 -0.159071
C15   C     C_R   0.860772 0.626958 0.511100 -0.159062
C16   C     C_R   0.139228 0.373043 0.488900 -0.159062
C17   C     C_R   0.672136 0.117346 0.043889 -0.163208
C18   C     C_R   0.327864 0.882654 0.956111 -0.163208
C19   C     C_R   0.827874 0.617541 0.456108 -0.163188
C20   C     C_R   0.172126 0.382460 0.543892 -0.163188
C21   C     C_R   0.603842 0.017784 0.091063 -0.212983
C22   C     C_R   0.396158 0.982216 0.908937 -0.212982
C23   C     C_R   0.896156 0.517727 0.408939 -0.212983
C24   C     C_R   0.103844 0.482272 0.591061 -0.212983
C25   C     C_R   0.569080 0.029544 0.035447 0.085676
C26   C     C_R   0.430920 0.970456 0.964553 0.085676
C27   C     C_R   0.930921 0.529566 0.464553 0.085659
C28   C     C_R   0.069079 0.470434 0.535447 0.085660
C29   C     C_R   0.588121 0.084772 0.984257 0.136822
C30   C     C_R   0.411879 0.915227 0.015743 0.136822
C31   C     C_R   0.911887 0.584941 0.515741 0.136831
C32   C     C_R   0.088113 0.415059 0.484258 0.136831
C33   C     C_R   0.516269 0.991190 0.028826 0.057670
C34   C     C_R   0.483731 0.008810 0.971174 0.057670
C35   C     C_R   0.983730 0.491153 0.471174 0.057646
C36   C     C_R   0.016270 0.508847 0.528826 0.057646
C37   C     C_R   0.505125 0.063576 0.922096 -0.185471
C38   C     C_R   0.494875 0.936423 0.077904 -0.185471
C39   C     C_R   0.994881 0.563739 0.577905 -0.185439
C40   C     C_R   0.005118 0.436262 0.422095 -0.185439
C41   C     C_R   0.556105 0.100217 0.928655 -0.197640
C42   C     C_R   0.443895 0.899782 0.071345 -0.197641
C43   C     C_R   0.943904 0.600449 0.571344 -0.197615
C44   C     C_R   0.056096 0.399552 0.428656 -0.197615
H1    H     H_    0.570636 0.142449 0.889545 0.126789
H2    H     H_    0.429364 0.857549 0.110455 0.126790
H3    H     H_    0.929378 0.642783 0.610454 0.126764
H4    H     H_    0.070622 0.357218 0.389546 0.126764
H5    H     H_    0.407456 0.020964 0.867782 0.095849
H6    H     H_    0.592544 0.979036 0.132218 0.095849
H7    H     H_    0.092552 0.521140 0.632214 0.095859
H8    H     H_    0.907448 0.478858 0.367786 0.095859
H9    H     H_    0.288775 0.845806 0.953408 0.108198
H10   H     H_    0.711225 0.154194 0.046592 0.108198
H11   H     H_    0.211211 0.345531 0.546597 0.108211
H12   H     H_    0.788789 0.654470 0.453403 0.108211
H13   H     H_    0.653736 0.169604 0.949850 0.117393
H14   H     H_    0.346264 0.830394 0.050150 0.117394
H15   H     H_    0.846281 0.669981 0.550144 0.117378
H16   H     H_    0.153719 0.330021 0.449855 0.117378
H17   H     H_    0.483407 0.080211 0.877554 0.125371
H18   H     H_    0.516592 0.919788 0.122446 0.125371
H19   H     H_    0.016600 0.580420 0.622448 0.125354
H20   H     H_    0.983400 0.419580 0.377552 0.125354
C45   C     C_R   0.637218 0.893514 0.379225 -0.164276
C46   C     C_R   0.362781 0.106485 0.620774 -0.164276
C47   C     C_R   0.862757 0.393547 0.120747 -0.164295
C48   C     C_R   0.137243 0.606452 0.879253 -0.164295
H21   H     H_    0.658867 0.769961 0.374633 0.131068
H22   H     H_    0.341131 0.230037 0.625365 0.131067
H23   H     H_    0.841098 0.270008 0.125326 0.131066
H24   H     H_    0.158902 0.729991 0.874674 0.131067
C49   C     C_R   0.601244 0.885194 0.415611 -0.183337
C50   C     C_R   0.398756 0.114806 0.584388 -0.183337
C51   C     C_R   0.898727 0.385231 0.084357 -0.183338
C52   C     C_R   0.101273 0.614768 0.915643 -0.183338
H25   H     H_    0.596715 0.755743 0.438068 0.142055
H26   H     H_    0.403285 0.244256 0.561931 0.142055
H27   H     H_    0.903244 0.255786 0.061889 0.142105
H28   H     H_    0.096756 0.744214 0.938111 0.142105
C53   C     C_R   0.572079 0.040948 0.423986 0.015433
C54   C     C_R   0.427922 0.959053 0.576015 0.015432
C55   C     C_R   0.927907 0.540969 0.075998 0.015369
C56   C     C_R   0.072093 0.459031 0.924002 0.015369
C57   C     C_R   0.579862 0.208678 0.394012 0.153308
C58   C     C_R   0.420139 0.791323 0.605990 0.153308
C59   C     C_R   0.920136 0.708686 0.105993 0.153307
C60   C     C_R   0.079864 0.291314 0.894007 0.153308
C61   C     C_R   0.616695 0.215430 0.357903 -0.152560
C62   C     C_R   0.383306 0.784571 0.642098 -0.152560
C63   C     C_R   0.883307 0.715426 0.142105 -0.152574
C64   C     C_R   0.116693 0.284575 0.857894 -0.152574
H29   H     H_    0.622393 0.343684 0.335296 0.125696
H30   H     H_    0.377608 0.656318 0.664706 0.125695
H31   H     H_    0.877620 0.843660 0.164730 0.125703
H32   H     H_    0.122380 0.156341 0.835270 0.125703
C65   C     C_R   0.645682 0.058811 0.350045 -0.082835
C66   C     C_R   0.354318 0.941189 0.649955 -0.082835
C67   C     C_R   0.854309 0.558820 0.149948 -0.082819
C68   C     C_R   0.145690 0.441180 0.850052 -0.082819
N1    N     N_R   0.519791 0.167788 0.493615 -0.282735
N2    N     N_R   0.480210 0.832213 0.506386 -0.282737
N3    N     N_R   0.980314 0.667895 0.006511 -0.282734
N4    N     N_R   0.019686 0.332105 0.993489 -0.282734
N5    N     N_R   0.486456 0.147532 0.529227 -0.293159
N6    N     N_R   0.513545 0.852468 0.470774 -0.293158
N7    N     N_R   0.013658 0.647637 0.970911 -0.293190
N8    N     N_R   0.986341 0.352363 0.029088 -0.293190
C69   C     C_R   0.466003 0.978986 0.536699 0.517691
C70   C     C_R   0.533998 0.021015 0.463302 0.517690
C71   C     C_R   0.034010 0.478985 0.963316 0.517701
C72   C     C_R   0.965990 0.521015 0.036684 0.517701
C73   C     C_3   0.548734 0.379864 0.397891 -0.739200
H33   H     H_    0.508165 0.345422 0.385600 0.223507
H34   H     H_    0.557468 0.437421 0.443957 0.237993
H35   H     H_    0.556485 0.490216 0.366824 0.194141
C74   C     C_3   0.451269 0.620141 0.602112 -0.739197
H36   H     H_    0.491837 0.654587 0.614407 0.223502
H37   H     H_    0.443516 0.509787 0.633178 0.194142
H38   H     H_    0.442538 0.562585 0.556047 0.237997
C75   C     C_3   0.951270 0.879874 0.102132 -0.739148
H39   H     H_    0.991835 0.845422 0.114429 0.223555
H40   H     H_    0.942543 0.937461 0.056073 0.238019
H41   H     H_    0.943520 0.990216 0.133204 0.194108
C76   C     C_3   0.048729 0.120126 0.897867 -0.739147
H42   H     H_    0.008164 0.154579 0.885571 0.223554
H43   H     H_    0.056479 0.009785 0.866795 0.194109
H44   H     H_    0.057457 0.062539 0.943926 0.238019

loop_
_geom_bond_atom_site_label_1
_geom_bond_atom_site_label_2
_ccdc_geom_bond_type
N1    C70   A    
O17   V3    S    
C51   H27   S    
O1    C5    A    
O19   V1    S    
C9    C21   A    
C16   H16   S    
O3    C7    A    
C10   C18   A    
O1    V3    S    
O15   V3    S    
C75   H39   S    
C25   C33   A    
C33   C38   A    
C5    C12   S    
O7    C3    A    
C6    C11   S    
C38   H18   S    
C35   C40   A    
C26   C30   A    
C36   C39   A    
C40   C44   A    
O2    V4    S    
O9    V1    S    
C23   H8    S    
C14   C18   A    
N7    C71   A    
C48   C68   A    
C54   C58   A    
O4    C8    A    
C25   C29   A    
N8    C72   A    
C44   H4    S    
N2    N6    A    
C48   H24   S    
C1    C68   S    
O13   V1    S    
C57   C73   S    
O3    V1    S    
C28   C36   A    
C1    O15   A    
C52   H28   S    
C15   C31   A    
C4    C65   S    
N2    C69   A    
C2    O16   A    
C16   C32   A    
O2    C6    A    
C10   C22   A    
C11   C19   A    
C58   C62   A    
C16   C20   A    
C43   H3    S    
C57   C61   A    
C13   C29   A    
C34   C37   A    
O11   C7    A    
C11   C23   A    
C35   C36   A    
O12   C8    A    
C47   C67   A    
C14   H14   S    
C45   H21   S    
C46   C66   A    
C24   H7    S    
C13   H13   S    
N6    C70   A    
O10   V2    S    
N4    N8    A    
C75   H40   S    
C46   H22   S    
O5    V1    S    
C54   C69   S    
C73   H35   S    
C39   C43   A    
C52   C56   A    
O7    V3    S    
C38   C42   A    
C26   C34   A    
C63   C67   A    
N3    C72   A    
C56   C71   S    
C2    C67   S    
C76   H44   S    
C17   H10   S    
O18   V4    S    
C23   C27   A    
C19   H12   S    
C32   C44   A    
C47   H23   S    
O4    V2    S    
C64   H32   S    
C45   C49   A    
C21   H6    S    
C74   H37   S    
O8    V4    S    
C58   C74   S    
O5    C1    A    
C55   C72   S    
C37   C41   A    
C73   H34   S    
C31   C43   A    
C14   C30   A    
C21   C25   A    
O8    C4    A    
C7    C10   S    
O9    C5    A    
C62   H30   S    
C37   H17   S    
C61   H29   S    
O6    V2    S    
C63   H31   S    
N1    N5    A    
O14   V2    S    
N5    C69   A    
C74   H38   S    
C3    C66   S    
C27   C35   A    
C60   C64   A    
C75   H41   S    
C29   C41   A    
C48   C52   A    
O16   V4    S    
C53   C57   A    
C3    O13   A    
C64   C68   A    
C39   H19   S    
C55   C59   A    
C20   H11   S    
O6    C2    A    
C15   C19   A    
O11   V3    S    
C30   C42   A    
O12   V4    S    
C51   C55   A    
C73   H33   S    
C22   C26   A    
C8    C9    S    
C50   C54   A    
C9    C17   A    
O10   C6    A    
C59   C75   S    
C49   C53   A    
C50   H26   S    
C74   H36   S    
C33   C34   A    
C42   H2    S    
C45   C65   A    
C41   H1    S    
C62   C66   A    
O20   V2    S    
C46   C50   A    
C12   C24   A    
C27   C31   A    
C13   C17   A    
N4    C71   A    
N3    N7    A    
C12   C20   A    
C15   H15   S    
C76   H43   S    
C56   C60   A    
C24   C28   A    
C61   C65   A    
C18   H9    S    
C4    O14   A    
C60   C76   S    
C59   C63   A    
C47   C51   A    
C76   H42   S    
C40   H20   S    
C22   H5    S    
C49   H25   S    
C28   C32   A    
C53   C70   S    
