data_mof_unit_22862.cif
_audit_creation_date              2012-12-10T17:45:27-0500
_audit_creation_method            fapswitch 2.2
_symmetry_space_group_name_H-M    P1
_symmetry_Int_Tables_number       1
_space_group_crystal_system       triclinic
_cell_length_a                    11.536227
_cell_length_b                    10.623766
_cell_length_c                    9.952093
_cell_angle_alpha                 92.211398
_cell_angle_beta                  90.517429
_cell_angle_gamma                 94.082047
_cell_volume                      1215.62519228

loop_
_atom_site_label
_atom_site_type_symbol
_atom_type_description
_atom_site_fract_x
_atom_site_fract_y
_atom_site_fract_z
_atom_type_partial_charge
C1    C     C_R   0.512245 0.260425 0.497092 0.889878
C2    C     C_R   0.460020 0.871542 0.512986 -0.151332
C3    C     C_R   0.316149 0.346479 0.119957 0.012479
C4    C     C_R   0.282211 0.501524 0.499726 0.927794
C5    C     C_R   0.226106 0.293094 0.035757 -0.322417
C6    C     C_R   0.235562 0.291633 0.898427 -0.023546
C7    C     C_R   0.333544 0.350794 0.844051 -0.110750
C8    C     C_R   0.415943 0.426313 0.921803 0.110879
C9    C     C_R   0.412727 0.425352 0.066730 0.152065
C10   C     C_R   0.582266 0.567638 0.075540 -0.083414
C11   C     C_R   0.581917 0.568590 0.932899 0.046447
C12   C     C_R   0.630994 0.071435 0.836235 -0.196406
C13   C     C_R   0.485281 0.738666 0.503383 0.907463
C14   C     C_R   0.717926 0.500799 0.500543 0.897960
C15   C     C_1   0.161710 0.501757 0.499179 -0.092524
C16   C     C_1   0.059482 0.501584 0.499845 0.043783
C17   C     C_1   0.940741 0.501231 0.501030 0.021992
C18   C     C_1   0.838483 0.500976 0.501438 -0.158793
C19   C     C_R   0.619391 0.126284 0.712909 -0.153259
C20   C     C_2   0.493967 0.101633 0.237471 0.440773
C21   C     C_2   0.144636 0.221899 0.812904 0.409682
C22   C     C_1   0.670939 0.644734 0.867580 0.232442
C23   C     C_R   0.563588 0.961707 0.864487 0.034471
C24   C     C_1   0.579039 0.909640 0.994546 0.239082
C25   C     C_2   0.388132 0.812988 0.800333 0.445485
C26   C     C_2   0.361574 0.860524 0.285138 0.465499
C27   C     C_1   0.300698 0.293338 0.249419 0.253232
C28   C     C_R   0.487832 0.902564 0.764222 -0.031028
C29   C     C_R   0.496631 0.945158 0.629934 -0.031649
C30   C     C_R   0.547338 0.066208 0.610909 0.079035
C31   C     C_R   0.524772 0.124756 0.490120 -0.109490
C32   C     C_R   0.482191 0.052676 0.375167 -0.085182
C33   C     C_R   0.436169 0.929223 0.391765 -0.100983
H1    H     H_    0.342876 0.334379 0.739675 0.240907
H2    H     H_    0.669938 0.213998 0.695923 0.159288
H3    H     H_    0.689793 0.117353 0.911538 0.175283
H4    H     H_    0.649498 0.622686 0.132964 0.151490
H5    H     H_    0.150988 0.240782 0.077244 0.153786
H6    H     H_    0.424830 0.084395 0.163269 0.020708
H7    H     H_    0.070109 0.173253 0.858981 0.071720
H8    H     H_    0.322046 0.783268 0.725104 0.081755
H9    H     H_    0.366805 0.885303 0.180907 0.088137
N1    N     N_R   0.498930 0.498800 0.142780 -0.112173
N2    N     N_R   0.498900 0.498720 0.857170 -0.133786
N3    N     N_1   0.742719 0.706390 0.815535 -0.196780
N4    N     N_1   0.593243 0.867923 0.098588 -0.213021
N5    N     N_1   0.279063 0.244849 0.349423 -0.207037
O1    O     O_R   0.500000 0.316780 0.614690 -0.655151
O2    O     O_2   0.151400 0.218126 0.690415 -0.576343
O3    O     O_2   0.376968 0.772994 0.913158 -0.594419
O4    O     O_2   0.289705 0.776268 0.314331 -0.558343
O5    O     O_R   0.499990 0.316750 0.385360 -0.586125
O6    O     O_R   0.334450 0.500030 0.614670 -0.643532
O7    O     O_R   0.334440 0.500000 0.385330 -0.594943
O8    O     O_R   0.500010 0.683250 0.614640 -0.640244
O9    O     O_R   0.500000 0.683220 0.385310 -0.580122
O10   O     O_R   0.665560 0.500000 0.614670 -0.619485
O11   O     O_R   0.665550 0.499970 0.385330 -0.605518
O12   O     O_2   0.583875 0.159463 0.204451 -0.559534
Zn1   Zn    Zn3+2 0.500010 0.500020 0.653130 0.957392
Zn2   Zn    Zn3+2 0.499990 0.499980 0.346870 1.016423

loop_
_geom_bond_atom_site_label_1
_geom_bond_atom_site_label_2
_ccdc_geom_bond_type
C23   C24   S    
C1    O1    A    
C6    C7    A    
C3    C9    A    
O7    Zn2   S    
C4    O6    A    
C12   H3    S    
C14   C18   S    
C26   C33   S    
C31   C32   A    
C19   C30   A    
C1    C31   S    
C30   C31   A    
O8    Zn1   S    
C13   O9    A    
C24   N4    T    
C32   C33   A    
O11   Zn2   S    
C21   O2    D    
C17   C18   T    
C2    C33   A    
C7    C8    A    
C19   H2    S    
C26   O4    D    
C25   C28   S    
C2    C13   S    
C12   C23   A    
N1    Zn2   S    
C29   C30   A    
C21   H7    S    
C4    C15   S    
C10   H4    S    
C12   C19   A    
C3    C27   S    
C28   C29   A    
C7    H1    S    
O6    Zn1   S    
N2    Zn1   S    
O1    Zn1   S    
O5    Zn2   S    
C2    C29   A    
C5    C6    A    
C14   O11   A    
C1    O5    A    
C9    N1    A    
C10   C11   A    
C25   H8    S    
C15   C16   T    
C3    C5    A    
C11   N2    A    
C22   N3    T    
C5    H5    S    
C26   H9    S    
C20   C32   S    
C27   N5    T    
C20   H6    S    
C14   O10   A    
O9    Zn2   S    
C16   C17   S    
O10   Zn1   S    
C11   C22   S    
C4    O7    A    
C10   N1    A    
C23   C28   A    
C6    C21   S    
C25   O3    D    
C8    N2    A    
C20   O12   D    
C8    C9    A    
C13   O8    A    
