data_mof_unit_24126.cif
_audit_creation_date              2013-03-05T16:02:44-0500
_audit_creation_method            fapswitch 2.2
_symmetry_space_group_name_H-M    P1
_symmetry_Int_Tables_number       1
_space_group_crystal_system       triclinic
_cell_length_a                    23.578499
_cell_length_b                    11.731256
_cell_length_c                    10.471616
_cell_angle_alpha                 90.056082
_cell_angle_beta                  89.971398
_cell_angle_gamma                 90.387491
_cell_volume                      2896.43763571

loop_
_atom_site_label
_atom_site_type_symbol
_atom_site_description
_atom_site_fract_x
_atom_site_fract_y
_atom_site_fract_z
_atom_type_partial_charge
O1    O     O_R   0.500000 0.337200 0.605810 -0.568300
O2    O     O_R   0.500000 0.662800 0.394190 -0.569443
O3    O     O_R   0.500000 0.662800 0.605810 -0.566222
O4    O     O_R   0.500000 0.337200 0.394190 -0.569484
C1    C     C_R   0.499367 0.283322 0.499971 0.805728
C2    C     C_R   0.499923 0.716686 0.500057 0.814156
O5    O     O_R   0.417880 0.500000 0.605840 -0.560421
O6    O     O_R   0.582120 0.500000 0.394160 -0.558556
O7    O     O_R   0.582120 0.500000 0.605840 -0.556377
O8    O     O_R   0.417880 0.500000 0.394160 -0.559941
C3    C     C_R   0.390911 0.499615 0.500043 0.886059
C4    C     C_R   0.609143 0.499794 0.499938 0.888372
Cu1   Cu    Cu3+1 0.500000 0.500000 0.625300 1.017731
Cu2   Cu    Cu3+1 0.500000 0.500000 0.374700 1.016426
C5    C     C_R   0.880278 0.587581 0.518340 0.588755
C6    C     C_R   0.119864 0.391267 0.519378 0.587822
C7    C     C_R   0.880402 0.385832 0.490186 0.587825
C8    C     C_R   0.119367 0.592213 0.485146 0.586735
N1    N     N_R   0.851703 0.486361 0.503011 -0.446510
N2    N     N_R   0.148286 0.492426 0.502147 -0.445540
C9    C     C_R   0.940207 0.383733 0.496450 -0.124798
C10   C     C_R   0.059634 0.594259 0.491801 -0.127173
C11   C     C_R   0.939961 0.591980 0.511836 -0.123269
C12   C     C_R   0.060084 0.386530 0.513844 -0.125752
C13   C     C_R   0.970007 0.488464 0.503869 -0.156064
C14   C     C_R   0.029942 0.489742 0.503250 -0.154974
C15   C     C_R   0.970807 0.280324 0.494633 0.347653
C16   C     C_R   0.029015 0.697569 0.486890 0.346958
C17   C     C_R   0.970119 0.696730 0.512485 0.346254
C18   C     C_R   0.029865 0.281869 0.518774 0.346316
O9    O     O_2   0.850716 0.683672 0.540112 -0.535540
O10   O     O_2   0.149583 0.295680 0.542323 -0.530910
O11   O     O_2   0.850967 0.288433 0.470821 -0.530886
O12   O     O_2   0.148575 0.689108 0.461410 -0.530341
C19   C     C_R   0.239738 0.574595 0.575240 -0.212631
C20   C     C_R   0.758603 0.410977 0.575204 -0.211672
C21   C     C_R   0.240128 0.415388 0.427719 -0.213821
C22   C     C_R   0.761734 0.564595 0.421348 -0.214425
H1    H     H_    0.217144 0.634226 0.635252 0.179341
H2    H     H_    0.779837 0.351223 0.637365 0.179607
H3    H     H_    0.217812 0.354332 0.368270 0.179475
H4    H     H_    0.785627 0.620521 0.358788 0.171991
C23   C     C_R   0.298964 0.581675 0.567952 0.361545
C24   C     C_R   0.699225 0.409818 0.568584 0.363889
C25   C     C_R   0.299449 0.412234 0.433469 0.361746
C26   C     C_R   0.702710 0.576120 0.429548 0.366006
C27   C     C_R   0.328862 0.497999 0.500238 -0.229904
C28   C     C_R   0.671237 0.495546 0.499663 -0.235593
C29   C     C_R   0.209679 0.494033 0.501815 0.202807
C30   C     C_R   0.790369 0.486519 0.499223 0.207087
C31   C     C_1   0.498932 0.161915 0.499936 -0.159469
C32   C     C_1   0.499262 0.838074 0.500121 -0.177691
C33   C     C_1   0.498771 0.059715 0.499990 -0.005928
C34   C     C_1   0.498901 0.940273 0.500086 -0.013741
N3    N     N_1   0.500000 0.500000 0.186410 -0.134731
N4    N     N_1   0.500000 0.500000 0.813590 -0.134778
C35   C     C_1   0.499999 0.499998 0.072072 0.106840
C36   C     C_1   0.499999 0.499998 0.927928 0.106866
O13   O     O_3   0.942191 0.176925 0.483844 -0.582030
C37   C     C_3   0.956829 0.120823 0.368603 0.082539
H5    H     H_    0.953775 0.027814 0.386571 0.168208
H6    H     H_    0.000989 0.138258 0.335635 0.143973
C38   C     C_3   0.915089 0.150528 0.262072 -0.299140
H7    H     H_    0.871250 0.128462 0.292768 0.261714
H8    H     H_    0.917331 0.243479 0.242117 0.217206
C39   C     C_3   0.928721 0.085083 0.139977 -0.963985
H9    H     H_    0.972309 0.106087 0.107101 0.259984
H10   H     H_    0.898249 0.108863 0.063885 0.270242
H11   H     H_    0.925406 0.991795 0.156903 0.266027
O14   O     O_3   0.057485 0.800672 0.471527 -0.579153
C40   C     C_3   0.042830 0.852057 0.353699 0.085201
H12   H     H_    0.048608 0.945474 0.365250 0.166062
H13   H     H_    0.997789 0.837921 0.325395 0.146202
C41   C     C_3   0.082072 0.812195 0.246263 -0.300863
H14   H     H_    0.126737 0.833522 0.270887 0.261455
H15   H     H_    0.078145 0.718326 0.234432 0.216324
C42   C     C_3   0.067049 0.869699 0.120250 -0.967872
H16   H     H_    0.022874 0.847702 0.092485 0.259586
H17   H     H_    0.096212 0.840024 0.044059 0.268263
H18   H     H_    0.071182 0.963739 0.129325 0.268398
O15   O     O_3   0.941073 0.798972 0.521933 -0.583138
C43   C     C_3   0.956239 0.858234 0.635035 0.085689
H19   H     H_    0.955178 0.950630 0.612925 0.170312
H20   H     H_    0.999772 0.839528 0.670501 0.140655
C44   C     C_3   0.913200 0.834369 0.741175 -0.295351
H21   H     H_    0.869929 0.856107 0.707358 0.259269
H22   H     H_    0.914041 0.742342 0.766165 0.219328
C45   C     C_3   0.926609 0.904745 0.860156 -0.965413
H23   H     H_    0.969752 0.884777 0.895707 0.261034
H24   H     H_    0.895351 0.884517 0.936293 0.269380
H25   H     H_    0.924300 0.997241 0.838228 0.267310
O16   O     O_3   0.058887 0.179921 0.531790 -0.579206
C46   C     C_3   0.044790 0.125906 0.648711 0.085458
H26   H     H_    0.050063 0.032803 0.634456 0.168468
H27   H     H_    0.000040 0.139069 0.679274 0.145029
C47   C     C_3   0.085003 0.163949 0.755496 -0.299400
H28   H     H_    0.129441 0.144676 0.727966 0.261947
H29   H     H_    0.081126 0.257342 0.770688 0.216661
C48   C     C_3   0.071214 0.102503 0.880132 -0.968190
H30   H     H_    0.027148 0.121570 0.910311 0.260082
H31   H     H_    0.100791 0.131598 0.956113 0.268485
H32   H     H_    0.075759 0.008945 0.867816 0.268055
O17   O     O_3   0.328434 0.670238 0.626005 -0.595642
C49   C     C_3   0.317836 0.774322 0.561480 0.049651
H33   H     H_    0.340597 0.842608 0.614581 0.179992
H34   H     H_    0.272034 0.796604 0.564144 0.161390
C50   C     C_3   0.339726 0.773554 0.422618 -0.363348
H35   H     H_    0.383849 0.741413 0.420156 0.222686
H36   H     H_    0.312771 0.715972 0.363670 0.219796
C51   C     C_3   0.338557 0.891995 0.362956 -0.893799
H37   H     H_    0.296117 0.931184 0.374882 0.258691
H38   H     H_    0.348139 0.885561 0.259386 0.264896
H39   H     H_    0.371352 0.947131 0.407576 0.252275
O18   O     O_3   0.667764 0.325513 0.629117 -0.593322
C52   C     C_3   0.676361 0.218805 0.568272 0.046759
H40   H     H_    0.652627 0.153814 0.624338 0.178692
H41   H     H_    0.721724 0.193228 0.570708 0.158275
C53   C     C_3   0.653858 0.217031 0.430026 -0.362313
H42   H     H_    0.610286 0.251535 0.427884 0.223312
H43   H     H_    0.681093 0.271652 0.368349 0.218275
C54   C     C_3   0.653100 0.096975 0.374190 -0.902988
H44   H     H_    0.696747 0.062049 0.371606 0.254452
H45   H     H_    0.636392 0.099578 0.275134 0.266444
H46   H     H_    0.625235 0.040231 0.431791 0.261132
O19   O     O_3   0.329512 0.325248 0.375398 -0.595890
C55   C     C_3   0.319476 0.220449 0.439560 0.049672
H47   H     H_    0.343289 0.153770 0.387217 0.179386
H48   H     H_    0.273939 0.195131 0.435204 0.161152
C56   C     C_3   0.340307 0.222447 0.579226 -0.365001
H49   H     H_    0.384079 0.257478 0.583364 0.221940
H50   H     H_    0.312376 0.278163 0.637280 0.220646
C57   C     C_3   0.339782 0.103883 0.638706 -0.894147
H51   H     H_    0.297767 0.062114 0.625402 0.258517
H52   H     H_    0.348603 0.110794 0.742579 0.265002
H53   H     H_    0.373335 0.050794 0.595095 0.252381
O20   O     O_3   0.675152 0.665635 0.369806 -0.595898
C58   C     C_3   0.692141 0.770938 0.425387 0.061554
H54   H     H_    0.678671 0.840259 0.360220 0.164060
H55   H     H_    0.739062 0.779745 0.432830 0.172484
C59   C     C_3   0.663637 0.790491 0.555913 -0.359812
H56   H     H_    0.618962 0.816406 0.540834 0.208168
H57   H     H_    0.663354 0.711140 0.613506 0.223602
C60   C     C_3   0.694582 0.882128 0.633081 -0.888715
H58   H     H_    0.737777 0.852589 0.658750 0.274034
H59   H     H_    0.670747 0.899750 0.722341 0.258287
H60   H     H_    0.698359 0.962136 0.577659 0.249353

loop_
_geom_bond_atom_site_label_1
_geom_bond_atom_site_label_2
_geom_bond_distance
_ccdc_geom_bond_type
C60   H60   1.107065 S    
C39   H10   1.110244 S    
C38   H8    1.111366 S    
C46   H26   1.110040 S    
C3    C27   1.463017 S    
C59   C60   1.526202 S    
C4    C28   1.465260 S    
O3    C2    1.275681 A    
C53   H43   1.111266 S    
C49   H34   1.113171 S    
O15   C43   1.417521 S    
C33   C34   1.401238 S    
C5    N1    1.370637 A    
C58   H55   1.113220 S    
C55   H47   1.110120 S    
C41   H15   1.111272 S    
C37   C38   1.530035 S    
O1    C1    1.275374 A    
C11   C17   1.415588 A    
C16   C17   1.414158 A    
C59   H57   1.109644 S    
C22   H4    1.082790 S    
C44   H21   1.111507 S    
C19   H1    1.082553 S    
C42   H18   1.110841 S    
C39   H11   1.111042 S    
C60   H58   1.111242 S    
C47   C48   1.525442 S    
C37   H6    1.114467 S    
O7    Cu1   1.946859 S    
C51   H37   1.110989 S    
C54   H46   1.110454 S    
C53   H42   1.107000 S    
C25   O19   1.386255 S    
C57   H51   1.110994 S    
C52   H41   1.113132 S    
C41   C42   1.525522 S    
C47   H29   1.111326 S    
C19   C29   1.405980 A    
O6    Cu2   1.947061 S    
C50   H35   1.109238 S    
O14   C40   1.417695 S    
C19   C23   1.400410 A    
O3    Cu1   1.920921 S    
O6    C4    1.278143 A    
C56   C57   1.524532 S    
C5    C11   1.409465 A    
C39   H9    1.109893 S    
C9    C15   1.415741 A    
C38   C39   1.525911 S    
C24   O18   1.386009 S    
O13   C37   1.417621 S    
C6    C12   1.411456 A    
C10   C16   1.415868 A    
Cu1   Cu2   2.624187 S    
C15   C18   1.415384 A    
O4    Cu2   1.920921 S    
C50   H36   1.111339 S    
O2    C2    1.275633 A    
C7    O11   1.348083 S    
C49   H33   1.110207 S    
C32   C34   1.199004 T    
O18   C52   1.419796 S    
C12   C18   1.416370 A    
C25   C27   1.404198 A    
C58   C59   1.540466 S    
C26   C28   1.405189 A    
C54   H45   1.110265 S    
C41   H14   1.111207 S    
C44   H22   1.111411 S    
C20   H2    1.082471 S    
C59   H56   1.109755 S    
C18   O16   1.388776 S    
O8    Cu2   1.946861 S    
C40   H13   1.114001 S    
O20   C58   1.420349 S    
C55   C56   1.543137 S    
C13   C14   1.413174 A    
C42   H16   1.110176 S    
C7    C9    1.412054 A    
C37   H5    1.109248 S    
C31   C33   1.198913 T    
C53   C54   1.524418 S    
O5    C3    1.277653 A    
C17   O15   1.388626 S    
N2    C29   1.447552 S    
C21   C29   1.405590 A    
C48   H30   1.110001 S    
C45   H25   1.111047 S    
C6    N2    1.370948 A    
C52   C53   1.542156 S    
C47   H28   1.111230 S    
C42   H17   1.110275 S    
C8    O12   1.348305 S    
C51   H39   1.107979 S    
C54   H44   1.110576 S    
C57   H52   1.110313 S    
C48   H31   1.110273 S    
C45   H24   1.110217 S    
C46   C47   1.530674 S    
C43   H20   1.114990 S    
N3    C35   1.197300 T    
O19   C55   1.420008 S    
C50   C51   1.524441 S    
C20   C24   1.401758 A    
O1    Cu1   1.920524 S    
C21   C25   1.400766 A    
C20   C30   1.403997 A    
C56   H49   1.109158 S    
C44   C45   1.526023 S    
C60   H59   1.110368 S    
C9    C13   1.413314 A    
C55   H48   1.113009 S    
C8    C10   1.410468 A    
C16   O14   1.388784 S    
C12   C14   1.412597 A    
O4    C1    1.275904 A    
C23   O17   1.386088 S    
C40   C41   1.531100 S    
C5    O9    1.348518 S    
C22   C30   1.403619 A    
C6    O10   1.348162 S    
C43   C44   1.529433 S    
C58   H54   1.110266 S    
Cu1   N4    1.971702 S    
C40   H12   1.109917 S    
C15   O13   1.388570 S    
N1    C30   1.446736 S    
C35   C36   1.509424 S    
C57   H53   1.108179 S    
O16   C46   1.417508 S    
C7    N1    1.370100 A    
N4    C36   1.197303 T    
Cu2   N3    1.971701 S    
C8    N2    1.370514 A    
C11   C13   1.412417 A    
C21   H3    1.082491 S    
O2    Cu2   1.920524 S    
O7    C4    1.278715 A    
C51   H38   1.110315 S    
C22   C26   1.401758 A    
O8    C3    1.277892 A    
C26   O20   1.388250 S    
C38   H7    1.111300 S    
C24   C28   1.406646 A    
O5    Cu1   1.947063 S    
C48   H32   1.110879 S    
C45   H23   1.109966 S    
C46   H27   1.114165 S    
C43   H19   1.109046 S    
C10   C14   1.412950 A    
O17   C49   1.419791 S    
C1    C31   1.424223 S    
C2    C32   1.424227 S    
C23   C27   1.403859 A    
C49   C50   1.542790 S    
C52   H40   1.110825 S    
C56   H50   1.111358 S    
