data_mof_unit_46801.cif
_audit_creation_date              2013-03-05T16:47:21-0500
_audit_creation_method            fapswitch 2.2
_symmetry_space_group_name_H-M    P1
_symmetry_Int_Tables_number       1
_space_group_crystal_system       triclinic
_cell_length_a                    10.872681
_cell_length_b                    10.904043
_cell_length_c                    9.720997
_cell_angle_alpha                 90.012102
_cell_angle_beta                  90.888609
_cell_angle_gamma                 91.619112
_cell_volume                      1151.8853562

loop_
_atom_site_label
_atom_site_type_symbol
_atom_site_description
_atom_site_fract_x
_atom_site_fract_y
_atom_site_fract_z
_atom_type_partial_charge
O1    O     O_R   0.500020 0.321960 0.617040 -0.586788
O2    O     O_R   0.499980 0.321920 0.382900 -0.562079
C1    C     C_R   0.489809 0.265970 0.499894 0.857301
O3    O     O_R   0.319660 0.500030 0.617070 -0.595063
O4    O     O_R   0.319620 0.499990 0.382930 -0.601432
C2    C     C_R   0.262467 0.501388 0.498266 0.780412
Cu1   Cu    Cu3+1 0.500020 0.500020 0.638630 1.043638
Cu2   Cu    Cu3+1 0.499980 0.499980 0.361370 1.053932
O5    O     O_R   0.500020 0.678080 0.617100 -0.515693
O6    O     O_R   0.499980 0.678040 0.382960 -0.561469
O7    O     O_R   0.680380 0.500010 0.617070 -0.539552
O8    O     O_R   0.680340 0.499970 0.382930 -0.513271
C3    C     C_R   0.503925 0.734935 0.500222 0.797151
C4    C     C_R   0.737817 0.503340 0.501154 0.907613
H1    H     H_    0.263786 0.591343 0.884194 0.183050
C5    C     C_R   0.241795 0.684289 0.078352 0.476685
C6    C     C_R   0.190340 0.676200 0.209941 -0.094774
H2    H     H_    0.205048 0.750367 0.282978 0.125990
C7    C     C_R   0.118052 0.572521 0.246397 0.136034
C8    C     C_R   0.104144 0.474316 0.153390 -0.087394
H3    H     H_    0.051106 0.392642 0.181062 0.149400
C9    C     C_R   0.158455 0.480814 0.024332 -0.189478
H4    H     H_    0.146738 0.405023 0.953000 0.148689
C10   C     C_R   0.225231 0.586252 0.985990 -0.150898
C11   C     C_R   0.935739 0.575492 0.398374 0.339847
C12   C     C_R   0.872422 0.510579 0.503259 -0.143056
C13   C     C_R   0.939661 0.451297 0.608379 0.045159
C14   C     C_R   0.066718 0.454613 0.605951 -0.174553
H5    H     H_    0.117388 0.411974 0.689349 0.151118
C15   C     C_R   0.128747 0.505130 0.494525 -0.118643
C16   C     C_R   0.062679 0.559028 0.384417 -0.121935
C17   C     C_R   0.852091 0.452258 0.847713 0.422346
C18   C     C_R   0.802161 0.385839 0.958373 -0.315554
H6    H     H_    0.776649 0.433548 0.050542 0.231335
C19   C     C_R   0.784266 0.258180 0.950431 0.420000
C20   C     C_R   0.815537 0.196203 0.830818 -0.099109
H7    H     H_    0.802472 0.097620 0.823893 0.222590
C21   C     C_R   0.864120 0.260826 0.719583 -0.271283
H8    H     H_    0.888724 0.211187 0.627934 0.213722
C22   C     C_R   0.882107 0.388500 0.726392 -0.040791
C23   C     C_2   0.464034 0.932325 0.401833 -0.280798
C24   C     C_2   0.521424 0.867510 0.500582 0.323627
H9    H     H_    0.407433 0.885143 0.324586 0.201025
C25   C     C_2   0.474186 0.065681 0.390532 -0.046640
C26   C     C_2   0.463326 0.135439 0.501966 -0.245581
H10   H     H_    0.490195 0.105853 0.290183 0.233237
H11   H     H_    0.436675 0.094804 0.599213 0.202180
C27   C     C_2   0.470266 0.404281 0.922149 -0.079519
N1    N     N_2   0.498640 0.498660 0.846910 -0.280822
H12   H     H_    0.449298 0.317292 0.871990 0.195878
H13   H     H_    0.507589 0.582566 0.894430 0.261016
C28   C     C_2   0.459436 0.407918 0.076854 -0.011151
N2    N     N_2   0.498610 0.498630 0.153040 -0.275275
H14   H     H_    0.418267 0.328049 0.126346 0.182008
H15   H     H_    0.545913 0.569555 0.106404 0.266980
S1    S     S_3+6 0.720182 0.174761 0.087984 -0.004300
O9    O     O_2   0.719805 0.251976 0.216066 -0.295917
O10   O     O_2   0.590569 0.136170 0.048842 -0.313832
O11   O     O_3   0.802537 0.048819 0.116909 -0.485909
H16   H     H_    0.755860 0.001541 0.186872 0.407742
S2    S     S_3+6 0.632724 0.931282 0.618880 0.031846
O12   O     O_2   0.700847 0.038601 0.555674 -0.312067
O13   O     O_2   0.570628 0.971344 0.747755 -0.274642
O14   O     O_3   0.734911 0.825131 0.661157 -0.441749
H17   H     H_    0.803252 0.872017 0.707093 0.390591
S3    S     S_3+6 0.326244 0.816675 0.028149 0.009742
O15   O     O_2   0.319752 0.830314 0.874301 -0.259252
O16   O     O_2   0.274647 0.928156 0.094617 -0.282075
O17   O     O_3   0.473940 0.802928 0.078118 -0.559819
H18   H     H_    0.518871 0.872057 0.033152 0.417535
S4    S     S_3+6 0.860746 0.690967 0.300291 0.055215
O18   O     O_2   0.786408 0.632316 0.185750 -0.241746
O19   O     O_2   0.774674 0.758282 0.390585 -0.273812
O20   O     O_3   0.960480 0.794363 0.233434 -0.463059
H19   H     H_    0.989336 0.845380 0.312516 0.355785
S5    S     S_3+6 0.870206 0.614118 0.864290 0.055605
O21   O     O_2   0.952380 0.643913 0.985329 -0.230898
O22   O     O_2   0.925519 0.673651 0.739645 -0.275744
O23   O     O_3   0.731285 0.672234 0.892411 -0.487900
H20   H     H_    0.748260 0.753455 0.935431 0.409300

loop_
_geom_bond_atom_site_label_1
_geom_bond_atom_site_label_2
_geom_bond_distance
_ccdc_geom_bond_type
C11   C16   1.405461 A    
S3    O16   1.503103 D    
C23   C24   1.347941 D    
C7    C8    1.404698 A    
S5    O23   1.680646 S    
C7    C16   1.484720 S    
Cu1   Cu2   2.695238 S    
C28   N2    1.293981 D    
Cu1   O7    1.975396 S    
C12   C13   1.414336 A    
C14   H5    1.085225 S    
S5    O22   1.500713 D    
O4    C2    1.290564 A    
O7    C4    1.296762 A    
S3    O17   1.681254 S    
S1    O9    1.503012 D    
C26   H11   1.084151 S    
S2    O13   1.502934 D    
O5    C3    1.295119 A    
C18   C19   1.402020 A    
C19   C20   1.396152 A    
C25   H10   1.083927 S    
C5    C6    1.405892 A    
N1    H13   1.026316 S    
C11   S4    1.787120 S    
C27   H12   1.083315 S    
S3    O15   1.503730 D    
O11   H16   0.990920 S    
C5    C10   1.401786 A    
C23   H9    1.083932 S    
O17   H18   0.991895 S    
O3    Cu1   1.968933 S    
C3    C24   1.452730 S    
C28   H14   1.084030 S    
C18   H6    1.079813 S    
N2    H15   1.026183 S    
C21   H8    1.083349 S    
O20   H19   0.990630 S    
S5    O21   1.496347 D    
Cu1   N1    2.025031 S    
O3    C2    1.303433 A    
S4    O19   1.499672 D    
C11   C12   1.417400 A    
C1    C26   1.444355 S    
O1    C1    1.293764 A    
S2    O14   1.673852 S    
S4    O20   1.680009 S    
C13   C22   1.474764 S    
Cu2   O8    1.968932 S    
C6    H2    1.082874 S    
C4    C12   1.463241 S    
C24   S2    1.783067 S    
Cu2   O6    1.952840 S    
H1    C10   1.081487 S    
C2    C15   1.455513 S    
O8    C4    1.299647 A    
C23   C25   1.459482 S    
C9    C10   1.396156 A    
C5    S3    1.761922 S    
C25   C26   1.332167 D    
Cu1   O5    1.952866 S    
C27   N1    1.295595 D    
C19   S1    1.759103 S    
O1    Cu1   1.952840 S    
O2    Cu2   1.952865 S    
C8    C9    1.395824 A    
O6    C3    1.297218 A    
Cu2   N2    2.025046 S    
C17   S5    1.777346 S    
O4    Cu2   1.975397 S    
S1    O11   1.681828 S    
O14   H17   0.990481 S    
C14   C15   1.390481 A    
O2    C1    1.295474 A    
S4    O18   1.498210 D    
C17   C18   1.404514 A    
C21   C22   1.401757 A    
C15   C16   1.416813 A    
C20   C21   1.393482 A    
C6    C7    1.407120 A    
S1    O10   1.502532 D    
C17   C22   1.416027 A    
S2    O12   1.503652 D    
O23   H20   0.990717 S    
C27   C28   1.510909 S    
C8    H3    1.083480 S    
C20   H7    1.082258 S    
C13   C14   1.381468 A    
C9    H4    1.082173 S    
