data_mof_unit_28452.cif
_audit_creation_date              2013-03-05T15:51:15-0500
_audit_creation_method            fapswitch 2.2
_symmetry_space_group_name_H-M    P1
_symmetry_Int_Tables_number       1
_space_group_crystal_system       triclinic
_cell_length_a                    9.687405
_cell_length_b                    10.795719
_cell_length_c                    13.810553
_cell_angle_alpha                 96.411772
_cell_angle_beta                  83.719788
_cell_angle_gamma                 87.990215
_cell_volume                      1425.05857019

loop_
_atom_site_label
_atom_site_type_symbol
_atom_site_description
_atom_site_fract_x
_atom_site_fract_y
_atom_site_fract_z
_atom_type_partial_charge
O1    O     O_R   0.381190 0.680360 0.500010 -0.514925
O2    O     O_R   0.618760 0.680340 0.500000 -0.550085
C1    C     C_R   0.497718 0.736586 0.491796 0.827046
O3    O     O_R   0.364420 0.499990 0.637850 -0.518585
O4    O     O_R   0.601990 0.499960 0.637840 -0.555165
C2    C     C_R   0.476142 0.506417 0.683344 0.856281
Cu1   Cu    Cu3+1 0.359340 0.500010 0.500010 1.012450
Cu2   Cu    Cu3+1 0.640660 0.499990 0.499990 1.032966
O5    O     O_R   0.381240 0.319660 0.500000 -0.607109
O6    O     O_R   0.618810 0.319640 0.499990 -0.479852
O7    O     O_R   0.398010 0.500040 0.362160 -0.578532
O8    O     O_R   0.635580 0.500010 0.362150 -0.529499
C3    C     C_R   0.501507 0.263993 0.510946 0.889832
C4    C     C_R   0.523762 0.506797 0.317715 0.815308
C5    C     C_1   0.541311 0.515169 0.214411 -0.189263
C6    C     C_2   0.562989 0.527202 0.023041 0.362730
C7    C     C_2   0.446139 0.551681 0.982562 0.324219
C8    C     C_1   0.451274 0.535924 0.876348 -0.066693
C9    C     C_1   0.554522 0.521845 0.127493 -0.013557
C10   C     C_1   0.460554 0.521661 0.788216 -0.078279
C11   C     C_R   0.231317 0.908465 0.501422 0.297494
C12   C     C_R   0.119825 0.974735 0.559688 -0.226689
H1    H     H_    0.015707 0.943102 0.556390 0.202629
C13   C     C_R   0.141902 0.080289 0.623297 0.435408
C14   C     C_R   0.275095 0.128720 0.618872 0.190973
C15   C     C_R   0.383236 0.070807 0.549857 -0.097772
C16   C     C_R   0.368281 0.947406 0.508893 -0.056620
C17   C     C_R   0.491118 0.870702 0.479384 -0.224606
C18   C     C_R   0.617806 0.926853 0.459082 0.357337
C19   C     C_R   0.628515 0.053375 0.487104 0.182976
C20   C     C_R   0.507754 0.129259 0.523892 -0.184750
C21   C     C_R   0.896025 0.336471 0.342732 0.400628
C22   C     C_R   0.000788 0.275474 0.266517 0.227043
C23   C     C_R   0.140541 0.288025 0.276272 0.293271
C24   C     C_R   0.178805 0.345400 0.360924 -0.223364
H2    H     H_    0.284678 0.329508 0.366628 0.240337
C25   C     C_R   0.089825 0.423094 0.429338 0.012039
C26   C     C_R   0.941201 0.421864 0.425032 -0.009007
N1    N     N_R   0.852210 0.498790 0.499090 -0.206833
C27   C     C_R   0.911618 0.573865 0.568572 0.459218
C28   C     C_R   0.059725 0.572885 0.568584 0.271864
N2    N     N_R   0.148080 0.498710 0.499060 -0.183498
O9    O     O_3   0.328326 0.599338 0.044297 -0.593423
C29   C     C_3   0.204083 0.568334 0.005016 0.068823
H3    H     H_    0.205535 0.467549 0.976655 0.149552
H4    H     H_    0.186687 0.625731 0.944971 0.183653
C30   C     C_3   0.084672 0.595834 0.086547 -0.802149
H5    H     H_    0.064739 0.698264 0.102681 0.249665
H6    H     H_    0.989657 0.551793 0.064623 0.216216
H7    H     H_    0.110451 0.558091 0.154308 0.260793
O10   O     O_3   0.755701 0.306195 0.344688 -0.507712
C31   C     C_3   0.718159 0.223715 0.265192 0.125324
H8    H     H_    0.772816 0.132317 0.264389 0.193248
H9    H     H_    0.735724 0.267178 0.195827 0.200159
C32   C     C_3   0.565726 0.192266 0.274116 -0.830623
H10   H     H_    0.545200 0.135273 0.205656 0.221048
H11   H     H_    0.539747 0.134318 0.333403 0.227413
H12   H     H_    0.496301 0.276059 0.283843 0.251018
O11   O     O_3   0.968686 0.212927 0.178287 -0.616338
C33   C     C_3   0.011828 0.084087 0.167489 0.107328
H13   H     H_    0.992967 0.042063 0.237669 0.166476
H14   H     H_    0.123343 0.069258 0.139555 0.225254
C34   C     C_3   0.933655 0.012722 0.090689 -0.843599
H15   H     H_    0.954746 0.051054 0.019435 0.280546
H16   H     H_    0.968924 0.912675 0.080679 0.209744
H17   H     H_    0.819974 0.019511 0.113227 0.228087
O12   O     O_3   0.244528 0.231890 0.206820 -0.593140
C35   C     C_3   0.263454 0.305142 0.128387 0.056814
H18   H     H_    0.297389 0.399107 0.154511 0.182476
H19   H     H_    0.166271 0.315378 0.093369 0.198289
C36   C     C_3   0.374693 0.241874 0.050439 -0.748235
H20   H     H_    0.350477 0.143101 0.030517 0.259958
H21   H     H_    0.378920 0.290514 0.983584 0.225280
H22   H     H_    0.478047 0.245277 0.077923 0.237065
Br1   Br    Br    0.135411 0.674258 0.671461 -0.546916
O13   O     O_3   0.686521 0.489775 0.965203 -0.589933
C37   C     C_3   0.758412 0.597729 0.946400 0.039204
H23   H     H_    0.790702 0.645226 0.015424 0.135098
H24   H     H_    0.693223 0.665233 0.913302 0.147413
C38   C     C_3   0.887254 0.560996 0.874301 -0.714735
H25   H     H_    0.856205 0.527277 0.801537 0.276490
H26   H     H_    0.951500 0.643292 0.866978 0.230392
H27   H     H_    0.950029 0.485473 0.899652 0.242302
O14   O     O_3   0.734528 0.857480 0.413344 -0.549351
C39   C     C_3   0.717667 0.827552 0.313281 0.111669
H28   H     H_    0.711059 0.913778 0.276335 0.134524
H29   H     H_    0.622897 0.774109 0.303635 0.125727
C40   C     C_3   0.842073 0.746808 0.263320 -0.741161
H30   H     H_    0.854221 0.661702 0.300617 0.265440
H31   H     H_    0.825960 0.718549 0.185837 0.176373
H32   H     H_    0.937817 0.800122 0.265506 0.272444
Br2   Br    Br    0.185476 0.794062 0.393708 -0.521521
O15   O     O_3   0.035089 0.127802 0.693992 -0.551144
C41   C     C_3   0.985357 0.245804 0.673554 0.096261
H33   H     H_    0.990419 0.253918 0.593511 0.162362
H34   H     H_    0.046290 0.320950 0.707171 0.188995
C42   C     C_3   0.834688 0.267766 0.718516 -0.686815
H35   H     H_    0.828727 0.276863 0.799788 0.259062
H36   H     H_    0.790218 0.354474 0.695770 0.228898
H37   H     H_    0.772044 0.188656 0.693620 0.270128
Br3   Br    Br    0.319665 0.242327 0.726782 -0.567356
Br4   Br    Br    0.814207 0.110335 0.478179 -0.564144
O16   O     O_3   0.825675 0.637419 0.646673 -0.577534
C43   C     C_3   0.818202 0.767154 0.639364 0.108300
H38   H     H_    0.817872 0.788345 0.562671 0.208731
H39   H     H_    0.906532 0.813471 0.669668 0.184530
C44   C     C_3   0.687564 0.826129 0.701174 -0.726318
H40   H     H_    0.695569 0.818949 0.779978 0.229576
H41   H     H_    0.675743 0.926231 0.690380 0.216513
H42   H     H_    0.593870 0.778261 0.680569 0.240119

loop_
_geom_bond_atom_site_label_1
_geom_bond_atom_site_label_2
_geom_bond_distance
_ccdc_geom_bond_type
C32   H10   1.109874 S    
C34   H16   1.110332 S    
O15   C41   1.414797 S    
C28   N2    1.377011 A    
C24   H2    1.046857 S    
C43   H39   1.104085 S    
C42   H35   1.110668 S    
Cu1   Cu2   2.725223 S    
C30   H6    1.106564 S    
C37   H23   1.112117 S    
C29   H3    1.113546 S    
C5    C9    1.203701 T    
C15   C16   1.406753 A    
C25   C26   1.447959 A    
C33   C34   1.525188 S    
C17   C18   1.402555 A    
C24   C25   1.390449 A    
C38   H27   1.110276 S    
O4    C2    1.304886 A    
O7    C4    1.311009 A    
C39   C40   1.516050 S    
C33   H14   1.106511 S    
C23   C24   1.355365 A    
Cu1   N2    2.048569 S    
C25   N2    1.373929 A    
O5    C3    1.323300 A    
C36   H22   1.109284 S    
O14   C39   1.412141 S    
C29   H4    1.112664 S    
C6    C7    1.346923 D    
C44   H40   1.110574 S    
Cu2   N1    2.047625 S    
C21   C26   1.495448 A    
C31   C32   1.521756 S    
C39   H29   1.113651 S    
C11   C16   1.416777 A    
C34   H17   1.108743 S    
C15   C20   1.411070 A    
C22   O11   1.396881 S    
C6    O13   1.385021 S    
C11   C12   1.397491 A    
C44   H41   1.110958 S    
O3    Cu1   1.909680 S    
C43   H38   1.108602 S    
C42   H36   1.107924 S    
C31   H9    1.112270 S    
C22   C23   1.384954 A    
C30   H7    1.110545 S    
C37   H24   1.115389 S    
C6    C9    1.443619 S    
C26   N1    1.430437 A    
O12   C35   1.410801 S    
C13   C14   1.406828 A    
C18   O14   1.384606 S    
C38   H26   1.109957 S    
N1    C27   1.374313 A    
C36   H21   1.109698 S    
C35   H18   1.111248 S    
C41   C42   1.522093 S    
C14   C15   1.413981 A    
C39   H28   1.113561 S    
O10   C31   1.422046 S    
C33   H13   1.115293 S    
O1    C1    1.300406 A    
Cu1   O7    1.899698 S    
O9    C29   1.409088 S    
C7    O9    1.393607 S    
C21   O10   1.407322 S    
C18   C19   1.388118 A    
C28   Br1   1.921161 S    
C30   H5    1.109194 S    
C4    C5    1.431541 S    
C40   H32   1.110026 S    
Cu2   O8    1.909680 S    
C19   Br4   1.917099 S    
C7    C8    1.452874 S    
O13   C37   1.412680 S    
C41   H34   1.109745 S    
O3    C2    1.309677 A    
C27   C28   1.434457 A    
O8    C4    1.305851 A    
C32   H11   1.097940 S    
C44   H42   1.108344 S    
C12   C13   1.396639 A    
O16   C43   1.415319 S    
C42   H37   1.110102 S    
C31   H8    1.101676 S    
C37   C38   1.520448 S    
Cu1   O5    1.951104 S    
C1    C17   1.476873 S    
O1    Cu1   1.965846 S    
C3    C20   1.485143 S    
Cu2   O6    1.965846 S    
O2    Cu2   1.951105 S    
C40   H31   1.108820 S    
C38   H25   1.106775 S    
O6    C3    1.306011 A    
C23   O12   1.384928 S    
O4    Cu2   1.899697 S    
C29   C30   1.520004 S    
C2    C10   1.429943 S    
C21   C22   1.461546 A    
O2    C1    1.323254 A    
C36   H20   1.110822 S    
C13   O15   1.384539 S    
C27   O16   1.387626 S    
C14   Br3   1.918674 S    
C19   C20   1.416893 A    
C35   C36   1.522169 S    
C8    C10   1.202693 T    
C41   H33   1.114517 S    
C34   H15   1.110964 S    
O11   C33   1.425071 S    
C40   H30   1.111168 S    
C35   H19   1.112056 S    
C32   H12   1.095030 S    
C16   C17   1.420290 A    
C12   H1    1.080169 S    
C43   C44   1.523613 S    
C11   Br2   1.925659 S    
