data_mof_unit_39293.cif
_audit_creation_date              2013-03-05T16:01:09-0500
_audit_creation_method            fapswitch 2.2
_symmetry_space_group_name_H-M    P1
_symmetry_Int_Tables_number       1
_space_group_crystal_system       triclinic
_cell_length_a                    7.224614
_cell_length_b                    37.2492
_cell_length_c                    40.951203
_cell_angle_alpha                 90.194118
_cell_angle_beta                  90.435081
_cell_angle_gamma                 90.403814
_cell_volume                      11019.7662536

loop_
_atom_site_label
_atom_site_type_symbol
_atom_site_description
_atom_site_fract_x
_atom_site_fract_y
_atom_site_fract_z
_atom_type_partial_charge
O1    O     O_R   0.564240 0.782760 0.216890 -0.571402
O2    O     O_R   0.435760 0.217240 0.783110 -0.573186
O3    O     O_R   0.435760 0.217240 0.716890 -0.575217
O4    O     O_R   0.564240 0.782760 0.283110 -0.579358
O5    O     O_R   0.064240 0.717240 0.283110 -0.577985
O6    O     O_R   0.935760 0.282760 0.716890 -0.577402
O7    O     O_R   0.935760 0.282760 0.783110 -0.567405
O8    O     O_R   0.064240 0.717240 0.216890 -0.566930
O9    O     O_R   0.234510 0.787070 0.282870 -0.567499
O10   O     O_R   0.765490 0.212930 0.717130 -0.567831
O11   O     O_R   0.765490 0.212930 0.782870 -0.576773
O12   O     O_R   0.234510 0.787070 0.217130 -0.584742
O13   O     O_R   0.734510 0.712930 0.217130 -0.584169
O14   O     O_R   0.265490 0.287070 0.782870 -0.579924
O15   O     O_R   0.265490 0.287070 0.717130 -0.567663
O16   O     O_R   0.734510 0.712930 0.282870 -0.566041
C1    C     C_R   0.403429 0.795090 0.293965 1.002913
C2    C     C_R   0.596404 0.204775 0.706227 0.998970
C3    C     C_R   0.597658 0.204243 0.793302 1.000628
C4    C     C_R   0.402499 0.794747 0.205626 1.002687
C5    C     C_R   0.901920 0.704910 0.205809 0.999149
C6    C     C_R   0.096973 0.296199 0.793250 0.981387
C7    C     C_R   0.096875 0.295277 0.706295 0.998172
C8    C     C_R   0.903205 0.704779 0.293775 1.002550
O17   O     O_3   0.397750 0.727090 0.250000 -0.286362
O18   O     O_3   0.602250 0.272910 0.750000 -0.285399
O19   O     O_3   0.897750 0.772910 0.250000 -0.286373
O20   O     O_3   0.102250 0.227090 0.750000 -0.282502
V1    V     V_3+5 0.122890 0.754250 0.250000 1.269900
V2    V     V_3+5 0.877110 0.245750 0.750000 1.271845
V3    V     V_3+5 0.622890 0.745750 0.250000 1.272098
V4    V     V_3+5 0.377110 0.254250 0.750000 1.274996
C9    C     C_R   0.112422 0.599228 0.416532 0.500137
C10   C     C_R   0.894271 0.399095 0.582060 0.502703
C11   C     C_R   0.968984 0.393352 0.922962 0.501815
C12   C     C_R   0.072153 0.608017 0.076361 0.508276
C13   C     C_R   0.365817 0.889370 0.069765 0.504145
C14   C     C_R   0.651555 0.102459 0.923179 0.491035
C15   C     C_R   0.671952 0.104419 0.576094 0.503484
C16   C     C_R   0.384721 0.890026 0.429038 0.496261
O21   O     O_2   0.261459 0.619408 0.408776 -0.505460
O22   O     O_2   0.747241 0.377907 0.588768 -0.508289
O23   O     O_2   0.920839 0.358618 0.927194 -0.504133
O24   O     O_2   0.181739 0.637485 0.077553 -0.511097
O25   O     O_2   0.285523 0.857084 0.064256 -0.529339
O26   O     O_2   0.761768 0.131540 0.927372 -0.541078
O27   O     O_2   0.797034 0.131474 0.575334 -0.521283
O28   O     O_2   0.307105 0.857532 0.434363 -0.524586
N1    N     N_R   0.952064 0.601857 0.398415 -0.179523
N2    N     N_R   0.051228 0.397323 0.601145 -0.179727
N3    N     N_R   0.027615 0.404811 0.892953 -0.180371
N4    N     N_R   0.945675 0.602113 0.100597 -0.179312
N5    N     N_R   0.450332 0.896732 0.099354 -0.171558
N6    N     N_R   0.570285 0.095534 0.893251 -0.172974
N7    N     N_R   0.554350 0.101441 0.602080 -0.179552
N8    N     N_R   0.443414 0.898971 0.398279 -0.176989
C17   C     C_R   0.802254 0.580512 0.405770 0.477263
C18   C     C_R   0.200358 0.419129 0.594574 0.481718
C19   C     C_R   0.074248 0.440066 0.887895 0.470042
C20   C     C_R   0.831893 0.572519 0.099804 0.472420
C21   C     C_R   0.548542 0.928288 0.103315 0.463169
C22   C     C_R   0.478302 0.063486 0.888145 0.484801
C23   C     C_R   0.426980 0.074067 0.603518 0.482607
C24   C     C_R   0.516501 0.932391 0.392261 0.476281
C25   C     C_R   0.873433 0.618258 0.341108 -0.014968
C26   C     C_R   0.112824 0.382036 0.659211 -0.011940
C27   C     C_R   0.925791 0.377088 0.840742 -0.024763
C28   C     C_R   0.073223 0.630468 0.150548 -0.025132
C29   C     C_R   0.590746 0.863270 0.145949 0.009667
C30   C     C_R   0.613393 0.114044 0.835057 -0.013891
C31   C     C_R   0.632080 0.118176 0.658945 -0.019896
C32   C     C_R   0.332568 0.879502 0.343521 -0.022324
C33   C     C_R   0.857679 0.643751 0.316254 -0.232320
C34   C     C_R   0.127256 0.356833 0.684324 -0.232891
C35   C     C_R   0.943011 0.350268 0.816893 -0.169922
C36   C     C_R   0.061733 0.655652 0.175837 -0.138435
C37   C     C_R   0.575829 0.839482 0.172100 -0.124241
C38   C     C_R   0.614889 0.140658 0.810972 -0.238339
C39   C     C_R   0.643777 0.143726 0.683961 -0.217940
C40   C     C_R   0.323546 0.853936 0.318465 -0.214790
C41   C     C_R   0.983735 0.689929 0.352636 0.352016
C42   C     C_R   0.034109 0.309045 0.646645 0.356824
C43   C     C_R   0.210658 0.326420 0.845551 0.336467
C44   C     C_R   0.767108 0.676450 0.154001 0.337115
C45   C     C_R   0.259212 0.825563 0.156062 0.335951
C46   C     C_R   0.574207 0.186452 0.852603 0.329625
C47   C     C_R   0.519620 0.189327 0.647325 0.360952
C48   C     C_R   0.507751 0.812700 0.351231 0.354785
C49   C     C_R   0.990754 0.664140 0.377757 -0.133170
C50   C     C_R   0.025240 0.334762 0.621473 -0.130209
C51   C     C_R   0.193560 0.353795 0.869014 -0.175272
C52   C     C_R   0.778584 0.650304 0.129206 -0.162280
C53   C     C_R   0.268989 0.852985 0.132572 -0.181897
C54   C     C_R   0.549504 0.159200 0.875806 -0.155948
C55   C     C_R   0.508026 0.163090 0.622488 -0.137610
C56   C     C_R   0.520353 0.839288 0.375729 -0.151874
C57   C     C_R   0.938755 0.628144 0.372284 0.137910
C58   C     C_R   0.062573 0.371304 0.627446 0.139756
C59   C     C_R   0.050529 0.378853 0.867051 0.170106
C60   C     C_R   0.931579 0.627531 0.127157 0.156407
C61   C     C_R   0.436271 0.871231 0.126232 0.123609
C62   C     C_R   0.575840 0.122824 0.867815 0.130944
C63   C     C_R   0.563918 0.127668 0.628091 0.155443
C64   C     C_R   0.432616 0.872564 0.372254 0.143462
C65   C     C_R   0.976890 0.551868 0.449620 -0.059075
C66   C     C_R   0.030407 0.447188 0.549889 -0.059205
C67   C     C_R   0.011594 0.453507 0.944953 -0.067749
C68   C     C_R   0.974654 0.552906 0.049205 -0.065640
C69   C     C_R   0.471286 0.946333 0.047854 -0.062438
C70   C     C_R   0.533130 0.046297 0.944648 -0.075441
C71   C     C_R   0.536316 0.050831 0.551544 -0.062409
C72   C     C_R   0.479322 0.948729 0.449421 -0.074395
C73   C     C_R   0.123751 0.575500 0.443274 -0.081667
C74   C     C_R   0.884514 0.422981 0.555419 -0.091272
C75   C     C_R   0.959364 0.417506 0.949470 -0.086096
C76   C     C_R   0.087438 0.583698 0.050037 -0.086739
C77   C     C_R   0.364640 0.915045 0.044546 -0.080600
C78   C     C_R   0.622595 0.079324 0.949766 -0.065804
C79   C     C_R   0.663907 0.079317 0.550239 -0.084701
C80   C     C_R   0.403637 0.914558 0.455173 -0.076199
C81   C     C_R   0.272503 0.577126 0.465163 -0.166346
C82   C     C_R   0.740268 0.420679 0.532592 -0.150217
C83   C     C_R   0.908816 0.405885 0.980673 -0.145859
C84   C     C_R   0.216503 0.589105 0.025170 -0.147900
C85   C     C_R   0.253818 0.910411 0.016717 -0.150632
C86   C     C_R   0.671500 0.089684 0.981545 -0.150696
C87   C     C_R   0.784237 0.081672 0.523721 -0.148591
C88   C     C_R   0.356420 0.904921 0.487082 -0.149845
C89   C     C_R   0.813652 0.554698 0.430837 -0.053599
C90   C     C_R   0.191476 0.444662 0.569258 -0.060032
C91   C     C_R   0.067831 0.465032 0.913822 -0.043976
C92   C     C_R   0.845431 0.547201 0.074302 -0.042502
C93   C     C_R   0.570455 0.952237 0.077085 -0.034929
C94   C     C_R   0.467837 0.037645 0.913158 -0.044263
C95   C     C_R   0.416137 0.048183 0.578399 -0.047809
C96   C     C_R   0.533906 0.957927 0.417588 -0.048563
C97   C     C_R   0.913407 0.679498 0.321457 -0.246497
C98   C     C_R   0.087362 0.320427 0.678556 -0.246934
C99   C     C_R   0.085194 0.324622 0.818857 -0.269857
C100  C     C_R   0.909144 0.678824 0.178177 -0.280149
C101  C     C_R   0.411193 0.820202 0.177645 -0.293819
C102  C     C_R   0.592894 0.176930 0.819344 -0.252487
C103  C     C_R   0.586488 0.179195 0.678681 -0.253383
C104  C     C_R   0.412607 0.820695 0.321653 -0.256722
H1    H     H_    0.036610 0.672131 0.401951 0.182459
H2    H     H_    0.990598 0.326327 0.596838 0.179835
H3    H     H_    0.287217 0.354774 0.889788 0.166077
H4    H     H_    0.671577 0.648563 0.110582 0.175182
H5    H     H_    0.147442 0.858745 0.117977 0.188231
H6    H     H_    0.519390 0.166548 0.900771 0.192569
H7    H     H_    0.457947 0.170193 0.598390 0.173794
H8    H     H_    0.595221 0.833896 0.398163 0.182949
H9    H     H_    0.377657 0.597666 0.461840 0.181581
H10   H     H_    0.641136 0.398864 0.534511 0.180219
H11   H     H_    0.882138 0.377583 0.984663 0.176934
H12   H     H_    0.310349 0.611870 0.026838 0.173427
H13   H     H_    0.161328 0.887409 0.015358 0.174109
H14   H     H_    0.723863 0.116636 0.985861 0.173515
H15   H     H_    0.888910 0.102651 0.523669 0.174373
H16   H     H_    0.311914 0.877629 0.491933 0.174960
C105  C     C_R   0.166710 0.497747 0.519548 0.032048
C106  C     C_R   0.843983 0.501034 0.479797 0.060151
C107  C     C_R   0.892977 0.494685 0.024956 0.044108
C108  C     C_R   0.079008 0.513356 0.967632 0.047353
C109  C     C_R   0.422496 0.988079 0.965187 0.053470
C110  C     C_R   0.587732 0.003338 0.026241 0.036588
C111  C     C_R   0.587175 0.007458 0.469787 0.055873
C112  C     C_R   0.413625 0.994206 0.529563 0.033386
C113  C     C_R   0.862013 0.472674 0.502932 -0.037025
C114  C     C_R   0.150190 0.525958 0.496043 -0.026292
C115  C     C_R   0.100628 0.535983 0.995685 -0.010347
C116  C     C_R   0.931116 0.467302 0.001744 -0.007007
C117  C     C_R   0.580818 0.030808 0.002309 -0.013311
C118  C     C_R   0.383572 0.964913 0.992127 -0.014922
C119  C     C_R   0.426663 0.965669 0.506582 -0.017372
C120  C     C_R   0.630861 0.030322 0.496947 -0.019347
C121  C     C_R   0.017888 0.473072 0.524372 0.067116
C122  C     C_R   0.991839 0.525883 0.475023 0.067291
C123  C     C_R   0.990182 0.527813 0.023256 0.050737
C124  C     C_R   0.007639 0.478033 0.971534 0.044611
C125  C     C_R   0.511689 0.021701 0.970834 0.052941
C126  C     C_R   0.480407 0.971581 0.021964 0.050084
C127  C     C_R   0.498329 0.973918 0.475366 0.055421
C128  C     C_R   0.527741 0.025048 0.525979 0.053961
C129  C     C_R   0.333989 0.490884 0.536372 -0.246423
C130  C     C_R   0.675944 0.507413 0.463099 -0.255246
C131  C     C_R   0.752715 0.491137 0.048433 -0.235675
C132  C     C_R   0.116291 0.525068 0.935642 -0.206422
C133  C     C_R   0.383640 0.978398 0.932508 -0.205776
C134  C     C_R   0.707020 0.005574 0.053526 -0.220939
C135  C     C_R   0.620905 0.017276 0.437162 -0.202912
C136  C     C_R   0.281726 0.994169 0.554692 -0.224435
C137  C     C_R   0.344534 0.465965 0.561502 -0.094503
C138  C     C_R   0.662186 0.532929 0.438536 -0.091801
C139  C     C_R   0.730255 0.516799 0.072920 -0.095942
C140  C     C_R   0.113843 0.501248 0.909279 -0.096270
C141  C     C_R   0.397130 0.003182 0.907228 -0.101384
C142  C     C_R   0.692704 0.981440 0.079227 -0.091209
C143  C     C_R   0.599578 0.992723 0.411627 -0.102751
C144  C     C_R   0.284428 0.020424 0.579009 -0.086187
O29   O     O_2   0.358263 0.415830 0.612081 -0.523644
O30   O     O_2   0.641325 0.584488 0.389292 -0.521470
O31   O     O_2   0.707504 0.567376 0.123776 -0.559597
O32   O     O_2   0.129796 0.450813 0.858089 -0.556411
O33   O     O_2   0.393229 0.056699 0.859333 -0.566258
O34   O     O_2   0.622263 0.937114 0.132645 -0.571991
O35   O     O_2   0.575001 0.940788 0.362007 -0.558885
O36   O     O_2   0.310598 0.071975 0.629063 -0.549995
C145  C     C_R   0.277377 0.555811 0.493414 0.109324
C146  C     C_R   0.737241 0.442533 0.504712 0.106477
C147  C     C_R   0.901687 0.429780 0.007312 0.101934
C148  C     C_R   0.228777 0.565564 0.998290 0.109367
C149  C     C_R   0.251004 0.935867 0.991440 0.112787
C150  C     C_R   0.636096 0.067270 0.008295 0.103511
C151  C     C_R   0.773756 0.057442 0.497290 0.112818
C152  C     C_R   0.375810 0.929221 0.513265 0.104834
H17   H     H_    0.166464 0.365896 0.708598 0.127308
H18   H     H_    0.806109 0.635320 0.292504 0.128098
H19   H     H_    0.172559 0.656860 0.193780 0.152376
H20   H     H_    0.844533 0.349513 0.796818 0.142735
H21   H     H_    0.637591 0.133023 0.785770 0.125526
H22   H     H_    0.695592 0.835720 0.187741 0.172550
H23   H     H_    0.247939 0.860259 0.296293 0.137951
H24   H     H_    0.695917 0.135713 0.707703 0.127657
H25   H     H_    0.140527 0.410059 0.664550 0.133299
H26   H     H_    0.835033 0.590658 0.335968 0.135879
H27   H     H_    0.192516 0.613103 0.149176 0.133195
H28   H     H_    0.813788 0.396164 0.839011 0.123240
H29   H     H_    0.641707 0.086631 0.827986 0.153314
H30   H     H_    0.724122 0.875514 0.141278 0.161014
H31   H     H_    0.261726 0.904811 0.340532 0.138592
H32   H     H_    0.676736 0.090952 0.663510 0.125485
H33   H     H_    0.475705 0.462645 0.574087 0.176583
H34   H     H_    0.531136 0.535693 0.425801 0.174785
H35   H     H_    0.621960 0.512734 0.090703 0.166749
H36   H     H_    0.146848 0.511435 0.885261 0.169178
H37   H     H_    0.358491 0.994745 0.882757 0.168214
H38   H     H_    0.782161 0.985114 0.100341 0.167125
H39   H     H_    0.631353 0.001401 0.387071 0.170459
H40   H     H_    0.182145 0.018973 0.598170 0.165207
H41   H     H_    0.462766 0.502274 0.528784 0.144183
H42   H     H_    0.550862 0.493480 0.469346 0.149998
H43   H     H_    0.651134 0.469868 0.046758 0.129610
H44   H     H_    0.134465 0.553025 0.930156 0.134462
H45   H     H_    0.352879 0.951241 0.925617 0.136093
H46   H     H_    0.818894 0.024788 0.054534 0.129467
H47   H     H_    0.652009 0.044489 0.430595 0.133787
H48   H     H_    0.167966 0.975301 0.554583 0.127784
N9    N     N_R   0.048125 0.726040 0.359529 0.257542
O37   O     O_R   0.150655 0.732454 0.385195 -0.318877
O38   O     O_R   0.999760 0.753031 0.341370 -0.358144
N10   N     N_R   0.989761 0.272006 0.639094 0.258279
O39   O     O_R   0.901982 0.263887 0.612160 -0.319344
O40   O     O_R   0.044328 0.245934 0.657821 -0.365337
N11   N     N_R   0.345433 0.299041 0.850754 0.251215
O41   O     O_R   0.502435 0.306953 0.864908 -0.315430
O42   O     O_R   0.297943 0.265528 0.847006 -0.353668
N12   N     N_R   0.617145 0.701561 0.152929 0.241517
O43   O     O_R   0.453144 0.690972 0.143520 -0.359976
O44   O     O_R   0.650941 0.735826 0.155445 -0.328665
N13   N     N_R   0.102988 0.801388 0.155295 0.247756
O45   O     O_R   0.943329 0.812534 0.144751 -0.405828
O46   O     O_R   0.130033 0.766938 0.157073 -0.322055
N14   N     N_R   0.597487 0.222928 0.863686 0.268833
O47   O     O_R   0.542600 0.232199 0.892711 -0.296558
O48   O     O_R   0.704759 0.244915 0.847860 -0.332397
N15   N     N_R   0.468489 0.225823 0.639855 0.255747
O49   O     O_R   0.368457 0.232624 0.614070 -0.325390
O50   O     O_R   0.537548 0.252747 0.656330 -0.366749
N16   N     N_R   0.583310 0.777628 0.357694 0.254192
O51   O     O_R   0.699461 0.773271 0.381784 -0.326627
O52   O     O_R   0.514969 0.749142 0.343466 -0.359578
C153  C     C_3   0.394861 0.571183 0.521501 -0.407127
C154  C     C_3   0.279917 0.578275 0.552268 -0.233212
C155  C     C_3   0.399379 0.594380 0.579577 -0.896433
H49   H     H_    0.511759 0.575558 0.586382 0.262713
H50   H     H_    0.461176 0.620302 0.571699 0.264239
H51   H     H_    0.312725 0.599314 0.601394 0.253940
H52   H     H_    0.166728 0.597276 0.546262 0.201537
H53   H     H_    0.215786 0.553214 0.561467 0.214143
H54   H     H_    0.520404 0.555507 0.526736 0.181750
H55   H     H_    0.454054 0.597655 0.514363 0.188775
C156  C     C_3   0.639050 0.426316 0.474953 -0.434685
C157  C     C_3   0.427665 0.423070 0.478821 -0.258152
C158  C     C_3   0.337631 0.406451 0.448490 -0.885000
H56   H     H_    0.364790 0.423439 0.426779 0.260585
H57   H     H_    0.392551 0.379084 0.444151 0.267182
H58   H     H_    0.185598 0.404480 0.452017 0.251140
H59   H     H_    0.392935 0.406085 0.500169 0.208975
H60   H     H_    0.365299 0.449663 0.482729 0.206756
H61   H     H_    0.674221 0.440486 0.452060 0.203265
H62   H     H_    0.694678 0.398819 0.471335 0.198807
C159  C     C_3   0.898420 0.412965 0.041251 -0.412566
C160  C     C_3   0.076137 0.421783 0.060609 -0.237738
C161  C     C_3   0.077258 0.403181 0.093748 -0.891365
H63   H     H_    0.957694 0.412150 0.108516 0.265049
H64   H     H_    0.070217 0.373578 0.090540 0.264084
H65   H     H_    0.206999 0.410118 0.107121 0.249910
H66   H     H_    0.198529 0.412836 0.046514 0.198555
H67   H     H_    0.089120 0.451149 0.064779 0.209170
H68   H     H_    0.774847 0.420328 0.055325 0.184810
H69   H     H_    0.888626 0.383223 0.039190 0.191136
C162  C     C_3   0.393381 0.571467 0.975736 -0.411046
C163  C     C_3   0.518561 0.538352 0.973079 -0.235589
C164  C     C_3   0.639868 0.540457 0.942832 -0.880038
H70   H     H_    0.553411 0.544056 0.920551 0.262457
H71   H     H_    0.739772 0.563144 0.945113 0.260529
H72   H     H_    0.716725 0.515015 0.940045 0.258834
H73   H     H_    0.607903 0.536853 0.995190 0.203553
H74   H     H_    0.437995 0.512992 0.971746 0.209778
H75   H     H_    0.348280 0.581477 0.951670 0.186612
H76   H     H_    0.483009 0.593726 0.985020 0.181382
C165  C     C_3   0.090302 0.932195 0.967148 -0.414058
C166  C     C_3   0.974472 0.966564 0.963870 -0.231486
C167  C     C_3   0.864705 0.966345 0.931916 -0.878452
H77   H     H_    0.958967 0.963219 0.910807 0.260653
H78   H     H_    0.761642 0.944080 0.931808 0.260955
H79   H     H_    0.791994 0.992214 0.929089 0.258547
H80   H     H_    0.877184 0.968381 0.984699 0.197128
H81   H     H_    0.061057 0.991194 0.964507 0.211328
H82   H     H_    0.137195 0.921612 0.943437 0.185388
H83   H     H_    0.992052 0.910912 0.975197 0.181247
C168  C     C_3   0.621987 0.085759 0.041561 -0.415358
C169  C     C_3   0.427469 0.081505 0.056059 -0.234638
C170  C     C_3   0.410432 0.102093 0.088161 -0.888872
H84   H     H_    0.511819 0.091883 0.106360 0.265993
H85   H     H_    0.435442 0.131209 0.084216 0.264292
H86   H     H_    0.268789 0.098421 0.098008 0.249463
H87   H     H_    0.322806 0.091801 0.038447 0.201936
H88   H     H_    0.395862 0.052805 0.060794 0.209286
H89   H     H_    0.728882 0.077114 0.059133 0.183193
H90   H     H_    0.648640 0.115062 0.038960 0.191212
C171  C     C_3   0.929415 0.060314 0.472403 -0.411625
C172  C     C_3   0.036730 0.025117 0.467898 -0.233435
C173  C     C_3   0.133161 0.024348 0.434911 -0.874748
H91   H     H_    0.030849 0.027595 0.414774 0.260858
H92   H     H_    0.238417 0.046156 0.433603 0.261338
H93   H     H_    0.201626 0.998112 0.431564 0.257235
H94   H     H_    0.141834 0.022820 0.487663 0.199171
H95   H     H_    0.946183 0.001095 0.469503 0.209625
H96   H     H_    0.878392 0.071483 0.449128 0.186242
H97   H     H_    0.033555 0.080781 0.480287 0.178544
C174  C     C_3   0.375354 0.913125 0.547509 -0.414496
C175  C     C_3   0.563672 0.918190 0.564671 -0.233766
C176  C     C_3   0.566088 0.900189 0.598086 -0.895368
H98   H     H_    0.458514 0.912025 0.614009 0.265037
H99   H     H_    0.540427 0.870875 0.595509 0.264347
H100  H     H_    0.703582 0.904369 0.609850 0.249940
H101  H     H_    0.674296 0.906321 0.549387 0.200355
H102  H     H_    0.595427 0.947148 0.568150 0.207941
H103  H     H_    0.262568 0.923402 0.562830 0.183608
H104  H     H_    0.347453 0.883747 0.546116 0.189746

loop_
_geom_bond_atom_site_label_1
_geom_bond_atom_site_label_2
_geom_bond_distance
_ccdc_geom_bond_type
C69   C126  1.421218 A    
C112  C119  1.421416 A    
N11   O42   1.300586 A    
C32   H31   1.082726 S    
C135  H47   1.072328 S    
C10   O22   1.349368 S    
C20   C92   1.409182 A    
C21   C93   1.407751 A    
O15   V4    1.991308 S    
C171  C172  1.539137 S    
O16   V3    1.991305 S    
C163  H74   1.107040 S    
C19   C91   1.410334 A    
C114  C122  1.426444 A    
N10   O40   1.300965 A    
C157  C158  1.525102 S    
C66   C90   1.407160 A    
C154  C155  1.526073 S    
C151  C171  1.526834 S    
C141  H37   1.083211 S    
C172  H94   1.109541 S    
C169  C170  1.525913 S    
C17   O30   1.349165 S    
C11   C75   1.410009 A    
C66   C121  1.426995 A    
C21   O34   1.348916 S    
C36   C100  1.408519 A    
C157  H60   1.102796 S    
C68   C92   1.409340 A    
C166  H81   1.106890 S    
C70   C78   1.400057 A    
C138  H34   1.083159 S    
C46   N14   1.439385 S    
N6    C62   1.458508 S    
C75   C83   1.400735 A    
C69   C93   1.406276 A    
C168  C169  1.537114 S    
C39   H24   1.083620 S    
C53   C61   1.408658 A    
C72   C80   1.403120 A    
C166  C167  1.524895 S    
C15   O27   1.349438 S    
C6    C99   1.490949 S    
O10   V2    1.978690 S    
C162  C163  1.538708 S    
C174  H104  1.112503 S    
O12   C4    1.334681 A    
C30   C62   1.408510 A    
O13   C5    1.334048 A    
C176  H100  1.110450 S    
C107  C116  1.421697 A    
O6    V2    1.982841 S    
C23   O36   1.349211 S    
C56   C64   1.403309 A    
C11   N3    1.371392 A    
N16   O52   1.301216 A    
C12   O24   1.349392 S    
C13   O25   1.349095 S    
C111  C135  1.408961 A    
C162  H75   1.102628 S    
C133  C141  1.392952 A    
C120  C128  1.421307 A    
C175  H101  1.112053 S    
O1    C4    1.333464 A    
O2    C3    1.333642 A    
C108  C132  1.409489 A    
C29   C61   1.406407 A    
C156  H62   1.112747 S    
C54   H6    1.081577 S    
O7    C6    1.327617 A    
C43   C51   1.405436 A    
C112  C136  1.407797 A    
C118  C149  1.439977 A    
C119  C152  1.431814 A    
C169  H87   1.112082 S    
C153  H54   1.102231 S    
C158  H57   1.110744 S    
C40   H23   1.083500 S    
C87   C151  1.408204 A    
C106  C113  1.427342 A    
C33   C97   1.403488 A    
O10   C2    1.330199 A    
C26   H25   1.082741 S    
C136  C144  1.393314 A    
C37   C101  1.405438 A    
N1    C57   1.456006 S    
C173  H91   1.110738 S    
C13   C77   1.409967 A    
C54   C62   1.407446 A    
C42   C98   1.421912 A    
N10   O39   1.301760 A    
O17   V3    1.764326 S    
C24   C96   1.409255 A    
O18   V4    1.764327 S    
O12   V1    1.992608 S    
O19   V1    1.773336 S    
C29   C37   1.396606 A    
C110  C126  1.419444 A    
C90   C137  1.395698 A    
C118  C126  1.423557 A    
C51   H3    1.083310 S    
C161  H64   1.110810 S    
C49   H1    1.082407 S    
N9    O37   1.301738 A    
C1    C104  1.479997 S    
C146  C156  1.526159 S    
C65   C73   1.400253 A    
C2    C103  1.475145 S    
N13   O45   1.299897 A    
C36   H19   1.083216 S    
C56   H8    1.082673 S    
O1    V3    1.982593 S    
N1    C17   1.374317 A    
O2    V4    1.982590 S    
C170  H85   1.110807 S    
N4    C20   1.370623 A    
C45   C53   1.407267 A    
C19   O32   1.348921 S    
C39   C103  1.404240 A    
C70   C125  1.421458 A    
N14   O47   1.302131 A    
C40   C104  1.405446 A    
N7    C23   1.370388 A    
N8    C24   1.372583 A    
C86   C150  1.403540 A    
C12   N4    1.371409 A    
C13   N5    1.378518 A    
C115  C123  1.420095 A    
C170  H84   1.110920 S    
C85   C149  1.406290 A    
C72   C96   1.407549 A    
C113  C121  1.422657 A    
C55   C63   1.401676 A    
C153  C154  1.537422 S    
C24   O35   1.349146 S    
C134  H46   1.076264 S    
C154  H52   1.111940 S    
C155  H51   1.110396 S    
N2    C58   1.453600 S    
C45   C101  1.419943 A    
C52   C60   1.400887 A    
C172  C173  1.524884 S    
C109  C118  1.431278 A    
N4    C60   1.444248 S    
C68   C123  1.418430 A    
C47   C55   1.409769 A    
C28   C60   1.399850 A    
C159  C160  1.536764 S    
C120  C151  1.439246 A    
C147  C159  1.526638 S    
C88   C152  1.406408 A    
C171  H97   1.112673 S    
C42   N10   1.446069 S    
C107  C123  1.417715 A    
O14   C6    1.338384 A    
C70   C94   1.405371 A    
C27   C35   1.401552 A    
C159  H68   1.102117 S    
C12   C76   1.411181 A    
C173  H92   1.110503 S    
C166  H80   1.111561 S    
C31   C63   1.400028 A    
C167  H79   1.106746 S    
C4    C101  1.491160 S    
C130  C138  1.389711 A    
C143  H39   1.083108 S    
C10   N2    1.374411 A    
N15   O49   1.301644 A    
C8    C97   1.477893 S    
C28   C36   1.398274 A    
C9    C73   1.411888 A    
C136  H48   1.077617 S    
C26   C58   1.403906 A    
N12   O43   1.301285 A    
C30   H29   1.081769 S    
C160  H66   1.112082 S    
C32   C40   1.398351 A    
C153  H55   1.112899 S    
C115  C148  1.437338 A    
C15   C79   1.410753 A    
C113  C146  1.437262 A    
C33   H18   1.083571 S    
C14   O26   1.349592 S    
C172  H95   1.107123 S    
C37   H22   1.082809 S    
C73   C81   1.395053 A    
C175  C176  1.525880 S    
C156  C157  1.540506 S    
C168  H90   1.112656 S    
C44   C52   1.407870 A    
C51   C59   1.399397 A    
C77   C85   1.397278 A    
C47   N15   1.444376 S    
C79   C87   1.398822 A    
C94   C141  1.398065 A    
C48   C56   1.409304 A    
C152  C174  1.527031 S    
C150  C168  1.528790 S    
C52   H4    1.083322 S    
C7    C98   1.476357 S    
C53   H5    1.081617 S    
C155  H49   1.111008 S    
C165  H83   1.112798 S    
C116  C147  1.431583 A    
C43   C99   1.415859 A    
C89   C138  1.396007 A    
C69   C77   1.398194 A    
C83   H11   1.083533 S    
C41   C97   1.422485 A    
C34   C98   1.403261 A    
O11   C3    1.326908 A    
C81   H9    1.084051 S    
C38   C102  1.403192 A    
C160  C161  1.525840 S    
C85   H13   1.083861 S    
C9    N1    1.375228 A    
C105  C129  1.411893 A    
C142  H38   1.083270 S    
C15   N7    1.371046 A    
O11   V2    1.992605 S    
N5    C61   1.459987 S    
C16   N8    1.373449 A    
C174  H103  1.102112 S    
C92   C139  1.401296 A    
C109  C133  1.410403 A    
C176  H99   1.110811 S    
C148  C162  1.526433 S    
C108  C124  1.419752 A    
C27   C59   1.400438 A    
C41   C49   1.410761 A    
C116  C124  1.416548 A    
C117  C125  1.417998 A    
C167  H77   1.110840 S    
O7    V2    1.972020 S    
C44   C100  1.422566 A    
C139  H35   1.083126 S    
C84   C148  1.408748 A    
C137  H33   1.083345 S    
C72   C127  1.420312 A    
C163  H73   1.109769 S    
C175  H102  1.109691 S    
N2    C18   1.373493 A    
N8    C64   1.449160 S    
C131  H43   1.077788 S    
C165  H82   1.103341 S    
C95   C144  1.400673 A    
C129  H41   1.068570 S    
C32   C64   1.401988 A    
C156  H61   1.107779 S    
C31   C39   1.397624 A    
C43   N11   1.430340 S    
C144  H40   1.083150 S    
C158  H56   1.110927 S    
C14   N6    1.377719 A    
O4    C1    1.331276 A    
C48   N16   1.443937 S    
C16   C80   1.410186 A    
C157  H59   1.110126 S    
C3    C102  1.476828 S    
C132  H44   1.073468 S    
C55   H7    1.082806 S    
O8    V1    1.972023 S    
C161  H63   1.110925 S    
C134  C142  1.390460 A    
C130  H42   1.072021 S    
C44   N12   1.436848 S    
C110  C117  1.420151 A    
C76   C84   1.400066 A    
O13   V3    1.993985 S    
O14   V4    1.993983 S    
C173  H93   1.106980 S    
C80   C88   1.400315 A    
C167  H78   1.110622 S    
N6    C22   1.376741 A    
C42   C50   1.411009 A    
C9    O21   1.349318 S    
C68   C76   1.402428 A    
C117  C150  1.432762 A    
N15   O50   1.301218 A    
C71   C95   1.409611 A    
C165  C166  1.540074 S    
C140  H36   1.083096 S    
C35   H20   1.083273 S    
C18   C90   1.410684 A    
C25   H26   1.082519 S    
O3    V4    1.980604 S    
O4    V3    1.980601 S    
C14   C78   1.406794 A    
N14   O48   1.301417 A    
C164  H70   1.110839 S    
N16   O51   1.301595 A    
C35   C99   1.409728 A    
C5    C100  1.490454 S    
C162  H76   1.112585 S    
C26   C34   1.398597 A    
C174  C175  1.536731 S    
C93   C142  1.398435 A    
C67   C124  1.419300 A    
C30   C38   1.400806 A    
C91   C140  1.400459 A    
C65   C122  1.427375 A    
C28   H27   1.082894 S    
C41   N9    1.446367 S    
O5    C8    1.327107 A    
C66   C74   1.402468 A    
C154  H53   1.107683 S    
C17   C89   1.411254 A    
C155  H50   1.110830 S    
C135  C143  1.393826 A    
C158  H58   1.110873 S    
C169  H88   1.109616 S    
N7    C63   1.443844 S    
C25   C33   1.398892 A    
O3    C2    1.329332 A    
C107  C131  1.407972 A    
C16   O28   1.349473 S    
C96   C143  1.399930 A    
C46   C54   1.404177 A    
C111  C127  1.420525 A    
C18   O29   1.349328 S    
C112  C128  1.417992 A    
C83   C147  1.407074 A    
C129  C137  1.390238 A    
C31   H32   1.082758 S    
C81   C145  1.405711 A    
C22   O33   1.348538 S    
O9    V1    1.978687 S    
O15   C7    1.331267 A    
C171  H96   1.103172 S    
O16   C8    1.332242 A    
C82   H10   1.082829 S    
N5    C21   1.377159 A    
C161  H65   1.110455 S    
O5    V1    1.982838 S    
C86   H14   1.083835 S    
N3    C59   1.444078 S    
N9    O38   1.300732 A    
C106  C122  1.423539 A    
C133  H45   1.070642 S    
C46   C102  1.413948 A    
C67   C91   1.408467 A    
N13   O46   1.301563 A    
C65   C89   1.407864 A    
C164  H71   1.110713 S    
C49   C57   1.406703 A    
C110  C134  1.407777 A    
C23   C95   1.408858 A    
C170  H86   1.110470 S    
N12   O44   1.301360 A    
C160  H67   1.109723 S    
C20   O31   1.349164 S    
C106  C130  1.410830 A    
C164  H72   1.107740 S    
C82   C146  1.404561 A    
O8    C5    1.332294 A    
C67   C75   1.403746 A    
C105  C114  1.432448 A    
C71   C79   1.402065 A    
O9    C1    1.330612 A    
C163  C164  1.524687 S    
C145  C153  1.531363 S    
C84   H12   1.083603 S    
N3    C19   1.370259 A    
N11   O41   1.301372 A    
C87   H15   1.083632 S    
C11   O23   1.349496 S    
C88   H16   1.083553 S    
C131  C139  1.394168 A    
C119  C127  1.416728 A    
C45   N13   1.438995 S    
C10   C74   1.411791 A    
C109  C125  1.421839 A    
C22   C94   1.410092 A    
O20   V2    1.773336 S    
C159  H69   1.112478 S    
C25   C57   1.404791 A    
C50   H2    1.082601 S    
C29   H30   1.081801 S    
C114  C145  1.442338 A    
C27   H28   1.082696 S    
O6    C7    1.327375 A    
C34   H17   1.083688 S    
C71   C128  1.419023 A    
C48   C104  1.421620 A    
C168  H89   1.102088 S    
C149  C165  1.528231 S    
C38   H21   1.083601 S    
C74   C82   1.396630 A    
C132  C140  1.394994 A    
C108  C115  1.429484 A    
C78   C86   1.398248 A    
C47   C103  1.421673 A    
C176  H98   1.110929 S    
C105  C121  1.424924 A    
C50   C58   1.406031 A    
C111  C120  1.430544 A    
