data_mof_unit_31790.cif
_audit_creation_date              2012-12-10T18:04:37-0500
_audit_creation_method            fapswitch 2.2
_symmetry_space_group_name_H-M    P1
_symmetry_Int_Tables_number       1
_space_group_crystal_system       triclinic
_cell_length_a                    18.851852
_cell_length_b                    17.920597
_cell_length_c                    12.753806
_cell_angle_alpha                 89.683127
_cell_angle_beta                  100.007207
_cell_angle_gamma                 90.491539
_cell_volume                      4242.95561255

loop_
_atom_site_label
_atom_site_type_symbol
_atom_type_description
_atom_site_fract_x
_atom_site_fract_y
_atom_site_fract_z
_atom_type_partial_charge
C1    C     C_R   0.408537 0.100131 0.442540 0.867680
C2    C     C_R   0.411300 0.897230 0.444541 0.815623
C3    C     C_R   0.908538 0.600131 0.442540 0.867319
C4    C     C_R   0.911298 0.397232 0.444538 0.815669
C5    C     C_R   0.706700 0.249536 0.492845 -0.035499
C6    C     C_R   0.702597 0.740879 0.506143 -0.073636
C7    C     C_R   0.206685 0.749564 0.492863 -0.035565
C8    C     C_R   0.202595 0.240877 0.506142 -0.073637
C9    C     C_R   0.664003 0.314477 0.494935 -0.158175
C10   C     C_R   0.679071 0.681283 0.565833 -0.122870
C11   C     C_R   0.163993 0.814511 0.494923 -0.158263
C12   C     C_R   0.179070 0.181282 0.565836 -0.122877
C13   C     C_R   0.186620 0.882288 0.454892 0.486113
C14   C     C_R   0.209386 0.110445 0.561300 0.510888
C15   C     C_R   0.686617 0.382261 0.454907 0.486090
C16   C     C_R   0.709385 0.610446 0.561293 0.510826
C17   C     C_R   0.256320 0.887320 0.431542 -0.332095
C18   C     C_R   0.266779 0.102068 0.506069 -0.336978
C19   C     C_R   0.756314 0.387306 0.431548 -0.332122
C20   C     C_R   0.766779 0.602069 0.506063 -0.336948
C21   C     C_R   0.686773 0.184236 0.540633 -0.196699
C22   C     C_R   0.680429 0.812739 0.523586 -0.262400
C23   C     C_R   0.186739 0.684272 0.540654 -0.196579
C24   C     C_R   0.180427 0.312737 0.523582 -0.262402
C25   C     C_R   0.576924 0.241822 0.573954 0.291452
C26   C     C_R   0.594445 0.764709 0.628709 0.299868
C27   C     C_R   0.076861 0.741869 0.573857 0.291615
C28   C     C_R   0.094446 0.264709 0.628711 0.299867
C29   C     C_R   0.370394 0.829143 0.417039 -0.048167
C30   C     C_R   0.355222 0.157425 0.406460 -0.064722
C31   C     C_R   0.870395 0.329144 0.417030 -0.048195
C32   C     C_R   0.855225 0.657428 0.406463 -0.064700
C33   C     C_R   0.646269 0.027220 0.142826 0.612474
C34   C     C_R   0.146270 0.527217 0.142827 0.612467
C35   C     C_R   0.376049 0.998776 0.760687 -0.225735
C36   C     C_R   0.876049 0.498779 0.760687 -0.225753
C37   C     C_R   0.348722 0.013948 0.853325 0.307327
C38   C     C_R   0.848723 0.513953 0.853325 0.307321
C39   C     C_R   0.587064 0.895907 0.554632 0.903582
C40   C     C_R   0.586670 0.104567 0.553756 0.932653
C41   C     C_R   0.087064 0.395907 0.554632 0.903660
C42   C     C_R   0.086646 0.604585 0.553739 0.932249
C43   C     C_R   0.396767 0.027579 0.946946 0.742966
C44   C     C_R   0.896768 0.527582 0.946946 0.742985
C45   C     C_R   0.471494 0.016161 0.952169 -0.239612
C46   C     C_R   0.971495 0.516160 0.952169 -0.239609
C47   C     C_R   0.497381 0.008485 0.855108 0.091774
C48   C     C_R   0.997381 0.508483 0.855108 0.091799
C49   C     C_R   0.521563 0.013988 0.049372 -0.054923
C50   C     C_R   0.021563 0.513987 0.049372 -0.054929
C51   C     C_R   0.595979 0.024509 0.048246 -0.116156
C52   C     C_R   0.095980 0.524506 0.048246 -0.116160
C53   C     C_R   0.620242 0.027002 0.952806 -0.255127
C54   C     C_R   0.120243 0.526998 0.952806 -0.255088
C55   C     C_R   0.573546 0.012050 0.858040 0.496331
C56   C     C_R   0.073547 0.512048 0.858040 0.496421
C57   C     C_R   0.501663 0.997291 0.147765 0.549905
C58   C     C_R   0.001663 0.497291 0.147765 0.549907
C59   C     C_R   0.622590 0.015547 0.237653 -0.109393
C60   C     C_R   0.122590 0.515545 0.237653 -0.109398
C61   C     C_R   0.599782 0.309813 0.537145 0.718497
C62   C     C_R   0.625681 0.694450 0.628467 0.715386
C63   C     C_R   0.099757 0.809860 0.537094 0.718605
C64   C     C_R   0.125682 0.194451 0.628472 0.715395
C65   C     C_R   0.619974 0.177773 0.570981 -0.297216
C66   C     C_R   0.623243 0.824765 0.576375 -0.266200
C67   C     C_R   0.119920 0.677811 0.570940 -0.297149
C68   C     C_R   0.123242 0.324765 0.576374 -0.266236
C69   C     C_R   0.407190 0.765845 0.392974 -0.235302
C70   C     C_R   0.371491 0.212447 0.335645 -0.223323
C71   C     C_R   0.907194 0.265854 0.392940 -0.235292
C72   C     C_R   0.871498 0.712452 0.335654 -0.223310
C73   C     C_R   0.373271 0.696562 0.386480 -0.186315
C74   C     C_R   0.324900 0.271569 0.307445 -0.069497
C75   C     C_R   0.873277 0.196570 0.386420 -0.186332
C76   C     C_R   0.824909 0.771577 0.307457 -0.069458
C77   C     C_R   0.304293 0.688555 0.413218 0.470008
C78   C     C_R   0.263977 0.279490 0.354484 0.442204
C79   C     C_R   0.804300 0.188552 0.413156 0.470010
C80   C     C_R   0.763985 0.779497 0.354493 0.442209
C81   C     C_R   0.269556 0.752538 0.446425 0.092935
C82   C     C_R   0.251598 0.228258 0.436025 0.014320
C83   C     C_R   0.769562 0.252525 0.446389 0.092933
C84   C     C_R   0.751602 0.728262 0.436028 0.014307
C85   C     C_R   0.299051 0.823497 0.432512 -0.009308
C86   C     C_R   0.291529 0.162001 0.449717 0.028295
C87   C     C_R   0.799051 0.323489 0.432498 -0.009319
C88   C     C_R   0.791531 0.662004 0.449717 0.028301
H1    H     H_    0.677489 0.033214 0.952509 0.209606
H2    H     H_    0.177490 0.533208 0.952509 0.209603
H3    H     H_    0.340049 0.991084 0.685751 0.159033
H4    H     H_    0.840049 0.491089 0.685751 0.159049
H5    H     H_    0.720416 0.135339 0.549123 0.221742
H6    H     H_    0.705284 0.860462 0.491662 0.230542
H7    H     H_    0.220387 0.635378 0.549185 0.221741
H8    H     H_    0.205281 0.360459 0.491654 0.230544
H9    H     H_    0.462549 0.769990 0.380615 0.170967
H10   H     H_    0.420187 0.209512 0.301573 0.191283
H11   H     H_    0.962552 0.270006 0.380581 0.170977
H12   H     H_    0.920195 0.709518 0.301587 0.191280
H13   H     H_    0.401464 0.648767 0.362906 0.177222
H14   H     H_    0.335852 0.311291 0.247857 0.192802
H15   H     H_    0.901471 0.148782 0.362826 0.177224
H16   H     H_    0.835864 0.811300 0.247875 0.192801
H17   H     H_    0.275986 0.940457 0.407336 0.130827
H18   H     H_    0.290793 0.047726 0.505710 0.137542
H19   H     H_    0.775974 0.440450 0.407354 0.130839
H20   H     H_    0.790792 0.547727 0.505701 0.137580
H21   H     H_    0.659831 0.018654 0.312270 0.218687
H22   H     H_    0.159832 0.518653 0.312270 0.218685
N1    N     N_R   0.552340 0.000000 0.237260 -0.214247
N2    N     N_R   0.052340 0.500000 0.237260 -0.214245
N3    N     N_R   0.448170 0.000000 0.762060 -0.110597
N4    N     N_R   0.948170 0.500000 0.762060 -0.110601
O1    O     O_R   0.448200 0.076800 0.373930 -0.631521
O2    O     O_R   0.448200 0.923200 0.373930 -0.605204
O3    O     O_R   0.948200 0.576800 0.373930 -0.631463
O4    O     O_R   0.948200 0.423200 0.373930 -0.605202
O5    O     O_R   0.414750 0.076790 0.542400 -0.605975
O6    O     O_R   0.414750 0.923210 0.542400 -0.621064
O7    O     O_R   0.914750 0.576790 0.542400 -0.606240
O8    O     O_R   0.914750 0.423210 0.542400 -0.621032
O9    O     O_R   0.585240 0.923200 0.457600 -0.611179
O10   O     O_R   0.585240 0.076800 0.457600 -0.590828
O11   O     O_R   0.085240 0.423200 0.457600 -0.611159
O12   O     O_R   0.085240 0.576800 0.457600 -0.590753
O13   O     O_R   0.551780 0.923190 0.626070 -0.518523
O14   O     O_R   0.551780 0.076810 0.626070 -0.565195
O15   O     O_R   0.051780 0.423190 0.626070 -0.518504
O16   O     O_R   0.051780 0.576810 0.626070 -0.565266
Zn1   Zn    Zn3+2 0.522330 0.000000 0.387520 0.975077
Zn2   Zn    Zn3+2 0.022330 0.500000 0.387520 0.975079
Zn3   Zn    Zn3+2 0.477660 0.000000 0.612480 0.998384
Zn4   Zn    Zn3+2 0.977660 0.500000 0.612480 0.998293
O17   O     O_3   0.510367 0.239819 0.605057 -0.701164
H23   H     H_    0.508021 0.196288 0.652147 0.358720
O18   O     O_3   0.535151 0.771242 0.677745 -0.669776
H24   H     H_    0.499820 0.803691 0.633079 0.341234
O19   O     O_3   0.010273 0.739908 0.604875 -0.701151
H25   H     H_    0.007704 0.696162 0.651509 0.358700
O20   O     O_3   0.035152 0.271244 0.677749 -0.669783
H26   H     H_    0.999820 0.303691 0.633085 0.341237
F1    F     F_    0.717533 0.039690 0.143369 -0.638265
F2    F     F_    0.217534 0.539686 0.143370 -0.638258
O21   O     O_3   0.433864 0.970926 0.153216 -0.691222
H27   H     H_    0.420395 0.992057 0.218106 0.388267
O22   O     O_3   0.933863 0.470927 0.153216 -0.691230
H28   H     H_    0.920395 0.492058 0.218107 0.388272
F3    F     F_    0.370139 0.059490 0.028143 -0.595216
F4    F     F_    0.870141 0.559494 0.028143 -0.595209
O23   O     O_3   0.275944 0.018461 0.854487 -0.638888
H29   H     H_    0.249618 0.997260 0.787309 0.363668
O24   O     O_3   0.775945 0.518471 0.854486 -0.638899
H30   H     H_    0.749617 0.497281 0.787302 0.363677
O25   O     O_3   0.603737 0.997824 0.770699 -0.700769
H31   H     H_    0.657089 0.001441 0.786802 0.318420
O26   O     O_3   0.103738 0.497824 0.770698 -0.700712
H32   H     H_    0.157090 0.501438 0.786802 0.318431
O27   O     O_3   0.140800 0.942648 0.440134 -0.657741
H33   H     H_    0.163609 0.983536 0.404783 0.333814
O28   O     O_3   0.184109 0.050886 0.613617 -0.645583
H34   H     H_    0.212796 0.006049 0.604700 0.321599
O29   O     O_3   0.640787 0.442613 0.440167 -0.657728
H35   H     H_    0.663583 0.483501 0.404792 0.333813
O30   O     O_3   0.684104 0.550885 0.613601 -0.645596
H36   H     H_    0.712791 0.506049 0.604681 0.321611
F5    F     F_    0.557843 0.370644 0.541342 -0.539674
F6    F     F_    0.599948 0.638574 0.684168 -0.531205
F7    F     F_    0.057818 0.870700 0.541253 -0.539612
F8    F     F_    0.099950 0.138576 0.684177 -0.531197
O31   O     O_3   0.768220 0.120989 0.397771 -0.776905
H37   H     H_    0.799863 0.083474 0.372870 0.365394
O32   O     O_3   0.715442 0.833473 0.312168 -0.759994
H38   H     H_    0.666471 0.815573 0.318560 0.345141
O33   O     O_3   0.268211 0.620991 0.397857 -0.776911
H39   H     H_    0.299854 0.583469 0.372972 0.365366
O34   O     O_3   0.215433 0.333466 0.312158 -0.759994
H40   H     H_    0.166463 0.315565 0.318555 0.345139

loop_
_geom_bond_atom_site_label_1
_geom_bond_atom_site_label_2
_ccdc_geom_bond_type
C76   H16   S    
C62   F6    S    
O31   H37   S    
O26   H32   S    
C57   O21   S    
C78   O34   S    
C14   C18   A    
C53   C55   A    
C83   C87   A    
O29   H35   S    
C72   C76   A    
C26   O18   S    
C36   N4    A    
O28   H34   S    
C39   O9    A    
O17   H23   S    
C32   C72   A    
O1    Zn1   S    
O32   H38   S    
C33   F1    S    
C55   O25   S    
O2    Zn1   S    
C34   F2    S    
O30   H36   S    
C2    C29   S    
C9    C61   A    
C15   O29   S    
C28   C68   A    
C80   O32   S    
C54   H2    S    
C19   C87   A    
C24   H8    S    
C12   C64   A    
C63   F7    S    
C23   C67   A    
C6    C22   A    
C49   C57   A    
C48   C56   A    
O6    Zn3   S    
C1    O5    A    
C79   O31   S    
O3    Zn2   S    
O8    Zn4   S    
C75   H15   S    
C3    O3    A    
C59   H21   S    
C15   C19   A    
C48   N4    A    
C2    O2    A    
C22   C66   A    
O22   H28   S    
C44   C46   A    
C49   C51   A    
C70   C74   A    
C59   N1    A    
O23   H29   S    
C69   C73   A    
O12   Zn2   S    
O7    Zn4   S    
C30   C86   A    
C29   C85   A    
C43   F3    S    
C80   C84   A    
C74   H14   S    
C21   C65   A    
C36   H4    S    
C31   C71   A    
C26   C62   A    
C33   C59   A    
N3    Zn3   S    
C10   C62   A    
C34   C60   A    
C22   H6    S    
C4    O4    A    
O16   Zn4   S    
C70   H10   S    
C37   O23   S    
C30   C70   A    
C52   C54   A    
C38   C44   A    
O21   H27   S    
C41   C68   S    
C29   C69   A    
C45   C47   A    
C40   O10   A    
C46   C48   A    
C71   C75   A    
C31   C87   A    
C26   C66   A    
O13   Zn3   S    
C6    C84   A    
C18   C86   A    
C2    O6    A    
C58   O22   S    
C25   C61   A    
C82   C86   A    
C24   C68   A    
C71   H11   S    
C27   O19   S    
C58   N2    A    
O10   Zn1   S    
C51   C53   A    
C39   O13   A    
C50   C58   A    
C37   C43   A    
C7    C11   A    
C18   H18   S    
C5    C83   A    
C5    C9    A    
C56   O26   S    
C60   N2    A    
C41   O11   A    
C78   C82   A    
C50   C52   A    
O27   H33   S    
C77   C81   A    
C16   O30   S    
C16   C20   A    
C45   C49   A    
N4    Zn4   S    
C4    O8    A    
C42   O16   A    
C27   C67   A    
O5    Zn3   S    
N2    Zn2   S    
C43   C45   A    
C27   C63   A    
C28   C64   A    
N1    Zn1   S    
C7    C81   A    
C12   C14   A    
C40   C65   S    
C53   H1    S    
C42   C67   S    
C39   C66   S    
C17   C85   A    
C32   C88   A    
C69   H9    S    
C35   C37   A    
C47   C55   A    
C72   H12   S    
C47   N3    A    
O9    Zn1   S    
C76   C80   A    
C6    C10   A    
O19   H25   S    
C54   C56   A    
C17   H17   S    
C33   C51   A    
O18   H24   S    
C46   C50   A    
C34   C52   A    
C13   C17   A    
C14   O28   S    
C36   C38   A    
C9    C15   A    
O33   H39   S    
C10   C16   A    
O14   Zn3   S    
C41   O15   A    
C11   C13   A    
O11   Zn2   S    
C57   N1    A    
C84   C88   A    
C21   H5    S    
C60   H22   S    
C7    C23   A    
C20   C88   A    
C73   H13   S    
C1    C30   S    
C8    C24   A    
C23   H7    S    
C35   N3    A    
C64   F8    S    
C3    C32   S    
C25   O17   S    
C44   F4    S    
C4    C31   S    
O4    Zn2   S    
C42   O12   A    
O15   Zn4   S    
C79   C83   A    
C3    O7    A    
C8    C82   A    
C5    C21   A    
C77   O33   S    
O34   H40   S    
C74   C78   A    
O25   H31   S    
C25   C65   A    
C73   C77   A    
C28   O20   S    
C1    O1    A    
C38   O24   S    
C61   F5    S    
O24   H30   S    
O20   H26   S    
C11   C63   A    
C75   C79   A    
C13   O27   S    
C81   C85   A    
C8    C12   A    
C35   H3    S    
C19   H19   S    
C20   H20   S    
C40   O14   A    
