data_mof_unit_22852.cif
_audit_creation_date              2012-12-10T21:26:05-0500
_audit_creation_method            fapswitch 2.2
_symmetry_space_group_name_H-M    P1
_symmetry_Int_Tables_number       1
_space_group_crystal_system       triclinic
_cell_length_a                    8.644937
_cell_length_b                    16.134845
_cell_length_c                    16.848317
_cell_angle_alpha                 88.020149
_cell_angle_beta                  90.878729
_cell_angle_gamma                 101.037698
_cell_volume                      2305.14149576

loop_
_atom_site_label
_atom_site_type_symbol
_atom_type_description
_atom_site_fract_x
_atom_site_fract_y
_atom_site_fract_z
_atom_type_partial_charge
C1    C     C_R   0.494925 0.488714 0.652861 0.824366
C2    C     C_R   0.497050 0.510633 0.347050 0.880176
C3    C     C_R   0.428130 0.755732 0.458979 -0.102362
C4    C     C_R   0.558564 0.242200 0.545933 -0.091434
C5    C     C_R   0.435572 0.843683 0.457925 0.457381
C6    C     C_R   0.550653 0.154273 0.545839 0.460948
C7    C     C_R   0.534462 0.893660 0.513743 0.090981
C8    C     C_R   0.463329 0.106266 0.485016 0.098498
C9    C     C_R   0.628150 0.852490 0.565815 -0.173041
C10   C     C_R   0.380968 0.149271 0.428770 -0.177436
C11   C     C_R   0.617960 0.764376 0.562232 -0.012764
C12   C     C_R   0.392727 0.237434 0.432803 0.003207
C13   C     C_R   0.799968 0.521361 0.505771 0.899270
C14   C     C_R   0.199852 0.478112 0.503278 0.887808
C15   C     C_2   0.964982 0.533604 0.515242 0.163689
C16   C     C_2   0.035783 0.465696 0.516308 0.189719
C17   C     C_R   0.468323 0.480251 0.737742 -0.023137
C18   C     C_R   0.472882 0.514827 0.261698 -0.036147
C19   C     C_R   0.429036 0.548151 0.777358 -0.236947
C20   C     C_R   0.430878 0.439405 0.221107 -0.209860
C21   C     C_R   0.397285 0.540373 0.857582 -0.161714
C22   C     C_R   0.400296 0.441661 0.140557 -0.150457
C23   C     C_R   0.406599 0.464500 0.899653 0.327610
C24   C     C_R   0.413483 0.519910 0.098936 0.321923
C25   C     C_R   0.440082 0.395835 0.859517 -0.189945
C26   C     C_R   0.450984 0.595049 0.139825 -0.186167
C27   C     C_R   0.471160 0.403469 0.778716 -0.230434
C28   C     C_R   0.480706 0.592791 0.221057 -0.211930
H1    H     H_    0.420719 0.378342 0.251490 0.177858
H2    H     H_    0.422050 0.607343 0.746433 0.168518
H3    H     H_    0.369624 0.382165 0.110930 0.159577
H4    H     H_    0.368971 0.594293 0.886728 0.154331
H5    H     H_    0.447187 0.337296 0.891567 0.143449
H6    H     H_    0.461400 0.655420 0.108167 0.143331
H7    H     H_    0.498950 0.349930 0.748660 0.153720
H8    H     H_    0.510688 0.651695 0.251759 0.159434
H9    H     H_    0.625429 0.279102 0.591630 0.153095
H10   H     H_    0.350257 0.717086 0.418103 0.181145
H11   H     H_    0.689171 0.732033 0.601304 0.183398
H12   H     H_    0.330496 0.271190 0.390346 0.187525
N1    N     N_2   0.397387 0.457153 0.983001 -0.203846
N2    N     N_2   0.403883 0.525893 0.015478 -0.202461
N3    N     N_R   0.519180 0.718290 0.509780 -0.138220
N4    N     N_R   0.480820 0.281710 0.490220 -0.132098
N5    N     N_2   0.548103 0.983810 0.518580 -0.110286
N6    N     N_2   0.449128 0.016161 0.479716 -0.110242
O1    O     O_R   0.493140 0.422050 0.612640 -0.638549
O2    O     O_R   0.506860 0.577950 0.387360 -0.622901
O3    O     O_R   0.505450 0.562230 0.618920 -0.636175
O4    O     O_R   0.494550 0.437770 0.381080 -0.624225
O5    O     O_R   0.723530 0.446300 0.497600 -0.572451
O6    O     O_R   0.276470 0.553700 0.502400 -0.587678
O7    O     O_R   0.735850 0.586490 0.503880 -0.594479
O8    O     O_R   0.264150 0.413510 0.496120 -0.594116
Zn1   Zn    Zn3+2 0.491780 0.406400 0.495810 0.973634
Zn2   Zn    Zn3+2 0.508220 0.593600 0.504190 0.961518
O9    O     O_3   0.046932 0.616633 0.514111 -0.587584
C29   C     C_3   0.062194 0.644339 0.592887 -0.224814
H13   H     H_    0.126506 0.604237 0.631127 0.133559
H14   H     H_    0.945212 0.645873 0.618834 0.154683
H15   H     H_    0.131954 0.709665 0.592388 0.201288
O10   O     O_3   0.954352 0.383057 0.525960 -0.576016
C30   C     C_3   0.961147 0.358909 0.607061 -0.285847
H16   H     H_    0.893725 0.395641 0.643625 0.133726
H17   H     H_    0.084764 0.365965 0.629417 0.155805
H18   H     H_    0.906491 0.291116 0.614392 0.209999
O11   O     O_3   0.632440 0.116933 0.603523 -0.609165
C31   C     C_3   0.543199 0.105512 0.673759 -0.348279
H19   H     H_    0.605242 0.071873 0.718872 0.200009
H20   H     H_    0.424528 0.065838 0.663841 0.182681
H21   H     H_    0.532054 0.167168 0.698449 0.152524
O12   O     O_3   0.341928 0.879064 0.404514 -0.595775
C32   C     C_3   0.411959 0.884764 0.328940 -0.324731
H22   H     H_    0.532797 0.924093 0.329943 0.174848
H23   H     H_    0.339924 0.915929 0.286642 0.197022
H24   H     H_    0.414850 0.821189 0.306109 0.155727
C33   C     C_2   0.737300 0.901031 0.623949 0.422734
H25   H     H_    0.748100 0.968893 0.626988 0.137690
O13   O     O_2   0.817259 0.865750 0.669365 -0.587788
C34   C     C_2   0.282016 0.102676 0.365823 0.428770
H26   H     H_    0.266505 0.034575 0.363711 0.131644
O14   O     O_2   0.215686 0.139869 0.315419 -0.577320

loop_
_geom_bond_atom_site_label_1
_geom_bond_atom_site_label_2
_ccdc_geom_bond_type
C30   H17   S    
C2    C18   S    
C24   N2    S    
N1    N2    D    
C33   H25   S    
C3    N3    A    
C7    N5    S    
C19   C21   A    
C24   C26   A    
C5    O12   S    
C29   H14   S    
C15   C16   D    
C7    C9    A    
C32   H22   S    
C2    O4    A    
C13   O5    A    
C26   H6    S    
C14   O6    A    
C3    H10   S    
C31   H19   S    
C11   N3    A    
C14   C16   S    
O5    Zn1   S    
O12   C32   S    
C29   H15   S    
C30   H18   S    
C15   O9    S    
C16   O10   S    
C13   O7    A    
C20   H1    S    
C33   O13   D    
C21   H4    S    
C22   H3    S    
O11   C31   S    
C17   C27   A    
C18   C28   A    
C34   O14   D    
C5    C7    A    
C10   C34   S    
C1    O1    A    
C6    C8    A    
C4    N4    A    
C27   H7    S    
C29   H13   S    
N5    N6    D    
C12   H12   S    
O10   C30   S    
C9    C33   S    
C11   H11   S    
C9    C11   A    
C10   C12   A    
C4    C6    A    
C6    O11   S    
C14   O8    A    
C20   C22   A    
C13   C15   S    
C32   H24   S    
C22   C24   A    
C32   H23   S    
O1    Zn1   S    
O7    Zn2   S    
O2    Zn2   S    
O8    Zn1   S    
C1    C17   S    
C34   H26   S    
C3    C5    A    
C25   C27   A    
O3    Zn2   S    
C26   C28   A    
O4    Zn1   S    
C23   N1    S    
C2    O2    A    
C21   C23   A    
C12   N4    A    
N4    Zn1   S    
O9    C29   S    
C31   H21   S    
C17   C19   A    
C18   C20   A    
C23   C25   A    
C8    N6    S    
C30   H16   S    
N3    Zn2   S    
C4    H9    S    
C28   H8    S    
C8    C10   A    
C31   H20   S    
C19   H2    S    
C1    O3    A    
O6    Zn2   S    
C25   H5    S    
