data_mof_unit_66795.cif
_audit_creation_date              2013-03-05T15:41:07-0500
_audit_creation_method            fapswitch 2.2
_symmetry_space_group_name_H-M    P1
_symmetry_Int_Tables_number       1
_space_group_crystal_system       triclinic
_cell_length_a                    8.282581
_cell_length_b                    14.638533
_cell_length_c                    15.011231
_cell_angle_alpha                 93.880589
_cell_angle_beta                  98.362903
_cell_angle_gamma                 91.857682
_cell_volume                      1794.90557615

loop_
_atom_site_label
_atom_site_type_symbol
_atom_site_description
_atom_site_fract_x
_atom_site_fract_y
_atom_site_fract_z
_atom_type_partial_charge
P1    P     P_3+3 0.947560 0.714050 0.560480 0.564430
O1    O     O_2   0.113690 0.728200 0.532750 -0.334558
O2    O     O_3   0.871900 0.612110 0.540440 -0.408852
O3    O     O_3   0.325660 0.668890 0.372600 -0.375902
O4    O     O_2   0.212649 0.830678 0.417858 -0.391435
O5    O     O_3   0.996184 0.748421 0.675885 -0.462794
O6    O     O_3   0.302282 0.815697 0.258188 -0.651597
H1    H     H_    0.278249 0.682567 0.199331 -0.003249
C1    C     C_3   0.334051 0.778856 0.104717 0.478030
H2    H     H_    0.202647 0.780991 0.077293 -0.003208
H3    H     H_    0.391813 0.848493 0.105399 0.151705
P2    P     P_3+3 0.325150 0.423860 0.297970 0.535178
P3    P     P_3+3 0.864645 0.603801 0.211300 0.497071
O7    O     O_2   0.147570 0.451710 0.282630 -0.343421
O8    O     O_3   0.905540 0.621350 0.329600 -0.412089
O9    O     O_2   0.991939 0.541963 0.176112 -0.402437
O10   O     O_3   0.309960 0.305227 0.274929 -0.483640
O11   O     O_3   0.887842 0.703303 0.156446 -0.495694
C2    C     C_3   0.895612 0.780169 0.217439 0.266883
H4    H     H_    0.012247 0.782217 0.263910 0.082545
H5    H     H_    0.793981 0.779965 0.258091 0.147801
C3    C     C_3   0.885975 0.863714 0.161634 0.280585
H6    H     H_    0.970693 0.856114 0.110958 0.050204
C4    C     C_3   0.781620 0.344312 0.278795 0.180193
H7    H     H_    0.656241 0.361433 0.288933 0.022657
H8    H     H_    0.866074 0.403384 0.304617 0.145196
C5    C     C_3   0.792980 0.326917 0.178132 0.251231
H9    H     H_    0.780580 0.391758 0.144873 0.022626
Ba1   Ba    Ba6+2 0.142880 0.544780 0.454020 1.631807
C6    C     C_3   0.995968 0.677591 0.733771 0.115922
H10   H     H_    0.120842 0.652819 0.747317 -0.015695
H11   H     H_    0.912996 0.619257 0.705524 0.099992
C7    C     C_3   0.945852 0.719438 0.821689 0.373054
H12   H     H_    0.817706 0.739597 0.807618 0.174241
C8    C     C_3   0.262626 0.261363 0.347433 0.344596
H13   H     H_    0.173373 0.301260 0.380347 0.085371
H14   H     H_    0.371072 0.253583 0.398559 0.121489
C9    C     C_3   0.181428 0.167123 0.312985 -0.747357
H15   H     H_    0.054998 0.176864 0.280770 0.289871
H16   H     H_    0.174024 0.125842 0.371586 0.138812
P4    P     P_3+3 0.862730 0.285940 0.439440 0.483795
O12   O     O_2   0.696600 0.271740 0.467230 -0.337924
O13   O     O_3   0.938380 0.387880 0.459490 -0.414770
O14   O     O_3   0.484630 0.331100 0.627330 -0.323680
O15   O     O_3   0.822567 0.264652 0.321926 -0.559449
P5    P     P_3+3 0.947936 0.385677 0.787007 0.514960
O16   O     O_3   0.389110 0.548970 0.605210 -0.371806
O17   O     O_3   0.904740 0.378630 0.670330 -0.369859
O18   O     O_2   0.821377 0.448692 0.821545 -0.307903
O19   O     O_3   0.894029 0.277880 0.820712 -0.489891
Ba2   Ba    Ba6+2 0.667290 0.455210 0.545900 1.625328
P6    P     P_3+3 0.347794 0.786756 0.370266 0.481465
C10   C     C_3   0.353880 0.746863 0.199991 0.916464
O20   O     O_3   0.421180 0.451020 0.394720 -0.421312
C11   C     C_3   0.432549 0.766656 0.730232 -0.149411
H17   H     H_    0.314601 0.744360 0.688464 0.095889
C12   C     C_3   0.410857 0.779637 0.830299 0.560600
H18   H     H_    0.339099 0.840822 0.841732 0.097873
H19   H     H_    0.343370 0.719874 0.850252 0.079143
P7    P     P_3+3 0.487305 0.589669 0.714674 0.489957
O21   O     O_2   0.662730 0.548230 0.717350 -0.321937
O22   O     O_3   0.552842 0.704612 0.717556 -0.573951
C13   C     C_3   0.001352 0.213403 0.792145 0.090312
H20   H     H_    0.032776 0.225381 0.724121 0.099030
H21   H     H_    0.113414 0.217059 0.842462 0.073291
C14   C     C_3   0.923356 0.116313 0.786559 0.320218
H22   H     H_    0.803787 0.113992 0.742831 0.145020
P8    P     P_3+3 0.458843 0.211733 0.629838 0.521669
C15   C     C_3   0.455506 0.212567 0.805436 0.270807
H23   H     H_    0.326984 0.224192 0.778951 -0.059084
O23   O     O_2   0.577808 0.169693 0.569994 -0.342329
O24   O     O_3   0.540009 0.176997 0.736686 -0.528504
H24   H     H_    0.426033 0.178121 0.942175 0.251284
C16   C     C_3   0.461535 0.144326 0.879918 -0.670051
H25   H     H_    0.588116 0.122109 0.897321 0.217575
C17   C     C_R   0.012588 0.943317 0.547831 0.862832
C18   C     C_R   0.821703 0.803009 0.501886 0.302392
C19   C     C_R   0.666624 0.770229 0.459980 -0.444293
C20   C     C_R   0.553103 0.829236 0.421632 0.330906
C21   C     C_R   0.595472 0.920628 0.419061 -0.164395
C22   C     C_R   0.751237 0.958262 0.456398 -0.044640
C23   C     C_R   0.864403 0.900609 0.503188 -0.186304
H26   H     H_    0.631362 0.698372 0.459889 0.170538
C24   C     C_R   0.939908 0.096244 0.493732 -0.139359
C25   C     C_R   0.051951 0.037949 0.541815 -0.084605
C26   C     C_R   0.984751 0.194145 0.497206 0.257310
C27   C     C_R   0.136644 0.226176 0.544720 -0.489728
C28   C     C_R   0.249854 0.166832 0.583362 0.168225
C29   C     C_R   0.207315 0.073965 0.582379 -0.059203
C30   C     C_R   0.791771 0.052490 0.446484 -0.046377
H27   H     H_    0.502163 0.961993 0.388094 0.159528
H28   H     H_    0.298065 0.029546 0.612491 0.237437
H29   H     H_    0.171555 0.298321 0.547410 0.159836
C31   C     C_R   0.233410 0.486422 0.770787 -0.363056
C32   C     C_R   0.153713 0.437982 0.829909 0.113580
C33   C     C_R   0.224575 0.435550 0.920805 -0.266020
C34   C     C_R   0.366514 0.492990 0.955617 0.064907
C35   C     C_R   0.438568 0.545194 0.893474 -0.093596
C36   C     C_R   0.377830 0.538528 0.801126 0.224341
C37   C     C_R   0.600310 0.536877 0.082981 -0.168732
C38   C     C_R   0.662559 0.552188 0.174618 0.337615
C39   C     C_R   0.418869 0.485205 0.214845 0.315864
C40   C     C_R   0.346614 0.481288 0.124487 -0.196267
C41   C     C_R   0.437751 0.503132 0.055125 0.061772
C42   C     C_R   0.572272 0.526573 0.240178 -0.491358
H30   H     H_    0.681094 0.551209 0.035131 0.186482
H31   H     H_    0.219717 0.461366 0.111482 0.180992
H32   H     H_    0.541065 0.592272 0.915397 0.203670
H33   H     H_    0.625540 0.533750 0.310660 0.168283
H34   H     H_    0.181073 0.484241 0.700260 0.147199
C43   C     C_2   0.658264 0.261028 0.131865 1.072250
O25   O     O_2   0.516954 0.281198 0.132641 -0.585180
O26   O     O_R   0.689328 0.178369 0.086656 -0.706137
H35   H     H_    0.809365 0.168515 0.087064 0.385545
F1    F     F_    0.945736 0.295770 0.167955 -0.638605
F2    F     F_    0.039642 0.798505 0.851439 -0.656354
C44   C     C_2   0.961770 0.655600 0.895790 0.949499
O27   O     O_2   0.839519 0.622526 0.919777 -0.617702
O28   O     O_R   0.115618 0.639169 0.941479 -0.774371
H36   H     H_    0.108796 0.601807 0.995373 0.342024
C45   C     C_2   0.266350 0.114514 0.244125 1.317730
O29   O     O_2   0.286732 0.148300 0.174311 -0.501980
O30   O     O_R   0.311184 0.024512 0.255386 -0.787493
H37   H     H_    0.271942 0.999092 0.309796 0.316272
F3    F     F_    0.516458 0.730015 0.225869 -0.715485
F4    F     F_    0.407842 0.719472 0.049135 -0.619276
C46   C     C_2   0.493135 0.855353 0.698077 1.185866
O31   O     O_2   0.593140 0.905666 0.747690 -0.499726
O32   O     O_R   0.449881 0.876714 0.609046 -0.785751
H38   H     H_    0.382883 0.825335 0.571373 0.324674
F5    F     F_    0.560607 0.790493 0.885274 -0.584973
F6    F     F_    0.729065 0.868036 0.115961 -0.598782
F7    F     F_    0.019324 0.055821 0.745845 -0.681667
C47   C     C_2   0.900690 0.083707 0.877113 1.041198
O33   O     O_2   0.942375 0.132554 0.946529 -0.628666
O34   O     O_R   0.832949 0.995732 0.881159 -0.672663
H39   H     H_    0.822487 0.980621 0.945010 0.352922
C48   C     C_2   0.536381 0.302567 0.845512 1.067562
O35   O     O_2   0.526643 0.368453 0.800298 -0.601744
O36   O     O_R   0.622230 0.311626 0.933327 -0.758377
H40   H     H_    0.668149 0.376243 0.951794 0.344982
C49   C     C_2   0.351103 0.060909 0.854694 1.213884
O37   O     O_2   0.346439 0.019307 0.781170 -0.579650
O38   O     O_R   0.257929 0.029115 0.917597 -0.754327
H41   H     H_    0.190210 0.971300 0.894091 0.371920
F8    F     F_    0.117282 0.895292 0.602374 -0.660933
C50   C     C_2   0.685783 0.096430 0.375478 1.100081
O39   O     O_2   0.554545 0.124384 0.390355 -0.678816
O40   O     O_R   0.723405 0.092166 0.287895 -0.723518
H42   H     H_    0.632896 0.115165 0.243260 0.354382
C51   C     C_2   0.153184 0.368276 0.974712 1.025234
O41   O     O_2   0.013901 0.375996 0.991540 -0.552843
O42   O     O_R   0.246088 0.296826 0.007503 -0.760615
H43   H     H_    0.183827 0.255332 0.043201 0.418085
C52   C     C_2   0.932487 0.952435 0.216434 0.992004
O43   O     O_2   0.964177 0.954973 0.298586 -0.664623
O44   O     O_R   0.941011 0.033347 0.173068 -0.732708
H44   H     H_    0.919454 0.022659 0.104965 0.318696

loop_
_geom_bond_atom_site_label_1
_geom_bond_atom_site_label_2
_geom_bond_distance
_ccdc_geom_bond_type
C6    H11   1.099746 S    
C11   H17   1.107909 S    
C13   H21   1.105553 S    
C7    C44   1.494652 S    
O44   H44   1.012376 S    
P2    Ba1   3.397108 S    
C52   O44   1.394259 S    
P1    C18   1.879469 S    
P4    O12   1.506896 D    
C32   C33   1.408001 A    
Ba2   O21   2.834897 S    
C4    C5    1.532276 S    
C27   C28   1.390381 A    
P7    C36   1.869915 S    
C22   C23   1.422726 A    
O30   H37   1.010797 S    
C18   C19   1.399978 A    
P4    C26   1.889396 S    
P5    O18   1.540959 D    
P3    O11   1.739753 S    
Ba1   O16   2.817892 S    
O1    Ba1   2.891385 S    
C4    O15   1.399278 S    
C31   C36   1.398355 A    
C50   O40   1.392411 S    
C24   C26   1.464334 A    
O6    P6    1.753417 S    
O32   H38   1.008717 S    
C44   O28   1.392827 S    
C6    H10   1.102584 S    
C12   H19   1.104507 S    
Ba1   O20   2.937006 S    
C11   O22   1.394344 S    
C34   C35   1.427997 A    
C37   C41   1.413097 A    
C35   H32   1.074259 S    
C39   C42   1.379883 A    
P7    O22   1.746932 S    
P1    O1    1.506424 D    
H24   C16   1.109681 S    
O2    Ba1   2.917026 S    
C50   O39   1.218990 D    
C39   C40   1.397270 A    
O16   P7    1.778712 S    
C14   C47   1.505689 S    
C19   H26   1.082379 S    
O17   Ba2   2.823339 S    
P5    C32   1.853439 S    
C2    H4    1.104547 S    
P2    O10   1.744460 S    
C51   O41   1.223428 D    
O4    P6    1.547199 D    
P6    C20   1.832494 S    
C1    H2    1.108421 S    
O3    Ba1   2.783317 S    
C6    C7    1.534834 S    
O12   Ba2   2.891896 S    
C3    F6    1.383872 S    
C14   H22   1.103856 S    
C16   C49   1.495097 S    
C13   C14   1.533909 S    
C17   F8    1.351825 S    
Ba1   O13   2.822170 S    
O19   C13   1.405490 S    
P4    O13   1.591769 S    
C15   H23   1.103611 S    
C24   C30   1.432869 A    
O8    Ba1   2.822623 S    
C3    C52   1.497530 S    
C3    H6    1.110088 S    
C38   C42   1.383540 A    
P5    O17   1.731225 S    
C52   O43   1.220690 D    
C16   H25   1.107759 S    
P1    O5    1.755679 S    
C9    C45   1.514973 S    
C2    C3    1.526210 S    
C4    H7    1.105469 S    
C17   C23   1.414439 A    
C25   C29   1.410410 A    
C19   C20   1.387109 A    
O38   H41   1.013206 S    
O16   Ba2   2.936223 S    
C33   C51   1.477696 S    
C31   H34   1.082045 S    
C20   C21   1.376567 A    
P7    O21   1.588763 D    
P1    O2    1.591788 S    
C8    H13   1.107643 S    
C15   O24   1.409638 S    
C46   O32   1.391691 S    
P2    C39   1.831446 S    
C30   C50   1.475713 S    
C14   F7    1.379549 S    
P8    O24   1.761233 S    
C33   C34   1.435242 A    
C8    C9    1.537847 S    
P1    Ba1   3.433190 S    
C7    H12   1.105332 S    
C15   C16   1.545517 S    
C43   O26   1.396675 S    
C24   C25   1.431882 A    
C29   H28   1.079228 S    
C1    H3    1.110707 S    
C45   O29   1.219669 D    
C10   F3    1.381052 S    
C22   C30   1.431698 A    
O14   Ba2   2.782817 S    
O5    C6    1.397279 S    
O3    P6    1.732439 S    
P3    O8    1.758391 S    
P8    C28   1.851456 S    
C49   O38   1.397118 S    
O14   P8    1.757079 S    
C1    C10   1.522852 S    
O6    C10   1.406603 S    
O7    Ba1   2.834590 S    
P3    C38   1.808111 S    
C46   O31   1.220630 D    
C5    H9    1.102861 S    
O26   H35   1.008445 S    
Ba1   Ba2   4.541844 S    
C15   C48   1.504869 S    
C42   H33   1.082255 S    
C7    F2    1.383239 S    
O2    Ba2   2.822671 S    
C43   O25   1.217826 D    
C8    H14   1.107564 S    
C26   C27   1.402413 A    
C12   F5    1.384335 S    
C4    H8    1.106273 S    
C11   C46   1.511174 S    
C21   C22   1.408502 A    
H1    C10   1.112233 S    
C47   O34   1.396651 S    
O28   H36   1.013909 S    
C47   O33   1.222616 D    
C48   O36   1.399438 S    
P5    O19   1.753129 S    
C37   H30   1.076452 S    
C1    F4    1.382016 S    
Ba2   O20   2.817186 S    
C21   H27   1.069561 S    
C11   C12   1.538471 S    
P2    O7    1.528271 D    
O40   H42   1.012445 S    
C9    H16   1.108157 S    
O13   Ba2   2.917716 S    
C12   H18   1.108284 S    
C9    H15   1.105644 S    
C18   C23   1.458828 A    
P8    O23   1.542271 D    
O36   H40   1.013267 S    
C27   H29   1.082417 S    
C37   C38   1.397408 A    
C51   O42   1.392856 S    
C31   C32   1.396933 A    
C45   O30   1.394952 S    
C34   C41   1.519663 S    
C48   O35   1.214546 D    
C5    C43   1.507250 S    
C13   H20   1.113449 S    
C28   C29   1.391820 A    
C35   C36   1.399980 A    
P3    O9    1.539215 D    
C40   C41   1.419223 A    
O11   C2    1.395433 S    
P4    O15   1.751502 S    
C49   O37   1.218854 D    
O34   H39   1.013280 S    
C40   H31   1.067971 S    
O10   C8    1.397485 S    
O42   H43   1.012994 S    
C44   O27   1.219510 D    
C17   C25   1.424646 A    
P4    Ba2   3.433749 S    
P2    O20   1.570127 S    
C2    H5    1.109271 S    
C5    F1    1.384268 S    
