data_mof_unit_46709.cif
_audit_creation_date              2012-12-11T14:17:27-0500
_audit_creation_method            fapswitch 2.2
_symmetry_space_group_name_H-M    P1
_symmetry_Int_Tables_number       1
_space_group_crystal_system       triclinic
_cell_length_a                    6.94542
_cell_length_b                    13.633607
_cell_length_c                    20.434706
_cell_angle_alpha                 102.226032
_cell_angle_beta                  89.969666
_cell_angle_gamma                 90.638742
_cell_volume                      1890.97860769

loop_
_atom_site_label
_atom_site_type_symbol
_atom_type_description
_atom_site_fract_x
_atom_site_fract_y
_atom_site_fract_z
_atom_type_partial_charge
O1    O     O_R   0.506860 0.599390 0.449240 -0.539102
O2    O     O_R   0.180220 0.594600 0.586780 -0.546843
O3    O     O_R   0.004500 0.400610 0.550760 -0.542715
C1    C     C_R   0.349053 0.616053 0.613466 0.727628
O4    O     O_R   0.177490 0.611290 0.451970 -0.522319
O5    O     O_R   0.001750 0.417420 0.414990 -0.527315
C2    C     C_R   0.346869 0.636966 0.434451 0.765699
O6    O     O_R   0.509610 0.582580 0.585010 -0.546761
O7    O     O_3   0.337420 0.436370 0.488020 -0.375453
V1    V     V_3+5 0.064680 0.511800 0.502220 1.463102
O8    O     O_R   0.671710 0.405400 0.413220 -0.546805
C3    C     C_R   0.839758 0.384141 0.386510 0.780787
O9    O     O_R   0.674440 0.388710 0.548030 -0.545036
C4    C     C_R   0.842589 0.362317 0.564985 0.681322
V2    V     V_3+5 0.564010 0.488200 0.497780 1.439113
O10   O     O_3   0.841140 0.563630 0.511980 -0.373004
C5    C     C_R   0.853284 0.111128 0.612389 -0.157721
H1    H     H_    0.845809 0.161349 0.519776 0.101996
H2    H     H_    0.861477 0.985634 0.695164 0.121902
H3    H     H_    0.853545 0.032722 0.587212 0.113185
C6    C     C_R   0.849221 0.285422 0.605057 -0.026632
C7    C     C_R   0.861988 0.315295 0.928699 -0.166382
C8    C     C_R   0.857718 0.391503 0.893159 -0.118530
C9    C     C_R   0.855404 0.368840 0.823389 -0.158174
C10   C     C_R   0.857283 0.268051 0.787004 0.077607
C11   C     C_R   0.860957 0.190162 0.823897 0.067460
C12   C     C_R   0.855561 0.241961 0.715412 0.071502
C13   C     C_R   0.856491 0.138939 0.682601 0.141346
C14   C     C_R   0.860349 0.064247 0.719910 -0.202358
C15   C     C_R   0.862785 0.089234 0.789358 -0.194495
C16   C     C_R   0.852700 0.314358 0.674957 -0.213560
C17   C     C_R   0.849078 0.183994 0.573886 -0.175927
C18   C     C_R   0.863357 0.214940 0.894867 -0.075578
H4    H     H_    0.852256 0.393813 0.695889 0.093200
H5    H     H_    0.864277 0.334618 0.982942 0.108878
H6    H     H_    0.852083 0.432148 0.799659 0.106877
H7    H     H_    0.856411 0.469044 0.919923 0.121068
H8    H     H_    0.865927 0.028342 0.815806 0.115936
C19   C     C_2   0.005290 0.289125 0.284926 -0.088232
C20   C     C_2   0.842116 0.315907 0.319682 -0.291123
H9    H     H_    0.142460 0.317788 0.306897 0.151409
H10   H     H_    0.703431 0.287839 0.299349 0.121669
C21   C     C_2   0.013685 0.221148 0.217276 -0.126015
C22   C     C_2   0.858573 0.183351 0.180341 -0.304911
H11   H     H_    0.156563 0.202311 0.197194 0.133793
H12   H     H_    0.714403 0.201391 0.198843 0.128445
C23   C     C_2   0.204549 0.790689 0.782363 -0.136398
C24   C     C_2   0.363658 0.815721 0.819924 -0.305152
H13   H     H_    0.066786 0.820776 0.801757 0.130901
H14   H     H_    0.502250 0.785974 0.801833 0.127553
C25   C     C_2   0.202913 0.722203 0.714853 -0.131706
C26   C     C_2   0.361029 0.684323 0.680215 -0.307730
H15   H     H_    0.061698 0.703093 0.692737 0.132972
H16   H     H_    0.504115 0.703008 0.700281 0.124632
C27   C     C_R   0.453812 0.880149 0.384056 -0.153578
H17   H     H_    0.473551 0.826016 0.474750 0.115369
H18   H     H_    0.466745 0.007592 0.302600 0.118548
H19   H     H_    0.502067 0.954929 0.408232 0.117960
C28   C     C_R   0.360460 0.712607 0.393392 -0.069118
C29   C     C_R   0.345277 0.684222 0.070402 -0.174319
C30   C     C_R   0.354059 0.607843 0.105747 -0.118996
C31   C     C_R   0.364913 0.630764 0.175411 -0.089122
C32   C     C_R   0.357830 0.731083 0.211811 0.094496
C33   C     C_R   0.368278 0.808895 0.175111 0.062731
C34   C     C_R   0.360676 0.756548 0.283318 0.032054
C35   C     C_R   0.415622 0.856035 0.315190 0.114601
C36   C     C_R   0.431475 0.930912 0.278180 -0.185778
C37   C     C_R   0.399815 0.908608 0.209548 -0.190267
C38   C     C_R   0.311017 0.688393 0.324922 0.169458
C39   C     C_R   0.435561 0.807360 0.422106 -0.215497
C40   C     C_R   0.356267 0.784511 0.104328 -0.073902
H20   H     H_    0.338369 0.665114 0.016203 0.104913
H21   H     H_    0.390788 0.569244 0.199677 0.162793
H22   H     H_    0.357074 0.530347 0.078941 0.125518
H23   H     H_    0.410267 0.969616 0.183303 0.115799
O11   O     O_R   0.203230 0.917310 0.915020 -0.539631
O12   O     O_R   0.535500 0.888690 0.048040 -0.540896
O13   O     O_R   0.711080 0.082610 0.085000 -0.544322
C41   C     C_R   0.366185 0.862013 0.064647 0.689927
O14   O     O_R   0.532630 0.905370 0.913230 -0.548620
O15   O     O_R   0.708190 0.099410 0.949230 -0.538484
C42   C     C_R   0.364371 0.884217 0.886519 0.742615
O16   O     O_R   0.206120 0.900510 0.050790 -0.538913
O17   O     O_3   0.375360 0.063570 0.011990 -0.371966
V3    V     V_3+5 0.648170 0.988200 0.997780 1.418491
O18   O     O_R   0.038240 0.111390 0.951940 -0.540741
C43   C     C_R   0.870095 0.137489 0.934823 0.688580
O19   O     O_R   0.041120 0.094710 0.086750 -0.541810
C44   C     C_R   0.872518 0.115759 0.113513 0.746159
V4    V     V_3+5 0.148810 0.011930 0.002180 1.426545
O20   O     O_3   0.871750 0.936430 0.988010 -0.373109
Br1   Br    Br    0.139253 0.574410 0.295507 -0.601495

loop_
_geom_bond_atom_site_label_1
_geom_bond_atom_site_label_2
_ccdc_geom_bond_type
C32   C34   A    
C1    O6    A    
C40   C41   S    
V3    O20   S    
C23   H13   S    
C37   H23   S    
C7    H5    S    
C6    C16   A    
C31   C32   A    
C1    C26   S    
C33   C37   A    
C4    C6    S    
C13   C14   A    
O5    C3    A    
C29   H20   S    
V2    O10   S    
C5    H3    S    
C15   H8    S    
C33   C40   A    
O16   V4    S    
O8    V2    S    
C22   H12   S    
C8    C9    A    
C31   H21   S    
O1    V2    S    
C38   Br1   S    
O7    V1    S    
C20   H10   S    
C35   C36   A    
O12   V3    S    
O9    C4    A    
O17   V4    S    
H18   C36   S    
C2    C28   S    
C26   H16   S    
O12   C41   A    
O13   C44   A    
C6    C17   A    
C12   C16   A    
C25   C26   D    
C9    C10   A    
O14   C42   A    
O18   V4    S    
O11   C42   A    
C19   C20   D    
O4    C2    A    
O18   C43   A    
C19   C21   S    
C29   C40   A    
C10   C11   A    
C8    H7    S    
C36   C37   A    
C29   C30   A    
C25   H15   S    
C3    C20   S    
O2    C1    A    
C21   C22   D    
O14   V3    S    
C11   C18   A    
C23   C24   D    
C16   H4    S    
C9    H6    S    
O17   V3    S    
C21   H11   S    
O15   C43   A    
O3    C4    A    
C28   C38   A    
O13   V3    S    
O19   V4    S    
C11   C15   A    
O6    V2    S    
H17   C39   S    
O9    V2    S    
H1    C17   S    
O2    V1    S    
C27   C35   A    
C7    C18   A    
O1    C2    A    
C5    C13   A    
O5    V1    S    
C23   C25   S    
O8    C3    A    
C30   H22   S    
C10   C12   A    
O7    V2    S    
O4    V1    S    
O3    V1    S    
V1    O10   S    
C41   O16   A    
V4    O20   S    
C34   C38   A    
C24   H14   S    
C24   C42   S    
C18   C43   S    
C30   C31   A    
C27   C39   A    
C28   C39   A    
C14   C15   A    
C32   C33   A    
O19   C44   A    
C19   H9    S    
C34   C35   A    
C27   H19   S    
C12   C13   A    
C5    C17   A    
C7    C8    A    
O15   V3    S    
C22   C44   S    
O11   V4    S    
H2    C14   S    
