data_mof_unit_19141.cif
_audit_creation_date              2012-10-26T21:33:16-0400
_audit_creation_method            fapswitch 2.2
_symmetry_space_group_name_H-M    P1
_symmetry_Int_Tables_number       1
_space_group_crystal_system       triclinic
_cell_length_a                    28.152893
_cell_length_b                    18.502691
_cell_length_c                    17.061485
_cell_angle_alpha                 90.092203
_cell_angle_beta                  60.724857
_cell_angle_gamma                 90.178013
_cell_volume                      7752.27765358

loop_
_atom_site_label
_atom_site_type_symbol
_atom_type_description
_atom_site_fract_x
_atom_site_fract_y
_atom_site_fract_z
_atom_type_partial_charge
C1    C     C_R   0.701789 0.268675 0.675828 0.888656
C2    C     C_R   0.094307 0.501571 0.517675 0.080042
C3    C     C_R   0.189112 0.219218 0.906082 0.059587
C4    C     C_R   0.073939 0.099794 0.934125 0.904728
C5    C     C_R   0.926173 0.900086 0.065794 0.910708
C6    C     C_R   0.925917 0.099575 0.066062 0.906018
C7    C     C_R   0.074266 0.900654 0.933789 0.908870
C8    C     C_R   0.574083 0.599619 0.933990 0.905631
C9    C     C_R   0.426093 0.400177 0.065854 0.910665
C10   C     C_R   0.425995 0.599658 0.065994 0.905639
C11   C     C_R   0.574129 0.400491 0.933899 0.909346
C12   C     C_R   0.520078 0.131054 0.595975 -0.083964
C13   C     C_R   0.386048 0.000091 0.546069 0.075122
C14   C     C_R   0.424349 0.869241 0.579646 -0.062775
C15   C     C_R   0.424084 0.130541 0.581773 -0.092701
C16   C     C_R   0.519421 0.868887 0.596516 -0.085824
C17   C     C_R   0.022088 0.619231 0.581345 -0.083339
C18   C     C_R   0.978068 0.381140 0.418141 -0.083281
C19   C     C_R   0.925416 0.615163 0.569787 -0.085086
C20   C     C_R   0.073712 0.384003 0.432747 -0.084901
C21   C     C_R   0.491792 0.196195 0.604904 0.417212
C22   C     C_R   0.443780 0.803837 0.596155 0.459302
C23   C     C_R   0.442491 0.195347 0.602139 0.416722
C24   C     C_R   0.574992 0.999872 0.581258 0.080418
C25   C     C_R   0.490087 0.804110 0.607796 0.427190
C26   C     C_R   0.984240 0.676241 0.617203 0.418059
C27   C     C_R   0.016630 0.325092 0.380115 0.418520
C28   C     C_R   0.934748 0.672401 0.615514 0.412390
C29   C     C_R   0.063528 0.325397 0.389846 0.414978
C30   C     C_R   0.450934 0.065527 0.576889 -0.035463
C31   C     C_R   0.498255 0.934279 0.585046 -0.035660
C32   C     C_R   0.498414 0.065593 0.585282 -0.036410
C33   C     C_R   0.450906 0.934384 0.576288 -0.025105
C34   C     C_R   0.963131 0.558153 0.533838 -0.033073
C35   C     C_R   0.120198 0.385403 0.442821 -0.173779
C36   C     C_R   0.036412 0.441527 0.467440 -0.032524
C37   C     C_R   0.010884 0.559610 0.541008 -0.037169
C38   C     C_R   0.988848 0.440271 0.459726 -0.037336
C39   C     C_R   0.952414 0.498790 0.492499 0.069541
C40   C     C_R   0.047258 0.501042 0.508412 0.069693
C41   C     C_R   0.429306 0.000008 0.566281 0.066991
C42   C     C_R   0.523892 0.999912 0.584031 0.063073
C43   C     C_R   0.891830 0.436860 0.449054 0.038598
C44   C     C_R   0.108059 0.563160 0.551291 0.040039
C45   C     C_R   0.128467 0.440843 0.491897 0.025744
C46   C     C_R   0.879316 0.614361 0.558529 -0.170371
C47   C     C_R   0.871271 0.559111 0.508875 0.025105
C48   C     C_R   0.363684 0.934221 0.537522 0.026651
C49   C     C_R   0.600734 0.066077 0.579158 0.034295
C50   C     C_R   0.600655 0.933655 0.578820 0.032847
C51   C     C_R   0.363919 0.066005 0.537413 0.034965
C52   C     C_R   0.840970 0.435923 0.450232 -0.126795
C53   C     C_R   0.158967 0.564109 0.549992 -0.124190
C54   C     C_R   0.169872 0.438300 0.516576 -0.113092
C55   C     C_R   0.830006 0.561717 0.483841 -0.112615
C56   C     C_R   0.326079 0.935691 0.503142 -0.104951
C57   C     C_R   0.929104 0.379300 0.414853 -0.167386
C58   C     C_R   0.656065 0.065122 0.560555 -0.117147
C59   C     C_R   0.656033 0.934774 0.560399 -0.118522
C60   C     C_R   0.326165 0.064424 0.503136 -0.105925
C61   C     C_R   0.814655 0.499895 0.456881 -0.279199
C62   C     C_R   0.185280 0.500138 0.543389 -0.278527
C63   C     C_R   0.309888 0.000005 0.484181 -0.303418
C64   C     C_R   0.681637 0.000010 0.554299 -0.279220
C65   C     C_3   0.084792 0.213831 0.417930 -0.257674
C66   C     C_3   0.863293 0.712647 0.744914 -0.252592
C67   C     C_3   0.033842 0.281326 0.244604 -0.274165
C68   C     C_R   0.070938 0.620881 0.585014 -0.167496
C69   C     C_3   0.018114 0.790139 0.595653 -0.266213
C70   C     C_3   0.481927 0.728341 0.717742 -0.246370
C71   C     C_3   0.377524 0.268458 0.704990 -0.271275
C72   C     C_3   0.440728 0.705348 0.519541 -0.285054
C73   C     C_3   0.542769 0.295335 0.536657 -0.248660
C74   C     C_2   0.806183 0.333700 0.835029 0.396256
C75   C     C_2   0.195120 0.668299 0.163077 0.394545
C76   C     C_2   0.291236 0.128291 0.056166 0.380264
C77   C     C_2   0.709761 0.870130 0.943190 0.384169
C78   C     C_2   0.307595 0.835412 0.834116 0.406605
C79   C     C_R   0.569559 0.869402 0.596001 -0.182539
C80   C     C_2   0.694243 0.167520 0.164686 0.393451
C81   C     C_2   0.793305 0.626982 0.053125 0.374989
C82   C     C_2   0.209430 0.371279 0.942894 0.368763
C83   C     C_R   0.379409 0.129703 0.566229 -0.177565
C84   C     C_R   0.378989 0.870496 0.566097 -0.192963
C85   C     C_R   0.298286 0.731460 0.324129 0.912630
C86   C     C_R   0.569878 0.130300 0.596473 -0.181040
C87   C     C_R   0.722363 0.267748 0.951669 -0.042487
C88   C     C_R   0.279021 0.734528 0.047046 -0.037907
C89   C     C_R   0.280220 0.262951 0.045440 -0.037605
C90   C     C_R   0.721194 0.735425 0.952887 -0.054531
C91   C     C_R   0.223537 0.769434 0.950482 -0.041371
C92   C     C_R   0.778138 0.233266 0.047924 -0.042245
C93   C     C_R   0.781272 0.761568 0.044302 -0.042866
C94   C     C_R   0.220246 0.236607 0.953944 -0.051958
C95   C     C_R   0.777308 0.289393 0.917977 0.006060
C96   C     C_R   0.298228 0.268651 0.324080 0.894091
C97   C     C_R   0.224120 0.712881 0.080382 0.005171
C98   C     C_R   0.269502 0.191147 0.029662 0.007095
C99   C     C_R   0.731733 0.807186 0.969117 -0.002067
C100  C     C_R   0.278499 0.791022 0.917001 0.013571
C101  C     C_R   0.723176 0.211701 0.081650 0.005518
C102  C     C_R   0.771056 0.689809 0.027547 0.003445
C103  C     C_R   0.231069 0.308406 0.969541 -0.004101
C104  C     C_R   0.804453 0.271169 0.966197 -0.126555
C105  C     C_R   0.197136 0.731313 0.032022 -0.125808
C106  C     C_R   0.239426 0.179134 0.984670 -0.148359
C107  C     C_R   0.701750 0.731400 0.675900 0.861952
C108  C     C_R   0.761839 0.819092 0.014068 -0.142682
C109  C     C_R   0.305485 0.772589 0.965434 -0.136425
C110  C     C_R   0.696047 0.229885 0.033410 -0.126208
C111  C     C_R   0.740918 0.677878 0.982608 -0.165335
C112  C     C_R   0.261132 0.320419 0.014547 -0.142346
C113  C     C_R   0.644496 0.327901 0.945341 -0.186854
C114  C     C_R   0.356456 0.673603 0.053826 -0.195219
C115  C     C_R   0.357082 0.325101 0.053251 -0.192525
C116  C     C_R   0.643960 0.673457 0.945787 -0.183961
C117  C     C_R   0.145427 0.829311 0.944522 -0.185381
C118  C     C_R   0.201907 0.768886 0.675749 0.868048
C119  C     C_R   0.855862 0.172744 0.054359 -0.185581
C120  C     C_R   0.857773 0.824106 0.052671 -0.188576
C121  C     C_R   0.143174 0.174601 0.946528 -0.197159
C122  C     C_R   0.616783 0.347533 0.898313 -0.070939
C123  C     C_R   0.383647 0.653058 0.101370 -0.068155
C124  C     C_R   0.383906 0.346401 0.101121 -0.067734
C125  C     C_R   0.616552 0.653005 0.898509 -0.070855
C126  C     C_R   0.117280 0.848216 0.897943 -0.071178
C127  C     C_R   0.883407 0.152767 0.101547 -0.070450
C128  C     C_R   0.884252 0.845938 0.100876 -0.068042
C129  C     C_R   0.798268 0.231433 0.324142 0.884557
C130  C     C_R   0.116212 0.153465 0.898799 -0.069904
C131  C     C_R   0.633103 0.321940 0.813432 -0.255353
C132  C     C_R   0.367069 0.678189 0.186546 -0.258095
C133  C     C_R   0.367212 0.321498 0.186365 -0.257051
C134  C     C_R   0.632873 0.678438 0.813608 -0.266084
C135  C     C_R   0.133444 0.822365 0.813253 -0.255465
C136  C     C_R   0.867043 0.178259 0.186499 -0.262320
C137  C     C_R   0.867450 0.821193 0.186239 -0.256232
C138  C     C_R   0.132850 0.178425 0.813598 -0.258324
C139  C     C_R   0.679609 0.281504 0.770833 -0.054844
C140  C     C_R   0.798343 0.768427 0.323996 0.907610
C141  C     C_R   0.320754 0.719036 0.228936 -0.059373
C142  C     C_R   0.320696 0.280798 0.228843 -0.056110
C143  C     C_R   0.679431 0.719014 0.770988 -0.038638
C144  C     C_R   0.180098 0.782268 0.770474 -0.047373
C145  C     C_R   0.820608 0.218859 0.229035 -0.052671
C146  C     C_R   0.821105 0.780117 0.228519 -0.057504
C147  C     C_R   0.179391 0.219061 0.771060 -0.044577
C148  C     C_R   0.708205 0.260704 0.816365 -0.196756
C149  C     C_R   0.292648 0.740686 0.182917 -0.198586
C150  C     C_R   0.292607 0.258800 0.182688 -0.197388
C151  C     C_R   0.201785 0.231326 0.675899 0.887536
C152  C     C_R   0.707840 0.740554 0.816722 -0.223513
C153  C     C_R   0.209148 0.762218 0.815501 -0.200906
C154  C     C_R   0.792210 0.240036 0.183320 -0.199309
C155  C     C_R   0.793429 0.757437 0.181903 -0.201186
C156  C     C_R   0.207597 0.240898 0.817052 -0.218393
C157  C     C_R   0.691073 0.129482 0.535693 0.891388
C158  C     C_R   0.302657 0.871633 0.485997 0.906585
C159  C     C_R   0.302579 0.128345 0.486249 0.905567
C160  C     C_R   0.691048 0.870541 0.535747 0.887352
C161  C     C_R   0.191062 0.629586 0.535829 0.896506
C162  C     C_R   0.905442 0.498356 0.483051 0.078870
C163  C     C_R   0.808925 0.370429 0.464223 0.889340
C164  C     C_R   0.803104 0.627749 0.483143 0.896815
C165  C     C_R   0.196820 0.372258 0.517100 0.902971
C166  C     C_R   0.690969 0.284601 0.904186 0.055542
C167  C     C_R   0.310180 0.717271 0.094791 0.059689
C168  C     C_R   0.311208 0.280383 0.093558 0.053651
C169  C     C_R   0.689813 0.718223 0.905363 0.055584
C170  C     C_R   0.192126 0.786415 0.903086 0.053469
C171  C     C_R   0.809505 0.216277 0.095421 0.056543
C172  C     C_R   0.812124 0.778994 0.092684 0.055218
H1    H     H_    0.779576 0.500512 0.446564 0.196845
H2    H     H_    0.357096 0.179284 0.578935 0.221001
H3    H     H_    0.355897 0.821252 0.580432 0.222131
H4    H     H_    0.583579 0.180134 0.611687 0.212547
H5    H     H_    0.654137 0.213142 0.058604 0.188433
H6    H     H_    0.347421 0.789143 0.940422 0.178971
H7    H     H_    0.268961 0.375309 0.027548 0.188657
H8    H     H_    0.733425 0.623036 0.968910 0.188659
H9    H     H_    0.155257 0.714535 0.056954 0.188203
H10   H     H_    0.846365 0.287901 0.941006 0.187440
H11   H     H_    0.769396 0.873949 0.027621 0.189088
H12   H     H_    0.220414 0.499532 0.553558 0.197210
H13   H     H_    0.231610 0.124249 0.971628 0.188181
H14   H     H_    0.631521 0.348731 0.012184 0.161470
H15   H     H_    0.369629 0.653136 0.986757 0.156289
H16   H     H_    0.370752 0.344909 0.985778 0.157830
H17   H     H_    0.630667 0.653126 0.012916 0.158395
H18   H     H_    0.132520 0.850249 0.011294 0.162178
H19   H     H_    0.868852 0.151976 0.987484 0.161658
H20   H     H_    0.871489 0.843879 0.985168 0.161076
H21   H     H_    0.129545 0.154777 0.013982 0.157714
H22   H     H_    0.611643 0.337876 0.777967 0.182481
H23   H     H_    0.282809 0.999923 0.455732 0.193395
H24   H     H_    0.388137 0.661541 0.222387 0.176442
H25   H     H_    0.388227 0.338456 0.222293 0.180145
H26   H     H_    0.611511 0.662048 0.778031 0.176881
H27   H     H_    0.111656 0.837708 0.778122 0.180078
H28   H     H_    0.888371 0.162068 0.222086 0.179892
H29   H     H_    0.888184 0.838637 0.222436 0.179476
H30   H     H_    0.111752 0.161596 0.777759 0.178015
H31   H     H_    0.744936 0.228594 0.782768 0.161592
H32   H     H_    0.256029 0.773025 0.216372 0.159860
H33   H     H_    0.255331 0.227543 0.216643 0.169862
H34   H     H_    0.723876 0.000099 0.538645 0.198532
H35   H     H_    0.744908 0.772148 0.782734 0.158291
H36   H     H_    0.245982 0.730312 0.781752 0.168400
H37   H     H_    0.755542 0.272272 0.216867 0.158841
H38   H     H_    0.756331 0.725817 0.215625 0.158755
H39   H     H_    0.244852 0.272174 0.783059 0.148583
H40   H     H_    0.044527 0.190716 0.433814 0.188650
H41   H     H_    0.083956 0.232979 0.480498 0.150751
H42   H     H_    0.115212 0.169747 0.389657 0.178779
H43   H     H_    0.886829 0.707063 0.781347 0.192594
H44   H     H_    0.838506 0.663171 0.754105 0.151867
H45   H     H_    0.150399 0.343796 0.410130 0.210722
H46   H     H_    0.834814 0.758458 0.775942 0.187529
H47   H     H_    0.078780 0.284585 0.216130 0.199746
H48   H     H_    0.018382 0.331647 0.229234 0.148110
H49   H     H_    0.025318 0.235929 0.210695 0.185354
H50   H     H_    0.990189 0.810214 0.571743 0.191585
H51   H     H_    0.057455 0.772674 0.537617 0.149765
H52   H     H_    0.026968 0.835999 0.628520 0.179773
H53   H     H_    0.437157 0.722254 0.745856 0.208214
H54   H     H_    0.490810 0.772749 0.752853 0.149995
H55   H     H_    0.497319 0.677421 0.731325 0.176420
H56   H     H_    0.849307 0.656293 0.590570 0.207884
H57   H     H_    0.398973 0.274079 0.744852 0.191795
H58   H     H_    0.347629 0.223147 0.731711 0.144898
H59   H     H_    0.354242 0.318902 0.713767 0.190246
H60   H     H_    0.483839 0.690725 0.496843 0.190255
H61   H     H_    0.438175 0.739627 0.468153 0.150351
H62   H     H_    0.418167 0.654562 0.525476 0.183146
H63   H     H_    0.517891 0.309912 0.504616 0.191866
H64   H     H_    0.578027 0.261400 0.490242 0.155541
H65   H     H_    0.559316 0.346184 0.548406 0.174970
H66   H     H_    0.784478 0.356057 0.802917 0.079929
H67   H     H_    0.921168 0.334376 0.382176 0.198825
H68   H     H_    0.216753 0.645515 0.195083 0.081299
H69   H     H_    0.319217 0.136065 0.082012 0.081299
H70   H     H_    0.681461 0.862471 0.917968 0.082911
H71   H     H_    0.286562 0.855777 0.799883 0.076204
H72   H     H_    0.715960 0.144899 0.196635 0.082057
H73   H     H_    0.820968 0.634864 0.079589 0.083209
H74   H     H_    0.181251 0.363558 0.917436 0.084401
H75   H     H_    0.078895 0.665794 0.617673 0.200578
H76   H     H_    0.583327 0.819363 0.610200 0.211614
O1    O     O_R   0.746490 0.236330 0.638080 -0.630969
O2    O     O_R   0.325830 0.813840 0.483730 -0.651379
O3    O     O_R   0.325830 0.186160 0.483730 -0.638559
O4    O     O_R   0.674170 0.813840 0.516270 -0.630509
O5    O     O_R   0.174170 0.686160 0.516270 -0.634312
O6    O     O_R   0.825830 0.313840 0.483730 -0.623746
O7    O     O_R   0.825830 0.686160 0.483730 -0.630081
O8    O     O_R   0.174170 0.313840 0.516270 -0.642449
O9    O     O_R   0.739960 0.127620 0.525000 -0.623437
O10   O     O_R   0.260040 0.872380 0.475000 -0.625652
O11   O     O_R   0.260040 0.127620 0.475000 -0.627731
O12   O     O_R   0.253510 0.763670 0.361920 -0.629563
O13   O     O_R   0.739960 0.872380 0.525000 -0.624719
O14   O     O_R   0.239960 0.627620 0.525000 -0.621247
O15   O     O_R   0.760040 0.372380 0.475000 -0.624401
O16   O     O_R   0.760040 0.627620 0.475000 -0.630543
O17   O     O_R   0.239960 0.372380 0.525000 -0.627068
O18   O     O_R   0.680700 0.294870 0.629350 -0.628334
O19   O     O_R   0.319300 0.705130 0.370650 -0.624975
O20   O     O_R   0.319300 0.294870 0.370650 -0.623992
O21   O     O_R   0.680700 0.705130 0.629350 -0.635152
O22   O     O_R   0.180700 0.794870 0.629350 -0.636823
O23   O     O_R   0.253510 0.236330 0.361920 -0.638692
O24   O     O_R   0.819300 0.205130 0.370650 -0.626462
O25   O     O_R   0.819300 0.794870 0.370650 -0.621763
O26   O     O_R   0.180700 0.205130 0.629350 -0.630752
O27   O     O_R   0.062020 0.072840 0.007170 -0.626400
O28   O     O_R   0.937980 0.927160 0.992830 -0.622710
O29   O     O_R   0.937980 0.072840 0.992830 -0.624324
O30   O     O_R   0.062020 0.927160 0.007170 -0.624242
O31   O     O_R   0.562020 0.572840 0.007170 -0.626070
O32   O     O_R   0.437980 0.427160 0.992830 -0.622301
O33   O     O_R   0.437980 0.572840 0.992830 -0.628197
O34   O     O_R   0.746490 0.763670 0.638080 -0.636775
O35   O     O_R   0.562020 0.427160 0.007170 -0.625132
O36   O     O_R   0.947860 0.073950 0.109290 -0.622743
O37   O     O_R   0.052140 0.926050 0.890710 -0.622177
O38   O     O_R   0.052140 0.073950 0.890710 -0.623470
O39   O     O_R   0.947860 0.926050 0.109290 -0.621761
O40   O     O_R   0.447860 0.573950 0.109290 -0.623194
O41   O     O_R   0.552140 0.426050 0.890710 -0.618880
O42   O     O_R   0.552140 0.573950 0.890710 -0.625695
O43   O     O_R   0.447860 0.426050 0.109290 -0.622426
O44   O     O_3   0.100578 0.269478 0.353529 -0.605104
O45   O     O_R   0.246490 0.736330 0.638080 -0.641027
O46   O     O_3   0.897463 0.727932 0.652969 -0.606731
O47   O     O_3   0.007213 0.267416 0.337763 -0.604188
O48   O     O_3   0.993839 0.734109 0.659055 -0.602901
O49   O     O_3   0.508530 0.739708 0.624061 -0.614348
O50   O     O_3   0.414754 0.259378 0.612757 -0.604642
O51   O     O_3   0.416570 0.739510 0.604225 -0.600999
O52   O     O_3   0.510924 0.260736 0.620025 -0.605955
O53   O     O_2   0.854833 0.346479 0.801654 -0.564572
O54   O     O_2   0.146441 0.655767 0.196352 -0.564912
O55   O     O_2   0.278454 0.066550 0.048781 -0.563710
O56   O     O_R   0.753510 0.263670 0.361920 -0.636750
O57   O     O_2   0.722729 0.931828 0.950321 -0.562531
O58   O     O_2   0.355686 0.850703 0.803314 -0.592315
O59   O     O_2   0.645519 0.155172 0.198340 -0.564082
O60   O     O_2   0.781316 0.565168 0.044278 -0.565711
O61   O     O_2   0.222528 0.432981 0.949701 -0.563053
O62   O     O_R   0.753510 0.736330 0.361920 -0.629016
O63   O     O_R   0.246490 0.263670 0.638080 -0.642021
O64   O     O_R   0.674170 0.186160 0.516270 -0.640715
Zn1   Zn    Zn3+2 0.792340 0.208750 0.507670 0.985043
Zn2   Zn    Zn3+2 0.494040 0.500000 0.919480 0.956090
Zn3   Zn    Zn3+2 0.005960 0.000000 0.080520 0.958509
Zn4   Zn    Zn3+2 0.994040 0.000000 0.919480 0.956520
Zn5   Zn    Zn3+2 0.207660 0.791250 0.492330 0.951477
Zn6   Zn    Zn3+2 0.207660 0.208750 0.492330 0.945310
Zn7   Zn    Zn3+2 0.792340 0.791250 0.507670 0.987610
Zn8   Zn    Zn3+2 0.292340 0.708750 0.507670 0.956115
Zn9   Zn    Zn3+2 0.707660 0.291250 0.492330 0.952344
Zn10  Zn    Zn3+2 0.707660 0.708750 0.492330 0.980716
Zn11  Zn    Zn3+2 0.292340 0.291250 0.507670 0.981278
Zn12  Zn    Zn3+2 0.505960 0.500000 0.080520 0.951467

loop_
_geom_bond_atom_site_label_1
_geom_bond_atom_site_label_2
_ccdc_geom_bond_type
O41   Zn2   S    
C31   C42   A    
C21   O52   S    
C85   O19   A    
C152  H35   S    
C22   O51   S    
C50   C79   A    
C14   C33   A    
C19   C46   A    
C16   C31   A    
C124  C133  A    
C50   C59   A    
C67   H48   S    
C6    C127  S    
C52   C61   A    
C135  H27   S    
C76   C98   S    
O64   Zn9   S    
C24   C42   A    
C66   H43   S    
C160  O4    A    
C118  O45   A    
C134  C143  A    
C13   C51   A    
C117  C170  A    
C113  C122  A    
O38   Zn4   S    
C159  O11   A    
C11   O35   A    
C91   C100  A    
C117  C126  A    
C129  C145  S    
C88   C97   A    
O10   Zn5   S    
O40   Zn12  S    
C97   C105  A    
C100  C109  A    
C58   C64   A    
C102  C111  A    
O20   Zn11  S    
C137  C146  A    
C127  C136  A    
O4    Zn10  S    
C113  C166  A    
C9    O43   A    
C4    C130  S    
C101  C110  A    
O22   Zn5   S    
C114  H15   S    
C103  C112  A    
O31   Zn12  S    
C163  O6    A    
C65   H41   S    
C153  H36   S    
C59   C160  S    
C150  C168  A    
C88   C109  A    
C164  O7    A    
C54   C165  S    
C107  C143  S    
C35   C45   A    
C80   O59   D    
C51   C83   A    
C15   C30   A    
C16   C25   A    
C133  H25   S    
O26   Zn6   S    
C70   H54   S    
C27   O47   S    
O63   Zn11  S    
C78   H71   S    
C98   C106  A    
C12   C86   A    
C165  O8    A    
C76   H69   S    
C18   C38   A    
C159  O3    A    
C138  H30   S    
C164  O16   A    
C5    C128  S    
C3    C156  A    
O24   Zn1   S    
C7    C126  S    
C151  O26   A    
C136  H28   S    
C92   C104  A    
C52   C163  S    
C48   C84   A    
O32   Zn2   S    
C71   H59   S    
O5    Zn5   S    
C3    C121  A    
C119  C171  A    
C96   O20   A    
C129  O56   A    
C151  O63   A    
C123  C132  A    
C27   C29   A    
C91   C105  A    
C28   O46   S    
C121  C130  A    
C128  C137  A    
C114  C167  A    
C87   C110  A    
C99   C108  A    
C133  C142  A    
C37   C40   A    
C38   C39   A    
C1    O1    A    
C43   C52   A    
C66   O46   S    
C74   O53   D    
O39   Zn3   S    
C67   H49   S    
C73   H64   S    
C47   C162  A    
C109  H6    S    
C157  O9    A    
C2    C44   A    
C22   C25   A    
C87   C95   A    
C153  C170  A    
C9    O32   A    
O56   Zn9   S    
C84   H3    S    
C156  H39   S    
C26   O48   S    
C90   C111  A    
C35   H45   S    
C2    C45   A    
C24   C50   A    
C140  O62   A    
C139  C148  A    
C82   H74   S    
C34   C39   A    
C10   O40   A    
O19   Zn8   S    
C85   C141  S    
O12   Zn5   S    
C69   H51   S    
C140  O25   A    
C74   H66   S    
C147  C151  S    
C2    C40   A    
C71   H57   S    
C69   O48   S    
C39   C162  A    
C19   C28   A    
C29   O44   S    
C57   H67   S    
C23   O50   S    
C114  C123  A    
C65   O44   S    
C116  C125  A    
C107  O34   A    
O33   Zn2   S    
C145  C154  A    
C72   O51   S    
C122  C131  A    
C8    O31   A    
O18   Zn9   S    
C132  C141  A    
C32   C42   A    
C72   H60   S    
C4    O27   A    
C49   C86   A    
O6    Zn1   S    
C58   C157  S    
O2    Zn8   S    
C89   C98   A    
C14   C22   A    
C67   H47   S    
C82   O61   D    
O3    Zn11  S    
C137  H29   S    
O43   Zn12  S    
C55   C61   A    
C90   C169  S    
C70   O49   S    
C154  C171  A    
C77   C99   S    
C66   H44   S    
C131  C139  A    
C43   C57   A    
C62   H12   S    
C11   C122  S    
C43   C162  A    
C83   H2    S    
C25   O49   S    
C51   C60   A    
C105  H9    S    
C115  C168  A    
C118  O22   A    
C119  C127  A    
C125  C134  A    
C104  H10   S    
C116  H17   S    
C157  O64   A    
C34   C37   A    
C148  C166  A    
C90   C99   A    
C149  C167  A    
C60   C159  S    
C14   C84   A    
C13   C41   A    
C75   H68   S    
C93   C172  S    
C96   O23   A    
O16   Zn10  S    
C89   C112  A    
C93   C108  A    
O36   Zn3   S    
C75   C97   S    
C72   H61   S    
C134  H26   S    
C65   H40   S    
O35   Zn12  S    
C155  C172  A    
C77   O57   D    
C146  C155  A    
C1    C139  S    
C121  H21   S    
O21   Zn10  S    
C70   H55   S    
C10   C123  S    
C140  C146  S    
C15   C83   A    
C54   C62   A    
C110  H5    S    
C158  O10   A    
C64   H34   S    
C4    O38   A    
C5    O39   A    
C89   C168  S    
C7    O37   A    
C18   C57   A    
O37   Zn4   S    
C88   C167  S    
C147  C156  A    
C149  H32   S    
C92   C101  A    
C143  C152  A    
C126  C135  A    
C21   C23   A    
C78   C100  S    
C111  H8    S    
C63   H23   S    
C46   C47   A    
C17   C68   A    
C115  C124  A    
C108  H11   S    
C155  H38   S    
C158  O2    A    
C106  H13   S    
C93   C102  A    
C120  C128  A    
O62   Zn10  S    
C16   C79   A    
C33   C41   A    
C142  C150  A    
C36   C38   A    
C65   H42   S    
C66   H46   S    
C129  O24   A    
O25   Zn7   S    
C152  C169  A    
C73   H63   S    
C20   C36   A    
C8    C125  S    
C11   O41   A    
C67   O47   S    
O42   Zn2   S    
C46   H56   S    
C6    O29   A    
C76   O55   D    
C107  O21   A    
C44   C53   A    
C70   H53   S    
C161  O5    A    
C141  C149  A    
C8    O42   A    
C59   C64   A    
C20   C29   A    
C60   C63   A    
C17   C26   A    
C10   O33   A    
C119  H19   S    
C55   C164  S    
C154  H37   S    
C118  C144  S    
C120  H20   S    
C87   C166  S    
C92   C171  S    
C9    C124  S    
O13   Zn7   S    
C69   H50   S    
O14   Zn8   S    
C144  C153  A    
C56   C158  S    
C161  O14   A    
C71   H58   S    
C1    O18   A    
C82   C103  S    
C31   C33   A    
O28   Zn4   S    
C7    O30   A    
C136  C145  A    
C15   C23   A    
C165  O17   A    
C12   C32   A    
C73   O52   S    
C20   C35   A    
O8    Zn6   S    
C81   C102  S    
C68   H75   S    
C77   H70   S    
C81   H73   S    
C36   C40   A    
C61   H1    S    
O29   Zn4   S    
O30   Zn3   S    
C120  C172  A    
O27   Zn3   S    
C78   O58   D    
C96   C142  S    
C12   C21   A    
C49   C58   A    
C80   H72   S    
O34   Zn7   S    
O17   Zn11  S    
C73   H65   S    
O9    Zn1   S    
O15   Zn9   S    
C53   C62   A    
C138  C147  A    
C56   C63   A    
C30   C41   A    
C5    O28   A    
C17   C37   A    
C75   O54   D    
C112  H7    S    
C135  C144  A    
C45   C54   A    
C160  O13   A    
C44   C68   A    
C131  H22   S    
O45   Zn8   S    
C95   C104  A    
C47   C55   A    
O11   Zn6   S    
C24   C49   A    
C48   C56   A    
C94   C106  A    
C91   C170  S    
C74   C95   S    
C6    O36   A    
C18   C27   A    
C150  H33   S    
C19   C34   A    
C94   C103  A    
C13   C48   A    
C26   C28   A    
C80   C101  S    
C69   H52   S    
C79   H76   S    
C71   O50   S    
C30   C32   A    
C115  H16   S    
C53   C161  S    
C113  H14   S    
O23   Zn6   S    
C72   H62   S    
C116  C169  A    
C3    C94   S    
C86   H4    S    
C85   O12   A    
C117  H18   S    
O1    Zn1   S    
C148  H31   S    
C163  O15   A    
C132  H24   S    
O7    Zn7   S    
C81   O60   D    
C130  C138  A    
