data_mof_unit_18337.cif
_audit_creation_date              2012-12-11T14:03:47-0500
_audit_creation_method            fapswitch 2.2
_symmetry_space_group_name_H-M    P1
_symmetry_Int_Tables_number       1
_space_group_crystal_system       triclinic
_cell_length_a                    19.131153
_cell_length_b                    10.95675
_cell_length_c                    18.783758
_cell_angle_alpha                 90.027783
_cell_angle_beta                  88.542666
_cell_angle_gamma                 89.682923
_cell_volume                      3936.02770952

loop_
_atom_site_label
_atom_site_type_symbol
_atom_type_description
_atom_site_fract_x
_atom_site_fract_y
_atom_site_fract_z
_atom_type_partial_charge
C1    C     C_R   0.241259 0.465162 0.647868 0.564616
C2    C     C_R   0.758638 0.464920 0.351809 0.566452
C3    C     C_R   0.741258 0.965164 0.647866 0.563370
C4    C     C_R   0.258638 0.964924 0.351811 0.568076
C5    C     C_2   0.265966 0.810019 0.529506 -0.079452
C6    C     C_2   0.730865 0.813169 0.469644 -0.064400
C7    C     C_2   0.765970 0.310016 0.529504 -0.079191
C8    C     C_2   0.230868 0.313164 0.469646 -0.064675
C9    C     C_R   0.958201 0.659075 0.438804 -0.025858
C10   C     C_R   0.041000 0.654574 0.560811 -0.033677
C11   C     C_R   0.458195 0.159075 0.438806 -0.026609
C12   C     C_R   0.540994 0.154574 0.560813 -0.033052
C13   C     C_R   0.960233 0.885996 0.444149 -0.015328
C14   C     C_R   0.061393 0.873094 0.544980 -0.018781
C15   C     C_R   0.460226 0.385996 0.444153 -0.015126
C16   C     C_R   0.561387 0.373095 0.544983 -0.018877
C17   C     C_R   0.993218 0.991998 0.465491 -0.066604
C18   C     C_R   0.045529 0.984892 0.514760 -0.029649
C19   C     C_R   0.493210 0.491999 0.465496 -0.066308
C20   C     C_R   0.545522 0.484893 0.514764 -0.029919
C21   C     C_R   0.026832 0.766145 0.526533 0.013811
C22   C     C_R   0.980903 0.770177 0.469210 0.028304
C23   C     C_R   0.526826 0.266145 0.526536 0.013906
C24   C     C_R   0.480897 0.270177 0.469213 0.028168
C25   C     C_R   0.020913 0.544951 0.527832 0.019790
C26   C     C_R   0.970949 0.548515 0.475073 0.023381
C27   C     C_R   0.520906 0.044951 0.527834 0.019958
C28   C     C_R   0.470942 0.048516 0.475076 0.023169
C29   C     C_R   0.046738 0.430251 0.548983 -0.047163
C30   C     C_R   0.935253 0.440050 0.459702 -0.050130
C31   C     C_R   0.546730 0.930251 0.548986 -0.047293
C32   C     C_R   0.435245 0.940052 0.459705 -0.049873
C33   C     C_R   0.011683 0.323879 0.533120 -0.102165
C34   C     C_R   0.954058 0.329333 0.490394 -0.113695
C35   C     C_R   0.511673 0.823880 0.533127 -0.102570
C36   C     C_R   0.454047 0.829335 0.490400 -0.113328
C37   C     C_2   0.224066 0.860637 0.933587 -0.088493
C38   C     C_2   0.761733 0.899305 0.072191 -0.092855
C39   C     C_2   0.723901 0.359622 0.933779 -0.082084
C40   C     C_2   0.261859 0.398487 0.072029 -0.098713
C41   C     C_2   0.246893 0.885899 0.089043 0.254444
C42   C     C_2   0.751879 0.891069 0.913174 0.265184
C43   C     C_2   0.745957 0.384356 0.089586 0.257336
C44   C     C_2   0.251896 0.390651 0.913052 0.260720
C45   C     C_R   0.227857 0.873630 0.647342 0.570545
C46   C     C_R   0.772466 0.873199 0.352799 0.567555
C47   C     C_R   0.727855 0.373626 0.647339 0.570673
C48   C     C_R   0.272466 0.373197 0.352800 0.567797
C49   C     C_2   0.184964 0.896434 0.056640 -0.140471
C50   C     C_2   0.809386 0.915389 0.950181 -0.145303
C51   C     C_2   0.684671 0.397763 0.056394 -0.138078
C52   C     C_2   0.309518 0.414368 0.950010 -0.146976
C53   C     C_2   0.173444 0.854837 0.983770 -0.169256
C54   C     C_2   0.815502 0.886900 0.025303 -0.153164
C55   C     C_2   0.673082 0.354825 0.983793 -0.161724
C56   C     C_2   0.315592 0.385564 0.025129 -0.155655
C57   C     C_2   0.011964 0.655485 0.927595 -0.114288
C58   C     C_2   0.012100 0.664712 0.083978 -0.119671
C59   C     C_2   0.487874 0.165668 0.916089 -0.119130
C60   C     C_2   0.487912 0.155143 0.072410 -0.110520
C61   C     C_2   0.027961 0.565361 0.045986 -0.155778
C62   C     C_2   0.041941 0.571871 0.969923 -0.152159
C63   C     C_2   0.457881 0.072505 0.029875 -0.149209
C64   C     C_2   0.471861 0.066372 0.953784 -0.152825
C65   C     C_R   0.061393 0.650235 0.636763 0.519609
C66   C     C_R   0.938314 0.651356 0.363073 0.521243
C67   C     C_R   0.561390 0.150235 0.636762 0.518765
C68   C     C_R   0.438312 0.151356 0.363072 0.521374
C69   C     C_R   0.238824 0.463197 0.849681 0.555520
C70   C     C_R   0.760918 0.462336 0.150615 0.556643
C71   C     C_R   0.738835 0.963202 0.849664 0.560968
C72   C     C_R   0.261094 0.962770 0.150440 0.559167
C73   C     C_R   0.209225 0.829239 0.860938 0.545736
C74   C     C_R   0.774623 0.870430 0.145749 0.534147
C75   C     C_R   0.709151 0.328970 0.860930 0.548392
C76   C     C_R   0.274685 0.370211 0.145669 0.535361
C77   C     C_R   0.031312 0.651782 0.852673 0.554662
C78   C     C_R   0.972777 0.652748 0.150347 0.567450
C79   C     C_R   0.527257 0.153143 0.849708 0.562081
C80   C     C_R   0.468614 0.151475 0.147308 0.558689
C81   C     C_2   0.249593 0.903358 0.574693 0.352525
C82   C     C_2   0.750834 0.904630 0.425169 0.360890
C83   C     C_2   0.749590 0.403353 0.574689 0.352764
C84   C     C_2   0.250835 0.404626 0.425170 0.360719
C85   C     C_2   0.237056 0.906740 0.418080 0.421965
C86   C     C_2   0.762613 0.903499 0.582076 0.429391
C87   C     C_2   0.737054 0.406727 0.418075 0.422257
C88   C     C_2   0.262615 0.403494 0.582079 0.428965
C89   C     C_2   0.275916 0.826168 0.452172 0.365965
C90   C     C_2   0.720367 0.830189 0.546601 0.371272
C91   C     C_2   0.775919 0.326163 0.452169 0.365883
C92   C     C_2   0.220369 0.330183 0.546604 0.371198
Cr1   Cr    Cr6+3 0.113970 0.508630 0.747920 1.057665
Cr2   Cr    Cr6+3 0.886030 0.508630 0.252080 1.054986
Cr3   Cr    Cr6+3 0.613970 0.008630 0.747920 1.060064
Cr4   Cr    Cr6+3 0.386030 0.008630 0.252080 1.058569
Cr5   Cr    Cr6+3 0.269200 0.666740 0.749850 1.040312
Cr6   Cr    Cr6+3 0.730800 0.666740 0.250150 1.043863
Cr7   Cr    Cr6+3 0.769200 0.166740 0.749850 1.045642
Cr8   Cr    Cr6+3 0.230800 0.166740 0.250150 1.038786
Cr9   Cr    Cr6+3 0.112300 0.820070 0.749800 1.040530
Cr10  Cr    Cr6+3 0.887700 0.820070 0.250200 1.028548
Cr11  Cr    Cr6+3 0.612300 0.320070 0.749800 1.038741
Cr12  Cr    Cr6+3 0.387700 0.320070 0.250200 1.032608
H1    H     H_    0.120554 0.831235 0.969411 0.126124
H2    H     H_    0.867687 0.865083 0.043321 0.139902
H3    H     H_    0.620061 0.332178 0.969267 0.118431
H4    H     H_    0.367732 0.363531 0.043177 0.144295
H5    H     H_    0.276443 0.891124 0.945112 0.165998
H6    H     H_    0.709197 0.922399 0.056163 0.155089
H7    H     H_    0.776448 0.388813 0.945707 0.169697
H8    H     H_    0.209346 0.421751 0.055970 0.145186
H9    H     H_    0.025321 0.474835 0.069482 0.171053
H10   H     H_    0.074857 0.499424 0.947654 0.189366
H11   H     H_    0.425017 0.000512 0.051982 0.188181
H12   H     H_    0.474445 0.975954 0.930025 0.174216
H13   H     H_    0.018416 0.755409 0.061383 0.093102
H14   H     H_    0.979294 0.729314 0.948340 0.087641
H15   H     H_    0.520549 0.228476 0.051863 0.084513
H16   H     H_    0.481554 0.256366 0.938915 0.094403
H17   H     H_    0.270723 0.717398 0.549547 0.160615
H18   H     H_    0.723010 0.721491 0.449338 0.165596
H19   H     H_    0.770733 0.217396 0.549546 0.160570
H20   H     H_    0.223013 0.221487 0.449339 0.165587
H21   H     H_    0.980031 0.078191 0.441447 0.130753
H22   H     H_    0.076043 0.063959 0.527775 0.197553
H23   H     H_    0.480021 0.578192 0.441454 0.131280
H24   H     H_    0.576035 0.563961 0.527779 0.197547
H25   H     H_    0.918305 0.896647 0.408887 0.193450
H26   H     H_    0.105338 0.867290 0.577238 0.169757
H27   H     H_    0.418298 0.396645 0.408891 0.193307
H28   H     H_    0.605332 0.367292 0.577241 0.169905
H29   H     H_    0.891783 0.442286 0.425471 0.177741
H30   H     H_    0.091497 0.423856 0.581752 0.201375
H31   H     H_    0.391776 0.942289 0.425473 0.177352
H32   H     H_    0.591490 0.923853 0.581753 0.201522
H33   H     H_    0.027426 0.238928 0.556715 0.153788
H34   H     H_    0.924811 0.247647 0.480791 0.199280
H35   H     H_    0.527414 0.738928 0.556722 0.153533
H36   H     H_    0.424799 0.747650 0.480799 0.199290
H37   H     H_    0.141540 0.944610 0.082546 0.121356
H38   H     H_    0.852483 0.966494 0.926351 0.126554
H39   H     H_    0.641990 0.449431 0.081211 0.121666
H40   H     H_    0.352652 0.465427 0.926219 0.124237
O1    O     O_R   0.043230 0.549300 0.667990 -0.499796
O2    O     O_R   0.956770 0.549300 0.332010 -0.497986
O3    O     O_R   0.543230 0.049300 0.667990 -0.503036
O4    O     O_R   0.456770 0.049300 0.332010 -0.494780
O5    O     O_R   0.262920 0.788600 0.824420 -0.485410
O6    O     O_R   0.737080 0.788600 0.175580 -0.477789
O7    O     O_R   0.762920 0.288600 0.824420 -0.482366
O8    O     O_R   0.237080 0.288600 0.175580 -0.481002
O9    O     O_R   0.167530 0.905110 0.830340 -0.508404
O10   O     O_R   0.832470 0.905110 0.169660 -0.524670
O11   O     O_R   0.667530 0.405110 0.830340 -0.510117
O12   O     O_R   0.332470 0.405110 0.169660 -0.520882
O13   O     O_R   0.054010 0.748440 0.822860 -0.505321
O14   O     O_R   0.945990 0.748440 0.177140 -0.498221
O15   O     O_R   0.554010 0.248440 0.822860 -0.510096
O16   O     O_R   0.445990 0.248440 0.177140 -0.494161
O17   O     O_3   0.165160 0.665150 0.749190 -0.310724
O18   O     O_3   0.834840 0.665150 0.250810 -0.287177
O19   O     O_3   0.665160 0.165150 0.749190 -0.309833
O20   O     O_3   0.334840 0.165150 0.250810 -0.290432
O21   O     O_R   0.178620 0.457600 0.674100 -0.524882
O22   O     O_R   0.821380 0.457600 0.325900 -0.530752
O23   O     O_R   0.678620 0.957600 0.674100 -0.526262
O24   O     O_R   0.321380 0.957600 0.325900 -0.528425
O25   O     O_R   0.284680 0.542100 0.669460 -0.477241
O26   O     O_R   0.715320 0.542100 0.330540 -0.479100
O27   O     O_R   0.784680 0.042100 0.669460 -0.477707
O28   O     O_R   0.215320 0.042100 0.330540 -0.479285
O29   O     O_R   0.262860 0.790390 0.676650 -0.531172
O30   O     O_R   0.737140 0.790390 0.323350 -0.539344
O31   O     O_R   0.762860 0.290390 0.676650 -0.531028
O32   O     O_R   0.237140 0.290390 0.323350 -0.539811
O33   O     O_R   0.167460 0.907030 0.670940 -0.499320
O34   O     O_R   0.832540 0.907030 0.329060 -0.499895
O35   O     O_R   0.667460 0.407030 0.670940 -0.499609
O36   O     O_R   0.332540 0.407030 0.329060 -0.498634
O37   O     O_R   0.053950 0.750220 0.675100 -0.492320
O38   O     O_R   0.946050 0.750220 0.324900 -0.510460
O39   O     O_R   0.553950 0.250220 0.675100 -0.494295
O40   O     O_R   0.446050 0.250220 0.324900 -0.508579
O41   O     O_R   0.043300 0.547370 0.827390 -0.492682
O42   O     O_R   0.956700 0.547370 0.172610 -0.496375
O43   O     O_R   0.543300 0.047370 0.827390 -0.492465
O44   O     O_R   0.456700 0.047370 0.172610 -0.497175
O45   O     O_R   0.178690 0.455820 0.821860 -0.473846
O46   O     O_R   0.821310 0.455820 0.178140 -0.474901
O47   O     O_R   0.678690 0.955820 0.821860 -0.463796
O48   O     O_R   0.321310 0.955820 0.178140 -0.476843
O49   O     O_R   0.284750 0.540170 0.828860 -0.546795
O50   O     O_R   0.715250 0.540170 0.171140 -0.540415
O51   O     O_R   0.784750 0.040170 0.828860 -0.547272
O52   O     O_R   0.215250 0.040170 0.171140 -0.541446
F1    F     F_    0.321819 0.753950 0.414970 -0.637148
F2    F     F_    0.670890 0.763246 0.581815 -0.648607
F3    F     F_    0.821826 0.253953 0.414967 -0.638440
F4    F     F_    0.170893 0.263241 0.581817 -0.648398
O53   O     O_3   0.301077 0.815553 0.060588 -0.592125
C93   C     C_3   0.292995 0.695508 0.085864 -0.100551
H41   H     H_    0.243839 0.654593 0.066584 0.119536
H42   H     H_    0.294187 0.691855 0.145077 0.140338
H43   H     H_    0.337418 0.639718 0.064809 0.157679
O54   O     O_3   0.698913 0.817385 0.940375 -0.570823
C94   C     C_3   0.717551 0.694523 0.927545 -0.096748
H44   H     H_    0.764864 0.667911 0.957247 0.122582
H45   H     H_    0.725775 0.676488 0.869568 0.140510
H46   H     H_    0.673997 0.635735 0.946765 0.159753
O55   O     O_3   0.798316 0.308977 0.062015 -0.580053
C95   C     C_3   0.797363 0.199201 0.100936 -0.090009
H47   H     H_    0.745950 0.152845 0.097076 0.111582
H48   H     H_    0.809970 0.214561 0.157746 0.143527
H49   H     H_    0.838089 0.137445 0.077867 0.158003
O56   O     O_3   0.198885 0.316922 0.940134 -0.584406
C96   C     C_3   0.217799 0.194007 0.927869 -0.096799
H50   H     H_    0.264898 0.167849 0.958047 0.125018
H51   H     H_    0.226518 0.175441 0.870012 0.142420
H52   H     H_    0.174177 0.135227 0.946921 0.159449
F5    F     F_    0.176968 0.949214 0.449328 -0.646586
F6    F     F_    0.825391 0.936448 0.552002 -0.622989
F7    F     F_    0.676961 0.449186 0.449321 -0.646413
F8    F     F_    0.325393 0.436443 0.552005 -0.623169
F9    F     F_    0.247106 0.021660 0.552923 -0.594015
F10   F     F_    0.757731 0.021727 0.447855 -0.588494
F11   F     F_    0.747093 0.521653 0.552916 -0.593882
F12   F     F_    0.257732 0.521723 0.447858 -0.588310

loop_
_geom_bond_atom_site_label_1
_geom_bond_atom_site_label_2
_ccdc_geom_bond_type
Cr2   O2    S    
C7    C83   D    
C59   H16   S    
C6    C82   D    
C87   C91   D    
Cr8   O28   S    
C77   O41   A    
O53   C93   S    
C14   C18   A    
C35   C36   A    
C30   C34   A    
Cr11  O15   S    
Cr10  O14   S    
C85   F5    S    
Cr4   O24   S    
C3    O23   A    
C57   C62   D    
C40   H8    S    
C83   F11   S    
C2    O22   A    
Cr8   O8    S    
C96   H52   S    
C15   C19   A    
C82   F10   S    
C12   C23   A    
C74   O10   A    
C59   C64   D    
C50   C54   S    
C79   O43   A    
C60   C63   D    
Cr11  O39   S    
C32   C36   A    
C14   C21   A    
C16   C20   A    
C62   H10   S    
Cr3   O19   S    
C79   O15   A    
Cr6   O30   S    
C43   C51   D    
C9    C22   A    
C80   O16   A    
Cr7   O27   S    
C76   O8    A    
C5    H17   S    
C11   C24   A    
C67   O39   A    
Cr5   O25   S    
Cr6   O50   S    
C60   H15   S    
Cr5   O49   S    
C46   O34   A    
C9    C66   S    
C56   H4    S    
C47   O35   A    
C35   H35   S    
C5    C81   D    
C46   C82   S    
C52   C56   S    
C78   O14   A    
C69   O49   A    
C39   C55   D    
C88   C92   D    
C29   C33   A    
C4    O24   A    
C40   C56   D    
C93   H43   S    
C49   H37   S    
Cr8   O32   S    
C94   H46   S    
C23   C24   A    
C46   O30   A    
Cr1   O1    S    
C78   O42   A    
C39   C75   S    
C38   H6    S    
C43   O55   S    
Cr10  O10   S    
C37   H5    S    
C68   O4    A    
C45   O33   A    
C72   O52   A    
C63   H11   S    
C44   C52   D    
C58   C61   D    
C39   H7    S    
C29   H30   S    
C66   O38   A    
Cr1   O21   S    
C40   C76   S    
C8    C84   D    
C21   C22   A    
C3    C86   S    
Cr2   O22   S    
Cr12  O16   S    
C41   C49   D    
Cr6   O18   S    
C9    C26   A    
C17   C18   A    
C17   H21   S    
Cr8   O52   S    
C10   C21   A    
C25   C29   A    
Cr4   O4    S    
C12   C67   S    
C86   F6    S    
Cr5   O29   S    
C93   H41   S    
C54   H2    S    
C12   C27   A    
Cr3   O43   S    
C94   H44   S    
Cr10  O38   S    
C57   C77   S    
C28   C32   A    
Cr3   O3    S    
O56   C96   S    
C86   C90   D    
C33   H33   S    
C85   C89   D    
O54   C94   S    
C8    H20   S    
C65   O37   A    
C4    C85   S    
C51   C55   S    
C96   H50   S    
C6    C90   S    
C27   C31   A    
C64   H12   S    
C76   O12   A    
C58   H13   S    
C47   C83   S    
Cr4   O20   S    
C41   O53   S    
C55   H3    S    
C87   F7    S    
C75   O7    A    
Cr2   O46   S    
Cr7   O51   S    
C45   O29   A    
C48   C84   S    
C71   O51   A    
O55   C95   S    
C38   C54   D    
C95   H49   S    
Cr1   O17   S    
C70   O50   A    
C30   H29   S    
C7    C91   S    
C88   F8    S    
C33   C34   A    
C80   O44   A    
Cr7   O31   S    
C2    C87   S    
Cr8   O20   S    
C52   H40   S    
Cr12  O12   S    
C36   H36   S    
C81   F9    S    
C93   H42   S    
C42   C50   D    
C41   C72   S    
C8    C92   S    
C10   C25   A    
Cr11  O11   S    
C15   C24   A    
Cr12  O40   S    
C95   H48   S    
C26   C30   A    
C16   C23   A    
Cr5   O17   S    
C61   H9    S    
Cr10  O34   S    
Cr7   O19   S    
C96   H51   S    
C6    H18   S    
Cr9   O9    S    
C59   C79   S    
C84   F12   S    
C48   O36   A    
Cr9   O37   S    
Cr10  O18   S    
C70   O46   A    
Cr6   O6    S    
C10   C65   S    
C91   F3    S    
C14   H26   S    
C37   C73   S    
C60   C80   S    
Cr5   O5    S    
Cr1   O45   S    
C4    O28   A    
C73   O5    A    
C1    O21   A    
C44   O56   S    
C45   C81   S    
Cr2   O42   S    
C7    H19   S    
C31   H32   S    
C69   O45   A    
Cr3   O23   S    
Cr12  O20   S    
C32   H31   S    
C75   O11   A    
C20   H24   S    
C90   F2    S    
C13   H25   S    
Cr3   O47   S    
C43   C70   S    
C89   F1    S    
Cr11  O19   S    
C13   C17   A    
Cr4   O48   S    
C19   C20   A    
Cr9   O17   S    
C25   C26   A    
C68   O40   A    
C37   C53   D    
C2    O26   A    
C18   H22   S    
C11   C68   S    
C34   H34   S    
C3    O27   A    
Cr12  O36   S    
Cr7   O7    S    
C11   C28   A    
C1    C88   S    
C49   C53   S    
C31   C35   A    
C1    O25   A    
C42   C71   S    
C38   C74   S    
C13   C22   A    
C42   O54   S    
Cr11  O35   S    
C51   H39   S    
C61   C62   S    
C16   H28   S    
C47   O31   A    
C66   O2    A    
Cr9   O33   S    
C58   C78   S    
Cr9   O13   S    
C63   C64   S    
Cr6   O26   S    
C53   H1    S    
C15   H27   S    
C95   H47   S    
C67   O3    A    
C73   O9    A    
C27   C28   A    
C94   H45   S    
C44   C69   S    
C74   O6    A    
C19   H23   S    
C71   O47   A    
C92   F4    S    
C65   O1    A    
Cr4   O44   S    
C72   O48   A    
C5    C89   S    
Cr2   O18   S    
C50   H38   S    
C77   O13   A    
C57   H14   S    
C48   O32   A    
Cr1   O41   S    
