data_mof_unit_60349.cif
_audit_creation_date              2012-12-11T18:47:00-0500
_audit_creation_method            fapswitch 2.2
_symmetry_space_group_name_H-M    P1
_symmetry_Int_Tables_number       1
_space_group_crystal_system       triclinic
_cell_length_a                    8.216964
_cell_length_b                    15.159869
_cell_length_c                    15.003716
_cell_angle_alpha                 99.929384
_cell_angle_beta                  97.19388
_cell_angle_gamma                 99.163098
_cell_volume                      1794.95309861

loop_
_atom_site_label
_atom_site_type_symbol
_atom_type_description
_atom_site_fract_x
_atom_site_fract_y
_atom_site_fract_z
_atom_type_partial_charge
Ba1   Ba    Ba6+2 0.844900 0.542440 0.457470 1.780036
Ba2   Ba    Ba6+2 0.344940 0.457640 0.542540 1.742198
C1    C     C_3   0.627608 0.871289 0.240856 -0.278794
C2    C     C_3   0.617233 0.780228 0.270166 0.334579
C3    C     C_3   0.321856 0.179490 0.271815 0.293562
C4    C     C_3   0.312954 0.131727 0.173242 0.229749
C5    C     C_3   0.076778 0.210856 0.750328 0.222667
C6    C     C_3   0.128677 0.286561 0.834743 -0.265203
C7    C     C_3   0.645353 0.236469 0.800438 0.451350
C8    C     C_3   0.718493 0.232897 0.898215 0.042515
C9    C     C_R   0.368696 0.554547 0.169072 0.006052
C10   C     C_R   0.111276 0.470691 0.202167 -0.026899
C11   C     C_R   0.923035 0.476773 0.766655 -0.292270
C12   C     C_3   0.150079 0.773216 0.227416 0.296246
C13   C     C_R   0.815792 0.453373 0.827494 -0.028229
C14   C     C_R   0.869497 0.478454 0.922355 0.254768
C15   C     C_R   0.041407 0.513319 0.957458 -0.014719
C16   C     C_R   0.143968 0.546162 0.894728 -0.075643
C17   C     C_R   0.115810 0.517021 0.051284 0.042710
C18   C     C_R   0.286654 0.560562 0.081484 -0.052916
C19   C     C_R   0.374383 0.602964 0.021291 -0.040559
C20   C     C_R   0.305081 0.595481 0.930143 0.000535
C21   C     C_R   0.031294 0.473312 0.114449 -0.101109
C22   C     C_R   0.282398 0.501687 0.221791 -0.103315
C23   C     C_3   0.067768 0.765826 0.129113 -0.261588
C24   C     C_R   0.081492 0.529667 0.798332 0.029396
C25   C     C_R   0.330364 0.822543 0.444957 -0.035296
C26   C     C_R   0.587062 0.791493 0.522542 0.038567
C27   C     C_R   0.757935 0.231471 0.540123 -0.075338
C28   C     C_R   0.872828 0.172969 0.553553 0.258108
C29   C     C_R   0.813767 0.078485 0.538985 -0.179641
C30   C     C_R   0.641397 0.042174 0.509821 0.075319
C31   C     C_R   0.534547 0.103352 0.486811 0.000378
C32   C     C_R   0.571282 0.947407 0.500370 0.024520
C33   C     C_R   0.400415 0.915948 0.460420 -0.014076
C34   C     C_3   0.277705 0.737241 0.665203 0.326134
C35   C     C_R   0.300186 0.978928 0.441047 -0.059653
C36   C     C_R   0.364559 0.070664 0.458548 -0.093793
C37   C     C_R   0.661085 0.883895 0.533704 -0.125241
C38   C     C_R   0.425927 0.760996 0.473724 -0.296697
C39   C     C_R   0.599045 0.196889 0.495374 -0.063467
C40   C     C_3   0.318892 0.840820 0.693610 0.233884
C41   C     C_3   0.833979 0.262645 0.195156 0.297032
C42   C     C_3   0.828502 0.160228 0.171407 0.019361
C43   C     C_3   0.782310 0.671800 0.738482 0.350308
C44   C     C_3   0.858973 0.708524 0.838697 -0.013282
H1    H     H_    0.708352 0.788225 0.333581 0.096238
H2    H     H_    0.362900 0.871312 0.637077 0.000134
H3    H     H_    0.419376 0.861306 0.754028 0.133392
H4    H     H_    0.866753 0.291742 0.135251 -0.057409
H5    H     H_    0.708631 0.275057 0.207967 0.110459
H6    H     H_    0.931803 0.146944 0.133453 0.045372
H7    H     H_    0.710194 0.126275 0.126207 0.158846
H8    H     H_    0.876218 0.641572 0.702511 -0.046845
H9    H     H_    0.671238 0.618350 0.734765 0.033897
H10   H     H_    0.596177 0.922062 0.295604 0.119947
H11   H     H_    0.978598 0.756092 0.843014 0.152249
H12   H     H_    0.884065 0.651893 0.872710 0.005337
H13   H     H_    0.489115 0.759339 0.284853 -0.132878
H14   H     H_    0.538361 0.864361 0.176958 0.175644
H15   H     H_    0.280403 0.126762 0.310226 0.055943
H16   H     H_    0.233353 0.227698 0.273112 0.041063
H17   H     H_    0.181392 0.108497 0.140367 0.048802
H18   H     H_    0.375061 0.179865 0.135210 0.100123
H19   H     H_    0.755914 0.894493 0.227729 0.174333
H20   H     H_    0.155424 0.747554 0.081355 0.068984
H21   H     H_    0.983046 0.156452 0.765598 0.072269
H22   H     H_    0.188226 0.180467 0.736786 0.075088
H23   H     H_    0.020987 0.317874 0.851416 0.042963
H24   H     H_    0.178771 0.258993 0.894184 0.126521
H25   H     H_    0.225283 0.340291 0.821635 0.179873
H26   H     H_    0.746051 0.258567 0.761748 -0.041913
H27   H     H_    0.797187 0.179753 0.897820 0.064103
H28   H     H_    0.181045 0.705473 0.234044 -0.030826
H29   H     H_    0.797041 0.299233 0.932393 0.034487
H30   H     H_    0.502025 0.638154 0.042369 0.149228
H31   H     H_    0.907999 0.433782 0.095528 0.149334
H32   H     H_    0.876947 0.460662 0.693874 0.079754
H33   H     H_    0.382473 0.626807 0.887059 0.135713
H34   H     H_    0.370051 0.689733 0.464170 0.069674
H35   H     H_    0.168463 0.959272 0.415029 0.109247
H36   H     H_    0.785289 0.905458 0.572342 0.135065
H37   H     H_    0.265524 0.825778 0.241124 0.034723
H38   H     H_    0.802930 0.304269 0.550457 0.084412
H39   H     H_    0.904034 0.035226 0.549337 0.058746
H40   H     H_    0.277520 0.115845 0.451198 0.051423
H41   H     H_    0.953514 0.712125 0.112721 0.165939
H42   H     H_    0.033541 0.831946 0.119527 0.167189
H43   H     H_    0.387472 0.712541 0.641987 -0.079076
H44   H     H_    0.170863 0.718094 0.608169 0.058041
O1    O     O_2   0.826460 0.445380 0.275370 -0.448856
O2    O     O_3   0.736231 0.743832 0.700163 -0.587175
O3    O     O_3   0.041010 0.800409 0.287256 -0.576622
O4    O     O_2   0.363260 0.554650 0.724690 -0.465349
O5    O     O_3   0.090800 0.551610 0.611090 -0.503766
O6    O     O_3   0.561050 0.386690 0.661770 -0.506233
O7    O     O_3   0.240180 0.700658 0.741176 -0.624186
O8    O     O_3   0.598950 0.388690 0.448890 -0.427407
O9    O     O_3   0.128800 0.338610 0.613910 -0.364724
O10   O     O_2   0.040796 0.250287 0.491039 -0.458004
O11   O     O_3   0.001842 0.245807 0.677097 -0.633470
O12   O     O_3   0.098920 0.448470 0.388920 -0.426106
O13   O     O_3   0.590770 0.611390 0.551120 -0.497755
O14   O     O_2   0.326540 0.275010 0.446300 -0.476190
O15   O     O_3   0.486058 0.226751 0.306676 -0.609369
O16   O     O_2   0.475946 0.456761 0.817778 -0.424645
O17   O     O_3   0.522046 0.291040 0.802418 -0.568186
O18   O     O_3   0.628660 0.613390 0.338240 -0.474239
O19   O     O_2   0.716558 0.552694 0.180086 -0.390806
O20   O     O_3   0.952022 0.299980 0.274077 -0.588763
O21   O     O_3   0.656460 0.717285 0.199740 -0.590830
O22   O     O_2   0.863170 0.725020 0.553760 -0.438337
O23   O     O_3   0.060910 0.661460 0.386100 -0.480121
O24   O     O_2   0.993109 0.821071 0.456630 -0.478068
P1    P     P_3+3 0.996570 0.418570 0.288410 1.070182
P2    P     P_3+3 0.693070 0.712070 0.580610 1.032521
P3    P     P_3+3 0.108737 0.778264 0.395107 0.960726
P4    P     P_3+3 0.193140 0.581510 0.711600 0.991822
P5    P     P_3+3 0.102273 0.221218 0.581816 0.892797
P6    P     P_3+3 0.590975 0.608103 0.219435 1.044819
P7    P     P_3+3 0.506634 0.270451 0.424981 1.009341
P8    P     P_3+3 0.597739 0.398040 0.779616 1.026404
Cl1   Cl    Cl    0.138863 0.885019 0.721032 -0.625516
I1    I     I_    0.851288 0.100919 0.291072 -0.460744
I2    I     I_    0.696615 0.778834 0.913173 -0.371536
Cl2   Cl    Cl    0.407169 0.033506 0.167869 -0.680302
I3    I     I_    0.529478 0.101837 0.729877 -0.461072
I4    I     I_    0.525364 0.205829 0.977917 -0.400847
I5    I     I_    0.414973 0.416214 0.279500 -0.321189
Cl3   Cl    Cl    0.710861 0.487712 0.990414 -0.696051

loop_
_geom_bond_atom_site_label_1
_geom_bond_atom_site_label_2
_ccdc_geom_bond_type
C34   H43   S    
O8    P7    S    
C29   H39   S    
C13   P8    S    
O18   P6    S    
C44   I2    S    
C34   C40   S    
C17   C18   A    
C16   C24   A    
C7    H26   S    
Ba2   P4    S    
C5    C6    S    
C3    O15   S    
C43   C44   S    
C10   C21   A    
C6    H23   S    
C7    I3    S    
O3    P3    S    
C36   H40   S    
C12   H28   S    
Ba2   O5    S    
C33   C35   A    
C35   C36   A    
C20   H33   S    
Ba1   Ba2   S    
Ba1   O22   S    
C28   C29   A    
C8    H27   S    
C28   P5    S    
C26   C38   A    
C39   P7    S    
C13   C14   A    
C9    C22   A    
C23   H41   S    
C32   C33   A    
C1    H10   S    
C4    H18   S    
O7    P4    S    
C43   O2    S    
O12   P1    S    
C26   P2    S    
C5    H22   S    
C42   H7    S    
C14   C15   A    
C38   H34   S    
C34   O7    S    
C41   O20   S    
C14   Cl3   S    
C7    C8    S    
Ba1   O13   S    
C12   O3    S    
C10   P1    S    
C1    H14   S    
C42   H6    S    
Ba1   O1    S    
C19   C20   A    
C44   H12   S    
C35   H35   S    
C1    H19   S    
Ba1   O23   S    
C12   H37   S    
C8    I4    S    
C9    P6    S    
C22   I5    S    
C40   Cl1   S    
C25   P3    S    
O5    P4    S    
C9    C18   A    
O15   P7    S    
C32   C37   A    
O11   P5    S    
Ba2   O4    S    
C4    Cl2   S    
C27   H38   S    
O14   P7    D    
Ba1   O18   S    
C26   C37   A    
C25   C33   A    
O9    P5    S    
C42   I1    S    
C23   H42   S    
O21   P6    S    
C30   C32   A    
C4    H17   S    
C17   C21   A    
C41   C42   S    
C27   C28   A    
C8    H29   S    
C29   C30   A    
C19   H30   S    
Ba2   O14   S    
C25   C38   A    
Ba1   O5    S    
O16   P8    D    
C15   C16   A    
C3    H15   S    
O10   P5    D    
C40   H2    S    
C21   H31   S    
O2    P2    S    
C43   H9    S    
O23   P3    S    
Ba1   P2    S    
C2    O21   S    
C43   H8    S    
C11   C13   A    
C44   H11   S    
C11   C24   A    
C1    C2    S    
O22   P2    D    
C34   H44   S    
C11   H32   S    
C6    H25   S    
C27   C39   A    
C16   C20   A    
C23   H20   S    
C24   P4    S    
C37   H36   S    
Ba1   O8    S    
Ba2   O9    S    
C41   H4    S    
C7    O17   S    
C10   C22   A    
C6    H24   S    
C31   C36   A    
O6    P8    S    
C31   C39   A    
C30   C31   A    
Ba2   O6    S    
O13   P2    S    
O4    P4    D    
C41   H5    S    
C3    C4    S    
Ba2   O13   S    
Ba1   O12   S    
C2    H13   S    
C15   C17   A    
O1    P1    D    
C3    H16   S    
C12   C23   S    
O24   P3    D    
C40   H3    S    
C5    H21   S    
C18   C19   A    
Ba2   O8    S    
C5    O11   S    
Ba2   O12   S    
Ba1   P1    S    
O17   P8    S    
O20   P1    S    
O19   P6    D    
C2    H1    S    
