data_mof_unit_15123.cif
_audit_creation_date              2012-12-10T19:48:22-0500
_audit_creation_method            fapswitch 2.2
_symmetry_space_group_name_H-M    P1
_symmetry_Int_Tables_number       1
_space_group_crystal_system       triclinic
_cell_length_a                    18.252979
_cell_length_b                    18.252979
_cell_length_c                    30.138529
_cell_angle_alpha                 89.997618
_cell_angle_beta                  89.997617
_cell_angle_gamma                 90.000715
_cell_volume                      10041.2911321

loop_
_atom_site_label
_atom_site_type_symbol
_atom_type_description
_atom_site_fract_x
_atom_site_fract_y
_atom_site_fract_z
_atom_type_partial_charge
Br1   Br    Br    0.046247 0.351081 0.375825 -0.542949
Br2   Br    Br    0.148819 0.546501 0.875825 -0.542949
Br3   Br    Br    0.453780 0.148930 0.875819 -0.542957
Br4   Br    Br    0.851169 0.453523 0.875839 -0.542953
Br5   Br    Br    0.546463 0.148835 0.124160 -0.542960
Br6   Br    Br    0.148923 0.453765 0.124175 -0.542956
Br7   Br    Br    0.453512 0.851176 0.124175 -0.542957
Br8   Br    Br    0.851066 0.546208 0.124181 -0.542964
Br9   Br    Br    0.648819 0.046501 0.375825 -0.542949
Br10  Br    Br    0.953780 0.648930 0.375819 -0.542957
Br11  Br    Br    0.351169 0.953523 0.375839 -0.542953
Br12  Br    Br    0.046463 0.648835 0.624160 -0.542960
Br13  Br    Br    0.648923 0.953765 0.624175 -0.542956
Br14  Br    Br    0.953512 0.351176 0.624175 -0.542957
Br15  Br    Br    0.351066 0.046208 0.624181 -0.542964
Br16  Br    Br    0.546247 0.851080 0.875825 -0.542949
C1    C     C_R   0.141266 0.500001 0.000000 0.993328
C2    C     C_1   0.500003 0.217765 0.000002 -0.113618
C3    C     C_R   0.097524 0.593213 0.773330 -0.054133
C4    C     C_R   0.406797 0.902466 0.226669 -0.054134
C5    C     C_R   0.902394 0.593123 0.226661 -0.054278
C6    C     C_R   0.593178 0.097557 0.226659 -0.054136
C7    C     C_R   0.097604 0.406867 0.226662 -0.054270
C8    C     C_R   0.851646 0.642858 0.297224 0.160613
C9    C     C_R   0.853898 0.719841 0.294979 -0.087041
C10   C     C_R   0.800314 0.761681 0.316346 -0.107493
C11   C     C_R   0.744277 0.727154 0.340048 -0.093847
C12   C     C_R   0.741655 0.650705 0.342404 -0.127788
C13   C     C_1   0.782235 0.499997 0.999998 -0.113618
C14   C     C_R   0.795014 0.608582 0.321020 -0.130200
C15   C     C_R   0.357373 0.851441 0.297222 0.160458
C16   C     C_R   0.280380 0.853542 0.295087 -0.086970
C17   C     C_R   0.238727 0.799816 0.316456 -0.107465
C18   C     C_R   0.273456 0.743790 0.340053 -0.093930
C19   C     C_R   0.349911 0.741321 0.342303 -0.127946
C20   C     C_R   0.391843 0.794822 0.320916 -0.130248
C21   C     C_R   0.148374 0.357155 0.297221 0.160602
C22   C     C_R   0.146129 0.280172 0.294987 -0.087031
C23   C     C_R   0.199722 0.238343 0.316352 -0.107495
C24   C     C_1   0.499997 0.782235 0.999999 -0.113628
C25   C     C_R   0.255761 0.272882 0.340041 -0.093856
C26   C     C_R   0.258374 0.349331 0.342386 -0.127800
C27   C     C_R   0.205006 0.391443 0.321004 -0.130207
C28   C     C_R   0.642596 0.148589 0.297206 0.160456
C29   C     C_R   0.719590 0.146499 0.295066 -0.086962
C30   C     C_R   0.761237 0.200229 0.316430 -0.107467
C31   C     C_R   0.726501 0.256250 0.340028 -0.093933
C32   C     C_R   0.650046 0.258708 0.342284 -0.127942
C33   C     C_R   0.608120 0.205202 0.320901 -0.130248
C34   C     C_R   0.851425 0.357388 0.702794 0.160457
C35   C     C_1   0.717765 0.000003 0.500001 -0.113629
C36   C     C_R   0.853524 0.280395 0.704934 -0.086965
C37   C     C_R   0.799798 0.238742 0.683570 -0.107468
C38   C     C_R   0.743773 0.273472 0.659972 -0.093929
C39   C     C_R   0.741307 0.349927 0.657716 -0.127940
C40   C     C_R   0.794809 0.391858 0.679099 -0.130248
C41   C     C_R   0.357128 0.148341 0.702776 0.160613
C42   C     C_R   0.280145 0.146082 0.705021 -0.087045
C43   C     C_R   0.238300 0.199662 0.683654 -0.107494
C44   C     C_R   0.272823 0.255702 0.659952 -0.093842
C45   C     C_R   0.349271 0.258331 0.657596 -0.127787
C46   C     C_1   0.000003 0.717765 0.500002 -0.113618
C47   C     C_R   0.391400 0.204976 0.678980 -0.130200
C48   C     C_R   0.148545 0.642642 0.702778 0.160458
C49   C     C_R   0.146436 0.719635 0.704913 -0.086972
C50   C     C_R   0.200157 0.761294 0.683544 -0.107467
C51   C     C_R   0.256187 0.726570 0.659947 -0.093924
C52   C     C_R   0.258664 0.650116 0.657697 -0.127945
C53   C     C_R   0.205167 0.608178 0.679084 -0.130248
C54   C     C_R   0.642859 0.851639 0.702779 0.160604
C55   C     C_R   0.719841 0.853890 0.705013 -0.087034
C56   C     C_R   0.761675 0.800302 0.683648 -0.107496
C57   C     C_1   0.282235 0.999997 0.499998 -0.113618
C58   C     C_R   0.727141 0.744260 0.659959 -0.093851
C59   C     C_R   0.650693 0.741639 0.657614 -0.127800
C60   C     C_R   0.608576 0.795004 0.678996 -0.130207
C61   C     C_R   0.351646 0.142858 0.797224 0.160613
C62   C     C_R   0.353898 0.219841 0.794979 -0.087041
C63   C     C_R   0.300314 0.261681 0.816346 -0.107493
C64   C     C_R   0.244277 0.227154 0.840048 -0.093847
C65   C     C_R   0.241655 0.150705 0.842404 -0.127788
C66   C     C_R   0.295015 0.108582 0.821020 -0.130200
C67   C     C_R   0.857373 0.351441 0.797222 0.160458
C68   C     C_1   0.999997 0.282235 0.499998 -0.113628
C69   C     C_R   0.780380 0.353542 0.795087 -0.086970
C70   C     C_R   0.738727 0.299816 0.816456 -0.107465
C71   C     C_R   0.773456 0.243790 0.840053 -0.093930
C72   C     C_R   0.849911 0.241321 0.842303 -0.127946
C73   C     C_R   0.891843 0.294822 0.820916 -0.130248
C74   C     C_R   0.648374 0.857155 0.797221 0.160602
C75   C     C_R   0.646130 0.780172 0.794987 -0.087031
C76   C     C_R   0.699722 0.738343 0.816352 -0.107495
C77   C     C_R   0.755761 0.772882 0.840041 -0.093856
C78   C     C_R   0.758374 0.849331 0.842387 -0.127800
C79   C     C_R   0.999999 0.499998 0.086816 1.016589
C80   C     C_R   0.705005 0.891442 0.821004 -0.130207
C81   C     C_R   0.142596 0.648589 0.797206 0.160456
C82   C     C_R   0.219590 0.646499 0.795066 -0.086962
C83   C     C_R   0.261237 0.700229 0.816430 -0.107467
C84   C     C_R   0.226501 0.756250 0.840028 -0.093933
C85   C     C_R   0.150046 0.758708 0.842284 -0.127942
C86   C     C_R   0.108120 0.705202 0.820901 -0.130248
C87   C     C_R   0.351425 0.857388 0.202794 0.160457
C88   C     C_R   0.353524 0.780395 0.204934 -0.086965
C89   C     C_R   0.299798 0.738742 0.183570 -0.107468
C90   C     C_R   0.499998 0.999999 0.086816 1.016560
C91   C     C_R   0.243773 0.773472 0.159972 -0.093929
C92   C     C_R   0.241307 0.849927 0.157716 -0.127940
C93   C     C_R   0.294809 0.891858 0.179099 -0.130248
C94   C     C_R   0.857128 0.648341 0.202776 0.160613
C95   C     C_R   0.780145 0.646082 0.205021 -0.087044
C96   C     C_R   0.738300 0.699662 0.183653 -0.107494
C97   C     C_R   0.772823 0.755702 0.159952 -0.093842
C98   C     C_R   0.849271 0.758331 0.157596 -0.127787
C99   C     C_R   0.891399 0.704976 0.178980 -0.130200
C100  C     C_R   0.648545 0.142642 0.202778 0.160458
C101  C     C_R   0.000001 0.500001 0.913184 1.016555
C102  C     C_R   0.646436 0.219635 0.204913 -0.086972
C103  C     C_R   0.700157 0.261294 0.183544 -0.107467
C104  C     C_R   0.756187 0.226570 0.159947 -0.093924
C105  C     C_R   0.758664 0.150116 0.157697 -0.127945
C106  C     C_R   0.705167 0.108178 0.179084 -0.130248
C107  C     C_R   0.142859 0.351639 0.202779 0.160603
C108  C     C_R   0.219841 0.353890 0.205013 -0.087034
C109  C     C_R   0.261675 0.300302 0.183648 -0.107496
C110  C     C_R   0.227141 0.244260 0.159959 -0.093851
C111  C     C_R   0.150693 0.241639 0.157614 -0.127800
C112  C     C_R   0.500001 0.141266 0.000001 0.993336
C113  C     C_R   0.500001 0.000000 0.913184 1.016585
C114  C     C_R   0.108576 0.295004 0.178996 -0.130207
C115  C     C_R   0.499999 0.999998 0.586816 1.016589
C116  C     C_R   0.999998 0.499999 0.586816 1.016560
C117  C     C_R   0.500001 0.000001 0.413184 1.016555
C118  C     C_R   0.000001 0.500000 0.413184 1.016585
C119  C     C_1   0.282581 0.500003 0.000002 -0.144124
C120  C     C_1   0.500003 0.282581 0.000002 -0.144119
C121  C     C_1   0.717419 0.499997 0.999998 -0.144119
C122  C     C_1   0.499997 0.717419 0.999998 -0.144124
C123  C     C_1   0.782581 0.000003 0.500002 -0.144124
C124  C     C_R   0.858734 0.499999 0.999999 0.993337
C125  C     C_1   0.000003 0.782581 0.500002 -0.144119
C126  C     C_1   0.217419 0.999997 0.499998 -0.144119
C127  C     C_1   0.999997 0.217419 0.499998 -0.144124
C128  C     C_R   0.500000 0.359092 0.000001 0.916830
C129  C     C_R   0.640907 0.499999 0.999999 0.916830
C130  C     C_R   0.499999 0.640907 0.999999 0.916831
C131  C     C_R   0.359092 0.500000 0.000001 0.916831
C132  C     C_R   0.000000 0.859093 0.500001 0.916830
C133  C     C_R   0.140907 0.999999 0.499999 0.916830
C134  C     C_R   0.999999 0.140907 0.499999 0.916831
C135  C     C_R   0.499999 0.858734 1.000000 0.993328
C136  C     C_R   0.859092 0.000000 0.500001 0.916831
C137  C     C_R   0.031826 0.441422 0.342860 0.154007
C138  C     C_R   0.558519 0.031917 0.342859 0.154078
C139  C     C_R   0.968189 0.558583 0.342859 0.153997
C140  C     C_R   0.441469 0.968100 0.342865 0.154079
C141  C     C_R   0.031894 0.558534 0.657135 0.154075
C142  C     C_R   0.558581 0.968179 0.657140 0.154003
C143  C     C_R   0.968089 0.441477 0.657141 0.154074
C144  C     C_R   0.441414 0.031806 0.657141 0.153993
C145  C     C_R   0.531826 0.941422 0.842860 0.154007
C146  C     C_R   0.641266 0.000001 0.500000 0.993328
C147  C     C_R   0.058519 0.531917 0.842859 0.154078
C148  C     C_R   0.468189 0.058583 0.842859 0.153997
C149  C     C_R   0.941469 0.468100 0.842865 0.154079
C150  C     C_R   0.531894 0.058534 0.157135 0.154075
C151  C     C_R   0.058581 0.468179 0.157140 0.154003
C152  C     C_R   0.468089 0.941477 0.157141 0.154074
C153  C     C_R   0.941414 0.531806 0.157141 0.153993
C154  C     C_R   0.000005 0.500002 0.365407 -0.192218
C155  C     C_R   0.499997 0.000005 0.365408 -0.192243
C156  C     C_R   0.999995 0.500003 0.634592 -0.192238
C157  C     C_R   0.000001 0.641266 0.500001 0.993336
C158  C     C_R   0.499998 0.999994 0.634593 -0.192213
C159  C     C_R   0.500005 0.000002 0.865407 -0.192218
C160  C     C_R   0.999997 0.500005 0.865408 -0.192243
C161  C     C_R   0.499995 0.000003 0.134592 -0.192238
C162  C     C_R   0.999998 0.499994 0.134593 -0.192213
C163  C     C_R   0.957260 0.552556 0.296678 0.017461
C164  C     C_R   0.447484 0.957210 0.296681 0.017384
C165  C     C_R   0.042751 0.447447 0.296678 0.017458
C166  C     C_R   0.552498 0.042810 0.296675 0.017385
C167  C     C_R   0.957195 0.447498 0.703325 0.017386
C168  C     C_R   0.358734 0.999999 0.499999 0.993337
C169  C     C_R   0.447440 0.042735 0.703322 0.017462
C170  C     C_R   0.042785 0.552520 0.703319 0.017386
C171  C     C_R   0.552557 0.957253 0.703322 0.017460
C172  C     C_R   0.457260 0.052556 0.796678 0.017461
C173  C     C_R   0.947484 0.457210 0.796681 0.017384
C174  C     C_R   0.542751 0.947447 0.796678 0.017458
C175  C     C_R   0.052498 0.542810 0.796675 0.017385
C176  C     C_R   0.457195 0.947498 0.203324 0.017386
C177  C     C_R   0.947440 0.542735 0.203322 0.017462
C178  C     C_R   0.542785 0.052520 0.203319 0.017386
C179  C     C_R   0.999999 0.358734 0.500000 0.993328
C180  C     C_R   0.052557 0.457253 0.203321 0.017460
C181  C     C_R   0.000004 0.499999 0.273280 -0.017458
C182  C     C_R   0.499991 0.000010 0.273280 -0.017528
C183  C     C_R   0.999990 0.500009 0.726719 -0.017528
C184  C     C_R   0.500001 0.999996 0.726719 -0.017458
C185  C     C_R   0.500004 0.999999 0.773280 -0.017458
C186  C     C_R   0.999991 0.500010 0.773280 -0.017528
C187  C     C_R   0.499990 0.000009 0.226719 -0.017528
C188  C     C_R   0.000001 0.499996 0.226719 -0.017458
C189  C     C_R   0.906868 0.597597 0.273338 -0.054278
C190  C     C_1   0.217765 0.500003 0.000001 -0.113628
C191  C     C_R   0.402452 0.906812 0.273341 -0.054136
C192  C     C_R   0.093142 0.402404 0.273338 -0.054270
C193  C     C_R   0.597524 0.093213 0.273330 -0.054133
C194  C     C_R   0.906797 0.402467 0.726669 -0.054134
C195  C     C_R   0.402394 0.093123 0.726661 -0.054278
C196  C     C_R   0.093178 0.597557 0.726659 -0.054136
C197  C     C_R   0.597604 0.906867 0.726662 -0.054270
C198  C     C_R   0.406868 0.097597 0.773339 -0.054278
C199  C     C_R   0.902452 0.406812 0.773341 -0.054136
C200  C     C_R   0.593142 0.902405 0.773338 -0.054270
H1    H     H_    0.897165 0.747168 0.276789 0.128668
H2    H     H_    0.451051 0.792086 0.322597 0.128589
H3    H     H_    0.102862 0.252836 0.276807 0.128679
H4    H     H_    0.197806 0.179150 0.314546 0.139328
H5    H     H_    0.297194 0.240400 0.356555 0.136180
H6    H     H_    0.301895 0.375977 0.360675 0.127769
H7    H     H_    0.207853 0.450644 0.322760 0.128564
H8    H     H_    0.747075 0.103241 0.276963 0.128825
H9    H     H_    0.820438 0.198432 0.314694 0.139452
H10   H     H_    0.758837 0.297792 0.356539 0.136124
H11   H     H_    0.623249 0.302213 0.360504 0.127775
H12   H     H_    0.802237 0.820874 0.314532 0.139321
H13   H     H_    0.548912 0.207930 0.322586 0.128586
H14   H     H_    0.896784 0.252914 0.723037 0.128823
H15   H     H_    0.801601 0.179541 0.685305 0.139450
H16   H     H_    0.702234 0.241132 0.643462 0.136131
H17   H     H_    0.697799 0.376720 0.639496 0.127777
H18   H     H_    0.792074 0.451066 0.677414 0.128588
H19   H     H_    0.252823 0.102813 0.723211 0.128667
H20   H     H_    0.179108 0.197734 0.685468 0.139320
H21   H     H_    0.240328 0.297125 0.643437 0.136191
H22   H     H_    0.375905 0.301854 0.639298 0.127770
H23   H     H_    0.702851 0.759644 0.356563 0.136185
H24   H     H_    0.450601 0.207835 0.677215 0.128561
H25   H     H_    0.103171 0.747110 0.723015 0.128823
H26   H     H_    0.198345 0.820495 0.685276 0.139459
H27   H     H_    0.297722 0.758915 0.643434 0.136145
H28   H     H_    0.302177 0.623328 0.639477 0.127781
H29   H     H_    0.207910 0.548971 0.677403 0.128591
H30   H     H_    0.747173 0.897161 0.723193 0.128677
H31   H     H_    0.820868 0.802223 0.685454 0.139327
H32   H     H_    0.759627 0.702829 0.643445 0.136187
H33   H     H_    0.624051 0.698116 0.639325 0.127772
H34   H     H_    0.698135 0.624068 0.360702 0.127768
H35   H     H_    0.549375 0.792151 0.677240 0.128566
H36   H     H_    0.397165 0.247168 0.776789 0.128668
H37   H     H_    0.302237 0.320874 0.814532 0.139321
H38   H     H_    0.202851 0.259644 0.856563 0.136185
H39   H     H_    0.198135 0.124068 0.860702 0.127768
H40   H     H_    0.292161 0.049380 0.822785 0.128560
H41   H     H_    0.752900 0.396803 0.776984 0.128824
H42   H     H_    0.679526 0.301621 0.814724 0.139460
H43   H     H_    0.741116 0.202252 0.856566 0.136138
H44   H     H_    0.876703 0.197811 0.860523 0.127779
H45   H     H_    0.792161 0.549380 0.322784 0.128560
H46   H     H_    0.951051 0.292086 0.822597 0.128589
H47   H     H_    0.602862 0.752836 0.776807 0.128679
H48   H     H_    0.697806 0.679150 0.814546 0.139328
H49   H     H_    0.797194 0.740400 0.856555 0.136180
H50   H     H_    0.801895 0.875977 0.860675 0.127769
H51   H     H_    0.707853 0.950644 0.822760 0.128564
H52   H     H_    0.247075 0.603241 0.776963 0.128825
H53   H     H_    0.320438 0.698432 0.814694 0.139452
H54   H     H_    0.258837 0.797792 0.856539 0.136124
H55   H     H_    0.123249 0.802213 0.860504 0.127775
H56   H     H_    0.252900 0.896803 0.276985 0.128824
H57   H     H_    0.048912 0.707930 0.822586 0.128586
H58   H     H_    0.396784 0.752914 0.223037 0.128823
H59   H     H_    0.301601 0.679541 0.185305 0.139450
H60   H     H_    0.202235 0.741132 0.143462 0.136131
H61   H     H_    0.197799 0.876720 0.139496 0.127777
H62   H     H_    0.292074 0.951066 0.177414 0.128588
H63   H     H_    0.752823 0.602813 0.223211 0.128667
H64   H     H_    0.679108 0.697734 0.185468 0.139320
H65   H     H_    0.740328 0.797125 0.143437 0.136191
H66   H     H_    0.875905 0.801854 0.139298 0.127770
H67   H     H_    0.179525 0.801621 0.314724 0.139460
H68   H     H_    0.950601 0.707835 0.177215 0.128561
H69   H     H_    0.603171 0.247110 0.223015 0.128823
H70   H     H_    0.698345 0.320495 0.185276 0.139459
H71   H     H_    0.797722 0.258915 0.143434 0.136145
H72   H     H_    0.802177 0.123328 0.139477 0.127781
H73   H     H_    0.707910 0.048971 0.177403 0.128591
H74   H     H_    0.247173 0.397161 0.223193 0.128677
H75   H     H_    0.320868 0.302223 0.185454 0.139327
H76   H     H_    0.259628 0.202829 0.143445 0.136187
H77   H     H_    0.124051 0.198116 0.139325 0.127772
H78   H     H_    0.241116 0.702252 0.356567 0.136138
H79   H     H_    0.049375 0.292151 0.177240 0.128566
H80   H     H_    0.376703 0.697811 0.360523 0.127779
O1    O     O_R   0.107310 0.560570 0.000010 -0.614739
O2    O     O_R   0.939430 0.607310 0.500010 -0.614874
O3    O     O_R   0.392690 0.939430 0.500010 -0.614738
O4    O     O_R   0.060570 0.392690 0.500010 -0.614872
O5    O     O_R   0.607310 0.939430 0.499990 -0.614875
O6    O     O_R   0.939430 0.392690 0.499990 -0.614743
O7    O     O_R   0.392690 0.060570 0.499990 -0.614878
O8    O     O_R   0.060570 0.607310 0.499990 -0.614742
O9    O     O_R   0.999950 0.560580 0.066080 -0.609657
O10   O     O_R   0.439420 0.999950 0.066080 -0.609591
O11   O     O_R   0.000050 0.439420 0.066080 -0.609648
O12   O     O_R   0.439430 0.107310 0.000010 -0.614874
O13   O     O_R   0.560580 0.000050 0.066080 -0.609599
O14   O     O_R   0.999950 0.439420 0.933920 -0.609598
O15   O     O_R   0.439420 0.000050 0.933920 -0.609655
O16   O     O_R   0.000050 0.560580 0.933920 -0.609590
O17   O     O_R   0.560580 0.999950 0.933920 -0.609646
O18   O     O_R   0.499950 0.060580 0.566080 -0.609657
O19   O     O_R   0.939420 0.499950 0.566080 -0.609591
O20   O     O_R   0.500050 0.939420 0.566080 -0.609648
O21   O     O_R   0.060580 0.500050 0.566080 -0.609599
O22   O     O_R   0.499950 0.939420 0.433920 -0.609598
O23   O     O_R   0.892690 0.439430 0.000010 -0.614738
O24   O     O_R   0.939420 0.500050 0.433920 -0.609655
O25   O     O_R   0.500050 0.060580 0.433920 -0.609590
O26   O     O_R   0.060580 0.499950 0.433920 -0.609646
O27   O     O_R   0.499980 0.392670 0.037330 -0.611451
O28   O     O_R   0.607330 0.499980 0.037330 -0.611409
O29   O     O_R   0.500020 0.607330 0.037330 -0.611454
O30   O     O_R   0.392670 0.500020 0.037330 -0.611408
O31   O     O_R   0.499980 0.607330 0.962670 -0.611408
O32   O     O_R   0.607330 0.500020 0.962670 -0.611451
O33   O     O_R   0.500020 0.392670 0.962670 -0.611409
O34   O     O_R   0.560570 0.892690 0.000010 -0.614872
O35   O     O_R   0.392670 0.499980 0.962670 -0.611453
O36   O     O_R   0.999980 0.892670 0.537330 -0.611451
O37   O     O_R   0.107330 0.999980 0.537330 -0.611409
O38   O     O_R   0.000020 0.107330 0.537330 -0.611454
O39   O     O_R   0.892670 0.000020 0.537330 -0.611408
O40   O     O_R   0.999980 0.107330 0.462670 -0.611408
O41   O     O_R   0.107330 0.000020 0.462670 -0.611451
O42   O     O_R   0.000020 0.892670 0.462670 -0.611409
O43   O     O_R   0.892670 0.999980 0.462670 -0.611453
O44   O     O_R   0.107310 0.439430 0.999990 -0.614875
O45   O     O_R   0.439430 0.892690 0.999990 -0.614743
O46   O     O_R   0.892690 0.560570 0.999990 -0.614878
O47   O     O_R   0.560570 0.107310 0.999990 -0.614742
O48   O     O_R   0.607310 0.060570 0.500010 -0.614739
Zn1   Zn    Zn3+2 0.000000 0.580890 0.000000 1.011452
Zn2   Zn    Zn3+2 0.500000 0.500000 0.950170 1.005946
Zn3   Zn    Zn3+2 0.000000 1.000000 0.549830 1.005941
Zn4   Zn    Zn3+2 0.000000 1.000000 0.450170 1.005946
Zn5   Zn    Zn3+2 0.419110 0.000000 0.000000 1.011451
Zn6   Zn    Zn3+2 0.000000 0.419110 0.000000 1.011450
Zn7   Zn    Zn3+2 0.580890 0.000000 0.000000 1.011450
Zn8   Zn    Zn3+2 0.500000 0.080890 0.500000 1.011452
Zn9   Zn    Zn3+2 0.919110 0.500000 0.500000 1.011451
Zn10  Zn    Zn3+2 0.500000 0.919110 0.500000 1.011450
Zn11  Zn    Zn3+2 0.080890 0.500000 0.500000 1.011450
Zn12  Zn    Zn3+2 0.500000 0.500000 0.049830 1.005941

loop_
_geom_bond_atom_site_label_1
_geom_bond_atom_site_label_2
_ccdc_geom_bond_type
C104  H71   S    
Br7   C152  S    
C171  C197  A    
C110  C111  A    
C62   H36   S    
C124  O46   A    
C39   C40   A    
C142  C171  A    
C74   C200  S    
C93   H62   S    
C134  O40   A    
C23   C25   A    
O43   Zn4   S    
C64   H38   S    
C1    C190  S    
C108  H74   S    
O5    Zn10  S    
C168  O3    A    
C68   C179  S    
C123  C136  S    
C118  O26   A    
C92   C93   A    
C129  O32   A    
C18   C19   A    
C135  O45   A    
C45   C47   A    
C94   C95   A    
O22   Zn10  S    
C142  C158  A    
C24   C122  T    
C7    C180  A    
C34   C36   A    
C132  O42   A    
Br12  C141  S    
C180  C188  A    
C90   C161  S    
C101  O16   A    
C43   C44   A    
C79   O11   A    
C88   C89   A    
C61   C198  S    
C98   C99   A    
C57   C126  T    
C143  C156  A    
C3    C196  A    
C42   H19   S    
C71   H43   S    
C153  C177  A    
C61   C62   A    
C149  C160  A    
C95   H63   S    
O26   Zn11  S    
C59   C60   A    
C15   C191  S    
C21   C22   A    
C63   H37   S    
C150  C161  A    
O44   Zn6   S    
C141  C170  A    
C78   C80   A    
C76   H48   S    
Br3   C148  S    
C119  C190  T    
C53   H29   S    
C135  O34   A    
C179  O4    A    
C21   C192  S    
C170  C183  A    
C112  O47   A    
C88   H58   S    
C75   H47   S    
Br8   C153  S    
C134  O38   A    
C57   C168  S    
C29   H8    S    
O34   Zn7   S    
O9    Zn1   S    
C148  C172  A    
O46   Zn1   S    
C90   O13   A    
C50   H26   S    
C152  C176  A    
C171  C184  A    
Br15  C144  S    
C16   C17   A    
C140  C164  A    
C31   H10   S    
C61   C66   A    
C100  C102  A    
C17   H67   S    
O14   Zn6   S    
C164  C182  A    
C151  C162  A    
C72   C73   A    
C82   C83   A    
O17   Zn7   S    
C130  O31   A    
C15   C20   A    
C48   C196  S    
C116  C156  S    
C69   H41   S    
C79   O9    A    
C3    C175  A    
C98   H66   S    
C163  C189  A    
C112  O12   A    
C8    C189  S    
C95   C96   A    
O3    Zn10  S    
O15   Zn5   S    
C165  C181  A    
C81   C82   A    
C3    C81   S    
C107  C108  A    
C37   C38   A    
C89   C91   A    
C126  C133  S    
C22   C23   A    
C194  C199  A    
C148  C159  A    
C28   C193  S    
O18   Zn8   S    
C102  H69   S    
C2    C112  S    
C18   H78   S    
C90   O10   A    
O25   Zn8   S    
C31   C32   A    
C82   H52   S    
C137  C154  A    
C183  C186  A    
C91   C92   A    
C169  C195  A    
C2    C120  T    
C111  H77   S    
C6    C100  S    
C50   C51   A    
C40   H18   S    
O21   Zn11  S    
C144  C169  A    
C38   H16   S    
O30   Zn12  S    
C41   C47   A    
C67   C73   A    
C1    O1    A    
C75   C76   A    
C172  C198  A    
C7    C107  S    
C9    C10   A    
C48   C53   A    
C46   C157  S    
C49   H25   S    
C34   C40   A    
C105  H72   S    
O40   Zn4   S    
C27   H7    S    
C96   H64   S    
C58   H32   S    
C15   C16   A    
C115  O20   A    
C130  O29   A    
Br5   C150  S    
C65   H39   S    
C109  H75   S    
C110  H76   S    
O24   Zn9   S    
C119  C131  S    
C107  C114  A    
O19   Zn9   S    
C92   H61   S    
C87   C88   A    
C104  C105  A    
C13   C124  S    
C38   C39   A    
C22   H3    S    
C113  C159  S    
C150  C178  A    
C145  C174  A    
Br10  C139  S    
O10   Zn5   S    
C74   C80   A    
C113  O17   A    
C173  C186  A    
C136  O39   A    
Br14  C143  S    
C55   C56   A    
C128  O27   A    
C41   C42   A    
C122  C130  S    
C84   C85   A    
C30   H9    S    
C138  C155  A    
C12   H34   S    
O11   Zn6   S    
C195  C198  A    
C34   C194  S    
C118  C154  S    
C157  O8    A    
C147  C175  A    
C44   H21   S    
C4    C191  A    
C5    C177  A    
C26   H6    S    
C35   C123  T    
O1    Zn1   S    
C71   C72   A    
C85   C86   A    
C170  C196  A    
O13   Zn7   S    
C25   C26   A    
Br13  C142  S    
C9    H1    S    
C19   C20   A    
C41   C195  S    
C113  O15   A    
C11   H23   S    
C4    C87   S    
C84   H54   S    
C29   C30   A    
C36   C37   A    
C167  C194  A    
C85   H55   S    
O23   Zn6   S    
C10   C11   A    
C100  C106  A    
C45   H22   S    
C121  C129  S    
O33   Zn2   S    
O20   Zn10  S    
O4    Zn11  S    
C77   H49   S    
C179  O6    A    
C152  C161  A    
C115  O18   A    
Br4   C149  S    
C181  C188  A    
C70   H42   S    
C173  C199  A    
O35   Zn2   S    
C101  O14   A    
O41   Zn4   S    
C10   H12   S    
C52   C53   A    
O47   Zn7   S    
C149  C173  A    
C5    C94   S    
C54   C55   A    
C164  C191  A    
O39   Zn3   S    
C81   C86   A    
C19   H80   S    
C66   H40   S    
C136  O43   A    
C139  C163  A    
C51   C52   A    
C89   H59   S    
C165  C192  A    
C132  O36   A    
C56   C58   A    
O2    Zn9   S    
C20   H2    S    
C47   H24   S    
C51   H27   S    
C70   C71   A    
C42   C43   A    
C69   C70   A    
C114  H79   S    
C83   H53   S    
C44   C45   A    
C21   C27   A    
O32   Zn2   S    
C79   C162  S    
C157  O2    A    
Br1   C137  S    
C91   H60   S    
C105  C106  A    
O27   Zn12  S    
O16   Zn1   S    
C67   C69   A    
C137  C165  A    
C109  C110  A    
O38   Zn3   S    
C16   H56   S    
C26   C27   A    
C118  O24   A    
C28   C29   A    
C116  O19   A    
C117  O25   A    
C97   C98   A    
C197  C200  A    
C124  O23   A    
C30   C31   A    
O37   Zn3   S    
C115  C158  S    
C54   C197  S    
C144  C158  A    
Br2   C147  S    
C4    C176  A    
C67   C199  S    
C103  C104  A    
Br16  C145  S    
C13   C121  T    
C87   C93   A    
C14   H45   S    
C48   C49   A    
C117  C155  S    
C120  C128  S    
C146  O48   A    
C139  C154  A    
C36   H14   S    
C74   C75   A    
O31   Zn2   S    
C76   C77   A    
C176  C187  A    
C133  O41   A    
C86   H57   S    
C33   H13   S    
C72   H44   S    
C168  O7    A    
O29   Zn12  S    
C182  C187  A    
C129  O28   A    
C73   H46   S    
C55   H30   S    
C59   H33   S    
C60   H35   S    
C174  C200  A    
C94   C99   A    
C25   H5    S    
C97   H65   S    
C28   C33   A    
O48   Zn8   S    
C77   C78   A    
C7    C192  A    
C151  C180  A    
C43   H20   S    
C166  C182  A    
C131  O35   A    
C65   C66   A    
C177  C188  A    
C35   C146  S    
C56   H31   S    
C117  O22   A    
C141  C156  A    
C145  C159  A    
C133  O37   A    
C6    C193  A    
C172  C185  A    
O42   Zn4   S    
C5    C189  A    
C102  C103  A    
C131  O30   A    
C125  C132  S    
O45   Zn5   S    
C127  C134  S    
C184  C185  A    
O7    Zn8   S    
C175  C186  A    
C1    O44   A    
C80   H51   S    
C106  H73   S    
C39   H17   S    
C147  C160  A    
C96   C97   A    
C78   H50   S    
C58   C59   A    
C23   H4    S    
C8    C9    A    
C32   H11   S    
C62   C63   A    
C163  C181  A    
C68   C127  T    
C166  C193  A    
C167  C183  A    
C24   C135  S    
O28   Zn12  S    
C83   C84   A    
C17   C18   A    
O12   Zn5   S    
Br11  C140  S    
C37   H15   S    
C101  C160  S    
O6    Zn9   S    
Br9   C138  S    
C103  H70   S    
C54   C60   A    
C46   C125  T    
C128  O33   A    
C153  C162  A    
O8    Zn11  S    
Br6   C151  S    
C32   C33   A    
C116  O21   A    
C64   C65   A    
C174  C185  A    
C99   H68   S    
C140  C155  A    
C12   C14   A    
C111  C114  A    
C146  O5    A    
C52   H28   S    
C178  C187  A    
C138  C166  A    
C169  C184  A    
C8    C14   A    
O36   Zn3   S    
C63   C64   A    
C49   C50   A    
C11   C12   A    
C6    C178  A    
C143  C167  A    
C108  C109  A    
