data_mof_unit_49609.cif
_audit_creation_date              2012-12-10T16:54:31-0500
_audit_creation_method            fapswitch 2.2
_symmetry_space_group_name_H-M    P1
_symmetry_Int_Tables_number       1
_space_group_crystal_system       triclinic
_cell_length_a                    15.015903
_cell_length_b                    10.997056
_cell_length_c                    9.792399
_cell_angle_alpha                 88.880959
_cell_angle_beta                  89.140758
_cell_angle_gamma                 90.162788
_cell_volume                      1616.5278152

loop_
_atom_site_label
_atom_site_type_symbol
_atom_type_description
_atom_site_fract_x
_atom_site_fract_y
_atom_site_fract_z
_atom_type_partial_charge
C1    C     C_R   0.503473 0.265919 0.501590 0.880179
C2    C     C_R   0.907420 0.616730 0.478793 -0.149255
C3    C     C_R   0.950287 0.310439 0.640789 0.328227
C4    C     C_R   0.042848 0.303764 0.625228 0.626517
C5    C     C_R   0.090893 0.398308 0.558739 -0.123089
C6    C     C_R   0.046386 0.507712 0.524378 -0.142159
C7    C     C_R   0.095512 0.611736 0.482557 -0.139440
C8    C     C_R   0.050882 0.719623 0.447284 0.618468
C9    C     C_R   0.957360 0.724561 0.447187 0.216680
C10   C     C_R   0.182778 0.388206 0.529510 0.285198
C11   C     C_R   0.232077 0.495495 0.502570 -0.306251
C12   C     C_R   0.329096 0.495590 0.500807 0.918004
C13   C     C_R   0.188874 0.606288 0.480021 0.635129
C14   C     C_2   0.510473 0.938598 0.391490 0.172309
C15   C     C_2   0.479840 0.863168 0.492301 0.404069
C16   C     C_2   0.492375 0.067976 0.400323 0.583355
C17   C     C_2   0.518225 0.135264 0.506826 0.095533
C18   C     C_2   0.430249 0.481348 0.928705 0.490014
C19   C     C_2   0.432104 0.519806 0.074630 0.073769
C20   C     C_R   0.497306 0.733867 0.497903 0.814171
C21   C     C_R   0.670963 0.501404 0.499431 0.930633
C22   C     C_R   0.814128 0.609301 0.464032 0.593453
C23   C     C_R   0.767922 0.503432 0.501484 -0.302773
C24   C     C_R   0.812091 0.403592 0.556620 0.621090
C25   C     C_R   0.904367 0.407179 0.575432 -0.171288
C26   C     C_R   0.952688 0.510975 0.526809 -0.124920
Cu1   Cu    Cu3+1 0.500020 0.500020 0.638630 1.249928
Cu2   Cu    Cu3+1 0.499980 0.499980 0.361370 1.184710
H1    H     H_    0.371406 0.555753 0.119359 0.129201
N1    N     N_2   0.499020 0.498660 0.846910 0.086317
N2    N     N_2   0.499000 0.498630 0.153040 -0.015871
O1    O     O_R   0.500020 0.321960 0.617040 -0.528865
O2    O     O_R   0.499980 0.321920 0.382900 -0.505691
O3    O     O_R   0.370270 0.499990 0.617090 -0.552884
O4    O     O_R   0.370240 0.499950 0.382940 -0.608574
O5    O     O_R   0.500020 0.678080 0.617100 -0.501514
O6    O     O_R   0.499980 0.678040 0.382960 -0.574971
O7    O     O_R   0.629760 0.500050 0.617060 -0.521130
O8    O     O_R   0.629730 0.500010 0.382910 -0.511539
F1    F     F_    0.766495 0.701385 0.409154 -0.558360
F2    F     F_    0.423104 0.905947 0.589628 -0.558436
F3    F     F_    0.452070 0.120273 0.290324 -0.557482
S1    S     S_3+6 0.579648 0.076509 0.649007 0.107846
O9    O     O_2   0.516535 0.025217 0.756006 -0.152698
O10   O     O_2   0.643221 0.979152 0.604445 -0.231862
O11   O     O_3   0.637878 0.188479 0.720729 -0.404074
H2    H     H_    0.655978 0.154717 0.810572 0.395070
S2    S     S_3+6 0.342262 0.381199 0.891742 0.090845
O12   O     O_2   0.265380 0.451145 0.833588 -0.252423
O13   O     O_2   0.372425 0.286535 0.793667 -0.194070
O14   O     O_3   0.306894 0.310809 0.036439 -0.493330
H3    H     H_    0.356884 0.257444 0.063733 0.402110
F4    F     F_    0.549575 0.592623 0.883960 -0.480140
S3    S     S_3+6 0.584100 0.399367 0.096439 0.199269
O15   O     O_2   0.548271 0.304438 0.003064 -0.273829
O16   O     O_2   0.656218 0.471106 0.023275 -0.165452
O17   O     O_3   0.633678 0.322567 0.224111 -0.459616
H4    H     H_    0.680837 0.273862 0.179456 0.376634
F5    F     F_    0.764893 0.299852 0.578813 -0.564004
S4    S     S_3+6 0.895876 0.206267 0.756324 0.165163
O18   O     O_2   0.854215 0.105604 0.677599 -0.122514
O19   O     O_2   0.960659 0.152192 0.855973 -0.175340
O20   O     O_3   0.816313 0.279919 0.844599 -0.468519
H5    H     H_    0.798595 0.223234 0.920108 0.372409
F6    F     F_    0.086668 0.209379 0.684746 -0.512631
S5    S     S_3+6 0.229326 0.243343 0.491616 0.148398
O21   O     O_2   0.264788 0.183704 0.618548 -0.080698
O22   O     O_2   0.159106 0.162113 0.433853 -0.143962
O23   O     O_3   0.311951 0.257604 0.375580 -0.501933
H6    H     H_    0.283457 0.295378 0.294913 0.374626
F7    F     F_    0.238798 0.707373 0.451653 -0.557329
F8    F     F_    0.098873 0.819857 0.409183 -0.505718
S6    S     S_3+6 0.906334 0.868559 0.414327 0.197369
O24   O     O_2   0.834902 0.889974 0.520168 -0.111678
O25   O     O_2   0.972012 0.971772 0.419184 -0.141759
O26   O     O_3   0.860091 0.868759 0.258968 -0.396834
H7    H     H_    0.909777 0.850254 0.195093 0.360735
S7    S     S_3+6 0.566648 0.893138 0.239964 0.139329
O27   O     O_2   0.640987 0.807268 0.272956 -0.165584
O28   O     O_2   0.501445 0.831418 0.148916 -0.202713
O29   O     O_3   0.609035 0.016274 0.157237 -0.451200
H8    H     H_    0.632896 0.985476 0.069661 0.397646

loop_
_geom_bond_atom_site_label_1
_geom_bond_atom_site_label_2
_ccdc_geom_bond_type
S5    O22   D    
S6    O24   D    
C19   N2    D    
O29   H8    S    
C1    O2    A    
C7    C8    A    
S4    O20   S    
C5    C6    A    
C4    F6    S    
S7    O28   D    
S5    O23   S    
Cu1   O7    S    
S4    O19   D    
C18   C19   S    
S3    O15   D    
S2    O14   S    
C21   O7    A    
Cu2   O4    S    
C8    C9    A    
C2    C22   A    
C23   C24   A    
C18   N1    D    
C3    S4    S    
S2    O13   D    
S5    O21   D    
Cu1   N1    S    
S6    O25   D    
C9    S6    S    
C10   S5    S    
Cu1   O3    S    
C15   C20   S    
N1    F4    S    
S3    O16   D    
C8    F8    S    
O14   H3    S    
C3    C25   A    
O26   H7    S    
C15   F2    S    
S7    O27   D    
C16   C17   D    
C13   F7    S    
Cu2   O8    S    
C25   C26   A    
C1    O1    A    
S4    O18   D    
S1    O9    D    
C17   S1    S    
C21   O8    A    
C22   F1    S    
C2    C26   A    
C24   C25   A    
C12   O4    A    
S1    O10   D    
S2    O12   D    
Cu2   O2    S    
C21   C23   S    
S6    O26   S    
C14   C16   S    
C12   O3    A    
C3    C4    A    
C19   H1    S    
C16   F3    S    
O11   H2    S    
Cu1   O1    S    
C14   C15   D    
Cu2   N2    S    
C4    C5    A    
C18   S2    S    
C11   C12   S    
C6    C7    A    
Cu1   O5    S    
C1    C17   S    
C5    C10   A    
C20   O6    A    
C11   C13   A    
S7    O29   S    
O17   H4    S    
C6    C26   A    
Cu2   O6    S    
C24   F5    S    
C14   S7    S    
N2    S3    S    
O23   H6    S    
S1    O11   S    
C10   C11   A    
O20   H5    S    
C20   O5    A    
C7    C13   A    
Cu1   Cu2   S    
C22   C23   A    
C2    C9    A    
S3    O17   S    
