data_mof_unit_5801.cif
_audit_creation_date              2012-10-26T20:16:50-0400
_audit_creation_method            fapswitch 2.2
_symmetry_space_group_name_H-M    P1
_symmetry_Int_Tables_number       1
_space_group_crystal_system       triclinic
_cell_length_a                    10.883409
_cell_length_b                    10.997714
_cell_length_c                    10.502603
_cell_angle_alpha                 90.387061
_cell_angle_beta                  91.452408
_cell_angle_gamma                 89.464783
_cell_volume                      1256.59864636

loop_
_atom_site_label
_atom_site_type_symbol
_atom_type_description
_atom_site_fract_x
_atom_site_fract_y
_atom_site_fract_z
_atom_type_partial_charge
C1    C     C_R   0.492521 0.261591 0.499937 0.549473
C2    C     C_R   0.697901 0.855637 0.759072 -0.012613
C3    C     C_R   0.437229 0.121479 0.265477 0.008231
C4    C     C_R   0.570991 0.877571 0.734293 0.016181
C5    C     C_R   0.522371 0.151741 0.171110 0.292284
C6    C     C_R   0.483584 0.845908 0.824741 0.315072
C7    C     C_R   0.480700 0.212521 0.061829 -0.082769
C8    C     C_R   0.522947 0.786087 0.936169 -0.091450
C9    C     C_R   0.357010 0.244158 0.045275 -0.157446
C10   C     C_R   0.647479 0.761842 0.959315 -0.129477
C11   C     C_R   0.505764 0.936459 0.383104 -0.018310
C12   C     C_R   0.509629 0.738033 0.500136 0.571814
C13   C     C_R   0.504681 0.062865 0.616831 -0.009063
C14   C     C_R   0.518645 0.872197 0.499048 -0.014748
C15   C     C_R   0.488077 0.126961 0.501023 -0.034240
C16   C     C_R   0.261595 0.501963 0.498438 0.554790
C17   C     C_R   0.738330 0.496953 0.501426 0.538102
C18   C     C_R   0.528313 0.937645 0.614671 -0.045473
C19   C     C_R   0.480488 0.061345 0.384927 -0.075960
C20   C     C_1   0.500256 0.500219 0.072195 0.075015
C21   C     C_1   0.500095 0.499762 0.927816 0.082233
C22   C     C_R   0.226961 0.706953 0.139977 -0.097025
C23   C     C_R   0.871986 0.494751 0.502902 0.008651
C24   C     C_R   0.788563 0.283010 0.865149 -0.095502
C25   C     C_R   0.174319 0.674810 0.254550 -0.041676
C26   C     C_R   0.837310 0.316230 0.748742 -0.061693
C27   C     C_R   0.110655 0.564996 0.263475 0.053270
C28   C     C_R   0.888964 0.431721 0.734996 0.051522
C29   C     C_R   0.097057 0.489842 0.155635 -0.091778
C30   C     C_R   0.892137 0.512889 0.838504 -0.086763
C31   C     C_R   0.150083 0.522255 0.041113 -0.121584
C32   C     C_R   0.841451 0.480092 0.953965 -0.126541
C33   C     C_R   0.214957 0.630745 0.033206 -0.109274
C34   C     C_R   0.127832 0.502390 0.496252 0.019182
C35   C     C_R   0.789930 0.365274 0.967168 -0.105711
C36   C     C_R   0.930029 0.523864 0.389786 -0.131658
C37   C     C_R   0.069738 0.472165 0.609008 -0.119707
C38   C     C_3   0.713317 0.186794 0.260738 -0.084608
C39   C     C_3   0.300922 0.933380 0.888796 -0.098418
C40   C     C_2   0.530013 0.878274 0.258716 0.308331
C41   C     C_2   0.489035 0.121683 0.742652 0.263596
C42   C     C_2   0.218207 0.120013 0.343126 0.221096
C43   C     C_2   0.792373 0.892051 0.667297 0.214260
C44   C     C_R   0.942803 0.467200 0.613491 -0.021981
C45   C     C_R   0.056973 0.528927 0.385138 -0.018080
C46   C     C_R   0.272547 0.212712 0.136186 -0.102041
C47   C     C_R   0.734481 0.798345 0.872999 -0.085218
C48   C     C_R   0.310881 0.151982 0.247495 0.003036
Cu1   Cu    Cu3+1 0.500000 0.500000 0.625300 1.043179
Cu2   Cu    Cu3+1 0.500000 0.500000 0.374700 1.002166
H1    H     H_    0.256031 0.655226 0.944353 0.142690
H2    H     H_    0.934093 0.601127 0.829403 0.132218
H3    H     H_    0.140863 0.463316 0.958551 0.112271
H4    H     H_    0.843115 0.543155 0.033529 0.108772
H5    H     H_    0.876365 0.546110 0.304487 0.139429
H6    H     H_    0.123324 0.449910 0.694354 0.139142
H7    H     H_    0.325982 0.293373 0.961513 0.169362
H8    H     H_    0.676996 0.712698 0.043562 0.170427
H9    H     H_    0.176757 0.235570 0.118927 0.156081
H10   H     H_    0.830605 0.780967 0.895282 0.157969
H11   H     H_    0.707054 0.155130 0.360329 0.134279
H12   H     H_    0.751085 0.340353 0.056427 0.112991
H13   H     H_    0.687244 0.284668 0.254172 0.131840
H14   H     H_    0.811277 0.179096 0.234866 0.162069
H15   H     H_    0.363989 0.976954 0.960610 0.100176
H16   H     H_    0.233416 0.877025 0.937799 0.123426
H17   H     H_    0.247806 0.007009 0.840501 0.199456
H18   H     H_    0.468227 0.893557 0.177907 0.069304
H19   H     H_    0.556209 0.106203 0.818681 0.074779
H20   H     H_    0.243632 0.065345 0.425349 0.131358
H21   H     H_    0.766464 0.940490 0.580967 0.118242
H22   H     H_    0.545216 0.237101 0.990218 0.127211
H23   H     H_    0.456663 0.755289 0.003173 0.103257
H24   H     H_    0.277208 0.790865 0.134838 0.075474
H25   H     H_    0.750208 0.193512 0.876465 0.114160
H26   H     H_    0.184532 0.734357 0.336666 0.113411
H27   H     H_    0.835421 0.252252 0.669842 0.105451
H28   H     H_    0.045986 0.406077 0.160770 0.121366
N1    N     N_1   0.500010 0.499990 0.186410 -0.190863
N2    N     N_1   0.499990 0.500010 0.813590 -0.179477
O1    O     O_R   0.499990 0.319650 0.605810 -0.459699
O2    O     O_3   0.359581 0.862272 0.795057 -0.554375
O3    O     O_2   0.624678 0.820033 0.244397 -0.489716
O4    O     O_2   0.395962 0.180189 0.764144 -0.521682
O5    O     O_2   0.111540 0.154501 0.331258 -0.523687
O6    O     O_2   0.901027 0.868297 0.686979 -0.504712
O7    O     O_R   0.500010 0.680350 0.394190 -0.474441
O8    O     O_R   0.499990 0.319640 0.394190 -0.519977
O9    O     O_R   0.500010 0.680360 0.605810 -0.480840
O10   O     O_R   0.319640 0.500010 0.605810 -0.495778
O11   O     O_R   0.680360 0.499990 0.394190 -0.520015
O12   O     O_R   0.319650 0.500010 0.394190 -0.490442
O13   O     O_R   0.680350 0.499990 0.605810 -0.493088
O14   O     O_3   0.643528 0.111843 0.177373 -0.568494

loop_
_geom_bond_atom_site_label_1
_geom_bond_atom_site_label_2
_ccdc_geom_bond_type
C16   O10   A    
C6    O2    S    
C46   H9    S    
C27   C29   A    
C34   C37   A    
C14   C18   A    
C17   O11   A    
Cu1   O10   S    
Cu2   N1    S    
C13   C41   S    
C5    O14   S    
C15   C19   A    
C11   C19   A    
C17   C23   S    
C13   C18   A    
C41   H19   S    
C10   H8    S    
C24   C26   A    
C11   C14   A    
C1    O1    A    
C3    C48   A    
C42   H20   S    
Cu1   O1    S    
Cu1   Cu2   S    
C16   C34   S    
C47   H10   S    
C37   H6    S    
C29   H28   S    
C22   C25   A    
C31   C33   A    
C3    C19   S    
C1    C15   S    
C20   N1    T    
Cu2   O8    S    
C38   H11   S    
C4    C18   S    
C27   C45   S    
C1    O8    A    
C9    C46   A    
C39   H15   S    
C40   O3    D    
C32   H4    S    
C38   H14   S    
C46   C48   A    
C26   H27   S    
C24   C35   A    
C32   C35   A    
C12   O9    A    
C4    C6    A    
C7    H22   S    
C34   C45   A    
C6    C8    A    
C41   O4    D    
C28   C44   S    
C23   C44   A    
C2    C4    A    
C2    C43   S    
C38   O14   S    
C36   C45   A    
C42   O5    D    
C42   C48   S    
C31   H3    S    
Cu2   O7    S    
Cu2   O12   S    
C12   C14   S    
C16   O12   A    
C13   C15   A    
C39   H16   S    
C25   C27   A    
C22   H24   S    
C5    C7    A    
C38   H13   S    
C7    C9    A    
C22   C33   A    
C30   H2    S    
C43   H21   S    
C12   O7    A    
C43   O6    D    
C39   H17   S    
C39   O2    S    
Cu1   O9    S    
C3    C5    A    
C24   H25   S    
C2    C47   A    
C33   H1    S    
C26   C28   A    
Cu1   N2    S    
C25   H26   S    
C37   C44   A    
C28   C30   A    
C29   C31   A    
C36   H5    S    
C30   C32   A    
C21   N2    T    
C8    H23   S    
C35   H12   S    
C9    H7    S    
C11   C40   S    
Cu2   O11   S    
C17   O13   A    
C20   C21   S    
C8    C10   A    
C23   C36   A    
C40   H18   S    
C10   C47   A    
Cu1   O13   S    
