data_mof_unit_59180.cif
_audit_creation_date              2013-03-05T15:52:54-0500
_audit_creation_method            fapswitch 2.2
_symmetry_space_group_name_H-M    P1
_symmetry_Int_Tables_number       1
_space_group_crystal_system       triclinic
_cell_length_a                    14.998545
_cell_length_b                    10.695298
_cell_length_c                    9.891296
_cell_angle_alpha                 91.586196
_cell_angle_beta                  90.053664
_cell_angle_gamma                 91.911966
_cell_volume                      1585.20767283

loop_
_atom_site_label
_atom_site_type_symbol
_atom_site_description
_atom_site_fract_x
_atom_site_fract_y
_atom_site_fract_z
_atom_type_partial_charge
O1    O     O_R   0.500000 0.316780 0.614690 -0.661383
O2    O     O_R   0.499990 0.316750 0.385360 -0.582749
C1    C     C_R   0.506114 0.260543 0.497981 0.897381
O3    O     O_R   0.367850 0.499980 0.614680 -0.638920
O4    O     O_R   0.367840 0.499960 0.385350 -0.644446
C2    C     C_R   0.326676 0.499666 0.499991 0.884710
Zn1   Zn    Zn3+2 0.500010 0.500020 0.653130 0.920101
Zn2   Zn    Zn3+2 0.499990 0.499980 0.346870 0.938663
O5    O     O_R   0.500010 0.683250 0.614640 -0.623296
O6    O     O_R   0.500000 0.683220 0.385310 -0.617505
O7    O     O_R   0.632160 0.500040 0.614650 -0.644968
O8    O     O_R   0.632150 0.500020 0.385320 -0.627475
C3    C     C_R   0.504694 0.739685 0.501935 0.910839
C4    C     C_R   0.673329 0.500497 0.500064 0.863955
C5    C     C_R   0.815184 0.515365 0.623235 -0.250477
C6    C     C_R   0.769292 0.502402 0.500325 -0.076555
C7    C     C_R   0.814914 0.492243 0.377696 -0.247683
C8    C     C_R   0.907046 0.493601 0.377065 0.140464
C9    C     C_R   0.953750 0.506450 0.500981 0.007359
C10   C     C_R   0.907710 0.519028 0.625031 -0.023654
C11   C     C_R   0.952990 0.481475 0.254547 -0.222757
C12   C     C_R   0.045525 0.481130 0.254311 -0.218040
C13   C     C_R   0.092351 0.492387 0.376696 0.138133
C14   C     C_R   0.046483 0.505351 0.500634 0.059793
C15   C     C_R   0.093400 0.515673 0.624172 0.030738
C16   C     C_R   0.047844 0.528887 0.746726 -0.288255
C17   C     C_R   0.955195 0.534043 0.748005 0.511620
C18   C     C_R   0.184492 0.490341 0.377374 -0.262849
C19   C     C_R   0.230780 0.500548 0.500138 -0.073361
C20   C     C_R   0.185512 0.512687 0.623103 -0.207450
H1    H     H_    0.778663 0.522960 0.717393 0.187053
H2    H     H_    0.778887 0.482168 0.282652 0.162155
H3    H     H_    0.917357 0.471839 0.159242 0.188318
H4    H     H_    0.080380 0.471442 0.158819 0.159433
H5    H     H_    0.219927 0.480354 0.282341 0.164533
H6    H     H_    0.221800 0.520743 0.718041 0.166768
H7    H     H_    0.084081 0.536060 0.841690 0.168615
C21   C     C_R   0.632043 0.141789 0.678071 -0.140830
H8    H     H_    0.640603 0.242187 0.673184 0.168311
C22   C     C_R   0.686067 0.082273 0.769321 -0.147099
H9    H     H_    0.731021 0.137058 0.835031 0.143482
C23   C     C_R   0.684566 0.952478 0.772878 -0.163470
H10   H     H_    0.728256 0.906343 0.841476 0.124443
C24   C     C_R   0.628872 0.881657 0.685369 -0.167372
H11   H     H_    0.634373 0.781415 0.686992 0.146316
C25   C     C_R   0.571087 0.940319 0.595096 0.102575
C26   C     C_R   0.572948 0.071798 0.590779 0.022531
C27   C     C_R   0.519840 0.128532 0.492464 -0.243909
C28   C     C_R   0.479030 0.056785 0.387123 0.510209
H12   H     H_    0.427070 0.877003 0.330100 0.178693
C29   C     C_R   0.468615 0.930482 0.402294 -0.340135
C30   C     C_R   0.513569 0.872379 0.504371 -0.190554
H13   H     H_    0.603713 0.636106 0.129763 0.141573
C31   C     C_R   0.379061 0.341570 0.135221 -0.204047
H14   H     H_    0.376889 0.334302 0.242196 0.248304
C32   C     C_R   0.320464 0.261405 0.062728 -0.252028
H15   H     H_    0.275042 0.199650 0.116481 0.188552
C33   C     C_R   0.323986 0.254211 0.922606 0.470363
C34   C     C_R   0.381647 0.337338 0.855023 -0.308156
H16   H     H_    0.378375 0.333621 0.748067 0.215083
C35   C     C_R   0.440908 0.420870 0.925375 0.129661
C36   C     C_R   0.440376 0.421804 0.069872 0.137647
N1    N     N_R   0.499150 0.498800 0.142780 -0.118767
C37   C     C_R   0.557098 0.574939 0.073950 -0.121536
H17   H     H_    0.603517 0.636284 0.878718 0.125913
C38   C     C_R   0.556945 0.575101 0.930689 -0.111504
N2    N     N_R   0.499120 0.498720 0.857170 -0.105201
O9    O     O_3   0.267537 0.168206 0.854542 -0.603499
C39   C     C_3   0.315506 0.096196 0.758660 0.101699
H18   H     H_    0.382881 0.072479 0.796594 0.135015
H19   H     H_    0.322822 0.147337 0.662705 0.144435
C40   C     C_3   0.263902 0.973923 0.727610 -0.795467
H20   H     H_    0.197105 0.993269 0.685932 0.259767
H21   H     H_    0.300920 0.917128 0.651986 0.210242
H22   H     H_    0.255550 0.919826 0.821304 0.251309
O10   O     O_3   0.911758 0.544483 0.871071 -0.633707
C41   C     C_3   0.889270 0.670524 0.896684 0.056898
H23   H     H_    0.828883 0.670166 0.961605 0.160171
H24   H     H_    0.871682 0.721214 0.803691 0.130427
C42   C     C_3   0.964090 0.742255 0.973102 -0.855021
H25   H     H_    0.023687 0.753455 0.907579 0.247029
H26   H     H_    0.941533 0.836672 0.003895 0.222050
H27   H     H_    0.982412 0.691686 0.065037 0.267099
O11   O     O_3   0.444267 0.110724 0.273518 -0.625816
C43   C     C_3   0.492408 0.072255 0.156517 0.117309
H28   H     H_    0.451770 0.090605 0.066017 0.167401
H29   H     H_    0.504230 0.970031 0.151219 0.127325
C44   C     C_3   0.581183 0.145470 0.144332 -0.839902
H30   H     H_    0.625636 0.126089 0.230572 0.241504
H31   H     H_    0.614828 0.116859 0.049037 0.211858
H32   H     H_    0.569974 0.247332 0.142491 0.274017

loop_
_geom_bond_atom_site_label_1
_geom_bond_atom_site_label_2
_geom_bond_distance
_ccdc_geom_bond_type
C8    C11   1.399677 A    
C9    C10   1.413909 A    
C41   H23   1.110717 S    
Zn1   O7    2.018616 S    
C16   C17   1.392586 A    
C19   C20   1.398524 A    
C28   O11   1.386439 S    
C18   C19   1.398006 A    
C42   H27   1.109798 S    
C21   H8    1.079586 S    
C42   H25   1.109788 S    
H13   C37   1.081826 S    
C41   C42   1.525803 S    
C11   H3    1.083929 S    
C5    C6    1.397760 A    
C25   C30   1.413558 A    
C1    C27   1.433164 S    
C32   H15   1.083111 S    
C8    C9    1.412274 A    
C39   H19   1.112190 S    
O5    C3    1.283193 A    
C25   C26   1.407386 A    
C18   H5    1.084739 S    
C6    C7    1.396610 A    
C28   C29   1.367082 A    
C13   C14   1.412052 A    
C43   H29   1.113241 S    
C38   N2    1.366391 A    
C34   H16   1.058613 S    
C11   C12   1.388030 A    
C35   C36   1.429052 A    
C23   C24   1.393143 A    
C40   H22   1.111031 S    
C24   C25   1.417023 A    
H12   C29   1.085413 S    
O10   C41   1.416607 S    
C41   H24   1.116361 S    
C5    C10   1.387093 A    
C12   H4    1.084113 S    
C31   C32   1.391466 A    
C34   C35   1.408494 A    
C29   C30   1.386227 A    
C14   C15   1.409342 A    
C40   H21   1.111267 S    
O9    C39   1.417065 S    
C31   C36   1.406800 A    
O3    Zn1   2.017996 S    
C15   C16   1.398144 A    
C43   H28   1.108163 S    
O1    C1    1.291609 A    
C37   C38   1.417088 A    
C39   C40   1.520969 S    
C36   N1    1.375787 A    
C3    C30   1.420547 S    
C35   N2    1.376370 A    
C26   C27   1.418392 A    
C44   H32   1.108510 S    
Zn2   O8    2.017997 S    
C7    C8    1.381471 A    
C13   C18   1.382895 A    
O11   C43   1.423014 S    
C21   C26   1.417738 A    
O3    C2    1.290979 A    
C22   H9    1.082635 S    
O8    C4    1.291436 A    
C4    C6    1.438760 S    
C23   H10   1.082845 S    
C17   O10   1.384742 S    
C24   H11   1.078599 S    
C43   C44   1.528574 S    
C33   O9    1.388837 S    
C15   C20   1.383025 A    
Zn1   O5    2.006656 S    
C31   H14   1.063567 S    
C27   C28   1.404411 A    
O1    Zn1   1.985986 S    
O2    Zn2   2.006656 S    
C44   H31   1.109958 S    
C40   H20   1.110978 S    
O6    C3    1.287962 A    
O4    Zn2   2.018616 S    
C16   H7    1.084374 S    
C5    H1    1.083407 S    
C10   C17   1.411573 A    
C20   H6    1.084864 S    
C9    C14   1.391310 A    
C33   C34   1.402825 A    
C21   C22   1.393290 A    
O4    C2    1.291667 A    
C22   C23   1.389051 A    
O7    C4    1.291247 A    
C42   H26   1.110372 S    
C32   C33   1.387154 A    
O2    C1    1.285037 A    
C39   H18   1.117125 S    
Zn2   N1    2.018430 S    
Zn1   N2    2.018706 S    
N1    C37   1.366239 A    
C2    C19   1.438658 S    
C44   H30   1.110453 S    
Zn2   O6    1.985986 S    
H17   C38   1.081282 S    
C7    H2    1.084871 S    
C12   C13   1.399238 A    
