data_mof_unit_43840.cif
_audit_creation_date              2012-12-10T17:17:51-0500
_audit_creation_method            fapswitch 2.2
_symmetry_space_group_name_H-M    P1
_symmetry_Int_Tables_number       1
_space_group_crystal_system       triclinic
_cell_length_a                    14.985867
_cell_length_b                    15.688198
_cell_length_c                    9.558347
_cell_angle_alpha                 90.048596
_cell_angle_beta                  88.823837
_cell_angle_gamma                 89.963521
_cell_volume                      2246.70456741

loop_
_atom_site_label
_atom_site_type_symbol
_atom_type_description
_atom_site_fract_x
_atom_site_fract_y
_atom_site_fract_z
_atom_type_partial_charge
C1    C     C_R   0.382605 0.879297 0.502361 0.797992
C2    C     C_R   0.382644 0.120749 0.502430 0.798855
C3    C     C_R   0.882622 0.379283 0.502358 0.798003
C4    C     C_R   0.882644 0.620749 0.502429 0.798863
C5    C     C_R   0.289021 0.223988 0.382609 -0.214754
C6    C     C_R   0.291428 0.773621 0.382967 -0.219027
C7    C     C_R   0.788991 0.723961 0.382601 -0.214741
C8    C     C_R   0.791393 0.273657 0.382938 -0.218967
C9    C     C_R   0.721918 0.783976 0.379554 -0.217645
C10   C     C_R   0.723704 0.214197 0.379568 -0.225384
C11   C     C_R   0.221949 0.284005 0.379562 -0.217748
C12   C     C_R   0.223748 0.714154 0.379589 -0.225361
C13   C     C_R   0.672615 0.802894 0.501005 -0.109738
C14   C     C_R   0.673100 0.196694 0.500448 -0.102205
C15   C     C_R   0.172625 0.302903 0.501002 -0.109766
C16   C     C_R   0.173092 0.696696 0.500434 -0.102176
C17   C     C_R   0.663989 0.999438 0.140009 -0.174464
C18   C     C_R   0.163989 0.499421 0.140008 -0.174421
C19   C     C_R   0.744402 0.999049 0.065517 -0.238020
C20   C     C_R   0.244402 0.499008 0.065515 -0.237955
C21   C     C_R   0.744737 0.998887 0.921411 -0.194058
C22   C     C_R   0.244737 0.498852 0.921409 -0.194031
C23   C     C_R   0.664657 0.999386 0.850998 -0.119265
C24   C     C_R   0.164656 0.499374 0.850997 -0.119263
C25   C     C_R   0.580881 0.999588 0.922730 0.193833
C26   C     C_R   0.080881 0.499583 0.922729 0.193857
C27   C     C_R   0.580731 0.999593 0.072577 0.196131
C28   C     C_R   0.080731 0.499586 0.072577 0.196200
C29   C     C_R   0.423146 0.000570 0.076463 -0.076205
C30   C     C_R   0.923146 0.500573 0.076463 -0.076268
C31   C     C_R   0.613295 0.123376 0.499638 0.784925
C32   C     C_R   0.613066 0.876448 0.499707 0.781156
C33   C     C_R   0.113295 0.623374 0.499635 0.784915
C34   C     C_R   0.113069 0.376451 0.499707 0.781183
C35   C     C_R   0.423190 0.000610 0.928319 -0.114504
C36   C     C_R   0.923189 0.500611 0.928318 -0.114403
C37   C     C_R   0.299871 0.193690 0.773646 -0.215887
C38   C     C_R   0.294930 0.812256 0.773108 -0.208885
C39   C     C_R   0.799909 0.693734 0.773648 -0.215943
C40   C     C_R   0.795121 0.312071 0.773115 -0.208817
C41   C     C_R   0.245239 0.207361 0.891590 -0.178923
C42   C     C_R   0.237815 0.802467 0.888983 -0.192653
C43   C     C_R   0.745299 0.707436 0.891608 -0.178838
C44   C     C_R   0.738060 0.302242 0.889050 -0.192562
C45   C     C_R   0.658580 0.738127 0.877116 0.151714
C46   C     C_R   0.652216 0.270234 0.872493 0.153464
C47   C     C_R   0.158528 0.238064 0.877080 0.151751
C48   C     C_R   0.152002 0.770401 0.872370 0.153490
C49   C     C_R   0.630579 0.761977 0.744307 -0.187943
C50   C     C_R   0.627610 0.240954 0.740741 -0.184121
C51   C     C_R   0.130555 0.261957 0.744278 -0.187939
C52   C     C_R   0.127477 0.741037 0.740629 -0.184087
C53   C     C_R   0.689636 0.758770 0.626938 0.076211
C54   C     C_R   0.688396 0.242489 0.625415 0.068663
C55   C     C_R   0.189628 0.258763 0.626927 0.076189
C56   C     C_R   0.188316 0.742548 0.625368 0.068652
C57   C     C_R   0.269673 0.212354 0.636967 0.099736
C58   C     C_R   0.267676 0.789898 0.636184 0.102543
C59   C     C_R   0.769687 0.712369 0.636971 0.099695
C60   C     C_R   0.767779 0.289804 0.636198 0.102502
C61   C     C_R   0.315169 0.188393 0.509644 -0.113892
C62   C     C_R   0.315275 0.811555 0.509580 -0.109284
C63   C     C_R   0.815164 0.688391 0.509642 -0.113886
C64   C     C_R   0.815311 0.311524 0.509568 -0.109299
Cu1   Cu    Cu3+1 0.499990 1.000000 0.640660 0.907433
Cu2   Cu    Cu3+1 0.999990 0.500000 0.640660 0.907440
Cu3   Cu    Cu3+1 0.500010 1.000000 0.359340 0.920689
Cu4   Cu    Cu3+1 0.000010 0.500000 0.359340 0.920709
H1    H     H_    0.322128 0.207135 0.284992 0.162313
H2    H     H_    0.326735 0.788310 0.285979 0.159422
H3    H     H_    0.822078 0.707087 0.284978 0.162202
H4    H     H_    0.826644 0.288398 0.285924 0.159348
H5    H     H_    0.807591 0.998628 0.863412 0.148655
H6    H     H_    0.307591 0.498583 0.863410 0.148648
H7    H     H_    0.673074 0.999817 0.740597 0.203405
H8    H     H_    0.173074 0.499817 0.740597 0.203398
H9    H     H_    0.360317 0.001136 0.874704 0.150453
H10   H     H_    0.860317 0.501137 0.874703 0.150496
H11   H     H_    0.366974 0.173827 0.794803 0.177540
H12   H     H_    0.361412 0.832518 0.796916 0.174646
H13   H     H_    0.867016 0.673872 0.794786 0.177513
H14   H     H_    0.861630 0.332297 0.796845 0.174577
H15   H     H_    0.270473 0.193203 0.994354 0.128935
H16   H     H_    0.260633 0.820770 0.991567 0.126012
H17   H     H_    0.770556 0.693308 0.994368 0.128959
H18   H     H_    0.760938 0.320475 0.991633 0.125984
H19   H     H_    0.562452 0.783465 0.733770 0.149240
H20   H     H_    0.560327 0.217414 0.729646 0.152326
H21   H     H_    0.062432 0.283454 0.733732 0.149207
H22   H     H_    0.060218 0.717446 0.729492 0.152282
H23   H     H_    0.709473 0.816278 0.281975 0.161948
H24   H     H_    0.711632 0.181313 0.282037 0.164514
H25   H     H_    0.209520 0.316325 0.281992 0.161907
H26   H     H_    0.211729 0.681222 0.282081 0.164549
H27   H     H_    0.360214 0.001034 0.133950 0.138401
H28   H     H_    0.860214 0.501039 0.133950 0.138408
H29   H     H_    0.671369 0.999770 0.250064 0.208042
H30   H     H_    0.171369 0.499765 0.250064 0.208006
H31   H     H_    0.806946 0.999068 0.120324 0.153336
H32   H     H_    0.306947 0.499011 0.120321 0.153286
N1    N     N_R   0.501200 0.000000 0.147910 -0.194537
N2    N     N_R   0.001200 0.500000 0.147910 -0.194564
N3    N     N_R   0.501270 1.000000 0.852040 -0.205007
N4    N     N_R   0.001270 0.500000 0.852040 -0.205032
O1    O     O_R   0.409820 0.909830 0.618810 -0.597986
O2    O     O_R   0.409820 0.090170 0.618810 -0.596785
O3    O     O_R   0.909820 0.409830 0.618810 -0.597960
O4    O     O_R   0.909820 0.590170 0.618810 -0.596783
O5    O     O_R   0.409840 0.909830 0.381240 -0.577955
O6    O     O_R   0.409840 0.090170 0.381240 -0.579199
O7    O     O_R   0.909840 0.409830 0.381240 -0.577941
O8    O     O_R   0.909840 0.590170 0.381240 -0.579215
O9    O     O_R   0.590170 0.090170 0.618760 -0.607102
O10   O     O_R   0.590170 0.909830 0.618760 -0.605472
O11   O     O_R   0.090170 0.590170 0.618760 -0.607100
O12   O     O_R   0.090170 0.409830 0.618760 -0.605495
O13   O     O_R   0.590190 0.090180 0.381190 -0.597866
O14   O     O_R   0.590190 0.909820 0.381190 -0.602113
O15   O     O_R   0.090190 0.590180 0.381190 -0.597882
O16   O     O_R   0.090190 0.409820 0.381190 -0.602065
C65   C     C_3   0.598384 0.752073 0.003641 -0.403884
C66   C     C_3   0.575799 0.667998 0.077951 -0.355961
C67   C     C_3   0.508980 0.682260 0.198391 -0.821885
H33   H     H_    0.535975 0.728259 0.275105 0.263649
H34   H     H_    0.445176 0.707173 0.157766 0.244467
H35   H     H_    0.495477 0.620902 0.252578 0.237122
H36   H     H_    0.546604 0.622498 0.002275 0.219027
H37   H     H_    0.637409 0.639243 0.120372 0.216447
H38   H     H_    0.632064 0.795972 0.076679 0.200485
H39   H     H_    0.535269 0.783680 0.972764 0.193879
C68   C     C_3   0.588690 0.261541 0.995980 -0.407172
C69   C     C_3   0.508083 0.321059 0.982074 -0.350032
C70   C     C_3   0.439742 0.305344 0.099394 -0.850587
H40   H     H_    0.416979 0.238072 0.095799 0.247916
H41   H     H_    0.469350 0.318456 0.202835 0.258398
H42   H     H_    0.381137 0.347658 0.085897 0.242731
H43   H     H_    0.530584 0.388532 0.986002 0.218876
H44   H     H_    0.474998 0.310256 0.880575 0.214033
H45   H     H_    0.565993 0.194143 0.002659 0.205808
H46   H     H_    0.623002 0.276565 0.095105 0.195011
C71   C     C_3   0.098309 0.251958 0.003591 -0.403869
C72   C     C_3   0.075526 0.167820 0.077558 -0.355922
C73   C     C_3   0.008845 0.182070 0.198192 -0.821618
H47   H     H_    0.036117 0.227762 0.275186 0.263515
H48   H     H_    0.945124 0.207375 0.157827 0.244476
H49   H     H_    0.995089 0.120622 0.251982 0.237052
H50   H     H_    0.046125 0.122541 0.001724 0.218968
H51   H     H_    0.137082 0.138805 0.119722 0.216435
H52   H     H_    0.132042 0.295696 0.076823 0.200521
H53   H     H_    0.035270 0.283721 0.972761 0.193799
C74   C     C_3   0.088431 0.761741 0.995805 -0.407212
C75   C     C_3   0.007761 0.821154 0.981672 -0.350042
C76   C     C_3   0.939509 0.805617 0.099180 -0.850631
H54   H     H_    0.916923 0.738269 0.096140 0.247946
H55   H     H_    0.969131 0.819113 0.202491 0.258325
H56   H     H_    0.880788 0.847750 0.085399 0.242819
H57   H     H_    0.030191 0.888663 0.985179 0.218889
H58   H     H_    0.974629 0.810097 0.880282 0.214006
H59   H     H_    0.065807 0.694322 0.002615 0.205725
H60   H     H_    0.122682 0.776888 0.094935 0.195122

loop_
_geom_bond_atom_site_label_1
_geom_bond_atom_site_label_2
_ccdc_geom_bond_type
C58   C62   A    
C73   H49   S    
Cu2   Cu4   S    
C40   C60   A    
Cu1   O10   S    
C49   H19   S    
C13   C32   S    
C52   H22   S    
C14   C31   S    
C1    C62   S    
C9    H23   S    
C53   C59   A    
C71   H52   S    
C67   H33   S    
C54   C60   A    
C3    C64   S    
C37   H11   S    
C4    C63   S    
C50   C54   A    
Cu2   O12   S    
C19   C21   A    
Cu4   N2    S    
C38   C42   A    
C35   N3    A    
Cu4   O15   S    
C6    C12   A    
C67   H34   S    
C34   O12   A    
C73   H47   S    
C41   H15   S    
C21   H5    S    
C7    C9    A    
Cu4   O8    S    
C66   H36   S    
C9    C13   A    
C31   O13   A    
C5    H1    S    
C68   H46   S    
C26   N4    A    
C38   C58   A    
C52   C56   A    
C11   C15   A    
Cu3   O5    S    
C73   H48   S    
C12   C16   A    
C3    O7    A    
C69   C70   S    
Cu1   Cu3   S    
C70   H42   S    
C30   H28   S    
C74   C75   S    
C76   H55   S    
C65   H39   S    
C15   C34   S    
C18   C20   A    
C2    C61   S    
C17   C27   A    
C1    O5    A    
C11   H25   S    
C46   C50   A    
C4    O8    A    
C10   H24   S    
C37   C41   A    
C12   H26   S    
C27   N1    A    
C44   H18   S    
Cu1   O1    S    
C44   C46   A    
C71   H53   S    
C13   C53   A    
C56   C58   A    
C34   O16   A    
C75   H58   S    
C33   O11   A    
C8    H4    S    
Cu2   O11   S    
C29   N1    A    
C43   H17   S    
C40   H14   S    
C42   H16   S    
C39   H13   S    
C10   C14   A    
C32   O14   A    
C46   C68   S    
C29   H27   S    
C19   H31   S    
C24   H8    S    
C67   H35   S    
C39   C43   A    
C3    O3    A    
C69   H43   S    
C35   H9    S    
Cu4   O7    S    
C15   C55   A    
C16   C56   A    
Cu2   N4    S    
C16   C33   S    
C4    O4    A    
Cu3   O6    S    
C20   H32   S    
C45   C49   A    
Cu2   O4    S    
C39   C59   A    
C30   N2    A    
C41   C47   A    
C18   C28   A    
Cu2   O3    S    
C42   C48   A    
C76   H56   S    
C57   C61   A    
Cu3   O13   S    
C72   H51   S    
C7    C63   A    
C65   C66   S    
C8    C64   A    
C14   C54   A    
C20   C22   A    
C33   O15   A    
C21   C23   A    
C70   H40   S    
C22   C24   A    
C59   C63   A    
Cu1   N3    S    
C40   C44   A    
C68   C69   S    
Cu1   O2    S    
C23   H7    S    
Cu3   N1    S    
C69   H44   S    
C6    H2    S    
C29   C35   A    
C75   H57   S    
C2    O6    A    
Cu1   O9    S    
C72   H50   S    
C25   N3    A    
C24   C26   A    
C65   H38   S    
C47   C51   A    
C5    C11   A    
C50   H20   S    
C25   C27   A    
C47   C71   S    
C26   C28   A    
C30   C36   A    
C60   C64   A    
C45   C65   S    
C74   H60   S    
C6    C62   A    
C55   C57   A    
C66   C67   S    
C43   C45   A    
C36   H10   S    
C71   C72   S    
Cu4   O16   S    
C7    H3    S    
C36   N4    A    
C38   H12   S    
C49   C53   A    
C17   C19   A    
C2    O2    A    
C51   C55   A    
C23   C25   A    
C66   H37   S    
Cu3   O14   S    
C37   C57   A    
C68   H45   S    
C28   N2    A    
C48   C52   A    
C75   C76   S    
C8    C10   A    
C48   C74   S    
C1    O1    A    
C70   H41   S    
C22   H6    S    
C72   C73   S    
C18   H30   S    
C32   O10   A    
C76   H54   S    
C17   H29   S    
C31   O9    A    
C51   H21   S    
C5    C61   A    
C74   H59   S    
