data_mof_unit_40703.cif
_audit_creation_date              2012-10-26T19:48:07-0400
_audit_creation_method            fapswitch 2.2
_symmetry_space_group_name_H-M    P1
_symmetry_Int_Tables_number       1
_space_group_crystal_system       triclinic
_cell_length_a                    10.716814
_cell_length_b                    9.420905
_cell_length_c                    10.616761
_cell_angle_alpha                 90.23475
_cell_angle_beta                  90.121911
_cell_angle_gamma                 89.912528
_cell_volume                      1071.8776854

loop_
_atom_site_label
_atom_site_type_symbol
_atom_type_description
_atom_site_fract_x
_atom_site_fract_y
_atom_site_fract_z
_atom_type_partial_charge
C1    C     C_R   0.259682 0.500286 0.499786 0.548401
C2    C     C_3   0.927605 0.420065 0.382985 -0.235775
C3    C     C_3   0.596602 0.084049 0.589217 -0.105391
C4    C     C_3   0.596613 0.916392 0.589192 -0.106166
C5    C     C_3   0.378387 0.084044 0.543923 -0.103307
C6    C     C_3   0.378404 0.916705 0.543932 -0.104811
C7    C     C_3   0.526093 0.083014 0.375824 -0.104497
C8    C     C_3   0.526072 0.915870 0.375805 -0.100465
C9    C     C_R   0.499896 0.499639 0.259369 0.585783
C10   C     C_R   0.740067 0.500153 0.500153 0.560320
C11   C     C_R   0.500005 0.500336 0.740693 0.551829
C12   C     C_3   0.499442 0.498708 0.122575 0.064640
C13   C     C_3   0.404475 0.580239 0.042011 -0.162454
C14   C     C_3   0.485910 0.365309 0.039889 -0.149873
C15   C     C_3   0.391060 0.446997 0.957063 -0.142611
C16   C     C_3   0.500206 0.501068 0.877374 0.006277
C17   C     C_3   0.513300 0.635259 0.959791 -0.114594
C18   C     C_3   0.595253 0.418486 0.957591 -0.123898
C19   C     C_3   0.606342 0.551573 0.041039 0.276344
C20   C     C_3   0.800643 0.642889 0.997155 0.005138
C21   C     C_3   0.923800 0.692423 0.055208 -0.255523
C22   C     C_3   0.017632 0.733622 0.953747 -0.495535
C23   C     C_3   0.071022 0.655701 0.497392 -0.234505
C24   C     C_3   0.072352 0.426995 0.619913 -0.231136
C25   C     C_3   0.928252 0.655563 0.496732 -0.232404
C26   C     C_3   0.928330 0.428022 0.620705 -0.235758
C27   C     C_3   0.071582 0.421503 0.381999 -0.239776
C28   C     C_3   0.121722 0.501103 0.499771 0.058631
C29   C     C_3   0.878008 0.500894 0.500150 0.055828
Cu1   Cu    Cu3+1 0.499860 0.642410 0.500060 0.877301
Cu2   Cu    Cu3+1 0.499860 0.357590 0.500060 0.867695
H1    H     H_    0.302296 0.404175 0.918563 0.103845
H2    H     H_    0.454341 0.120417 0.307727 0.111652
H3    H     H_    0.454258 0.878294 0.307673 0.116417
H4    H     H_    0.617602 0.122333 0.341140 0.114153
H5    H     H_    0.617567 0.875918 0.341044 0.129226
H6    H     H_    0.302780 0.120859 0.480003 0.110236
H7    H     H_    0.302870 0.879557 0.479965 0.108600
H8    H     H_    0.326332 0.645008 0.079839 0.098732
H9    H     H_    0.473951 0.255484 0.075374 0.103291
H10   H     H_    0.525151 0.745219 0.924591 0.092969
H11   H     H_    0.672838 0.352756 0.919897 0.085736
H12   H     H_    0.891226 0.470024 0.295525 0.139529
H13   H     H_    0.105233 0.711821 0.412064 0.110758
H14   H     H_    0.106290 0.315343 0.623541 0.111816
H15   H     H_    0.104866 0.715560 0.581436 0.113990
H16   H     H_    0.108167 0.482256 0.705473 0.099449
H17   H     H_    0.893988 0.716396 0.579958 0.108281
H18   H     H_    0.894322 0.485441 0.705832 0.093773
H19   H     H_    0.894080 0.710588 0.410595 0.126320
H20   H     H_    0.893470 0.316988 0.626305 0.110474
H21   H     H_    0.105255 0.474176 0.294791 0.100487
H22   H     H_    0.106880 0.310324 0.380431 0.115543
H23   H     H_    0.894320 0.308197 0.383750 0.116325
H24   H     H_    0.760756 0.731104 0.940224 0.122362
H25   H     H_    0.820563 0.550473 0.934576 0.119432
H26   H     H_    0.906367 0.785341 0.117647 0.159056
H27   H     H_    0.964269 0.605646 0.112961 0.156630
H28   H     H_    0.038379 0.641142 0.891978 0.139677
H29   H     H_    0.105857 0.769148 0.998857 0.136234
H30   H     H_    0.980191 0.821731 0.895534 0.135384
H31   H     H_    0.580702 0.123259 0.686783 0.114968
H32   H     H_    0.580820 0.877941 0.686723 0.108600
H33   H     H_    0.690737 0.121988 0.561501 0.108673
H34   H     H_    0.690728 0.878053 0.561341 0.107755
H35   H     H_    0.354986 0.124434 0.639639 0.110983
H36   H     H_    0.354995 0.877233 0.639631 0.111404
N1    N     N_3   0.500250 0.143650 0.502780 -0.221382
N2    N     N_3   0.500250 0.856350 0.502780 -0.223883
O1    O     O_R   0.317570 0.620260 0.500070 -0.519791
O2    O     O_R   0.317570 0.379740 0.500070 -0.518398
O3    O     O_R   0.499850 0.620240 0.316900 -0.498578
O4    O     O_R   0.499850 0.379760 0.316900 -0.520264
O5    O     O_R   0.682190 0.620260 0.500030 -0.510630
O6    O     O_R   0.682190 0.379740 0.500030 -0.515466
O7    O     O_R   0.499910 0.620280 0.683200 -0.514586
O8    O     O_R   0.499910 0.379720 0.683200 -0.509056
O9    O     O_3   0.717704 0.604794 0.094374 -0.580432

loop_
_geom_bond_atom_site_label_1
_geom_bond_atom_site_label_2
_ccdc_geom_bond_type
C6    N2    S    
C5    H6    S    
C14   C18   S    
C3    N1    S    
C9    O3    A    
C20   H25   S    
C7    C8    S    
C3    H33   S    
C4    H32   S    
C8    N2    S    
C1    O2    A    
C2    C29   S    
C24   H14   S    
C24   C26   S    
C11   O7    A    
C18   H11   S    
C22   H29   S    
C4    H34   S    
Cu1   O5    S    
Cu2   O4    S    
C15   C16   S    
C18   C19   S    
C8    H5    S    
C25   H19   S    
C11   O8    A    
C7    N1    S    
C16   C17   S    
C1    C28   S    
C6    H7    S    
C2    C27   S    
Cu2   O2    S    
C23   H15   S    
C21   C22   S    
C7    H2    S    
C9    O4    A    
C20   H24   S    
C4    N2    S    
Cu1   O1    S    
C5    N1    S    
Cu2   O8    S    
C25   C29   S    
Cu2   N1    S    
C15   H1    S    
C2    H23   S    
C26   H18   S    
C22   H28   S    
C23   H13   S    
C19   O9    S    
C21   H26   S    
Cu1   O7    S    
C11   C16   S    
Cu2   O6    S    
C2    H12   S    
C8    H3    S    
C23   C28   S    
C12   C13   S    
C25   H17   S    
C6    H36   S    
C12   C14   S    
C13   C15   S    
C3    C4    S    
Cu1   N2    S    
C27   H21   S    
C3    H31   S    
Cu1   Cu2   S    
C24   H16   S    
C7    H4    S    
C24   C28   S    
C5    H35   S    
Cu1   O3    S    
C27   H22   S    
C20   O9    S    
C1    O1    A    
C13   C17   S    
C21   H27   S    
C26   H20   S    
C22   H30   S    
C10   O5    A    
C10   C29   S    
C5    C6    S    
C12   C19   S    
C17   C19   S    
C23   C25   S    
C9    C12   S    
C17   H10   S    
C13   H8    S    
C14   H9    S    
C20   C21   S    
C26   C29   S    
C16   C18   S    
C27   C28   S    
C14   C15   S    
C10   O6    A    
