data_mof_unit_16166.cif
_audit_creation_date              2012-12-11T15:47:10-0500
_audit_creation_method            fapswitch 2.2
_symmetry_space_group_name_H-M    P1
_symmetry_Int_Tables_number       1
_space_group_crystal_system       triclinic
_cell_length_a                    20.109003
_cell_length_b                    7.255451
_cell_length_c                    13.655566
_cell_angle_alpha                 89.999977
_cell_angle_beta                  103.09536
_cell_angle_gamma                 89.999986
_cell_volume                      1940.53321967

loop_
_atom_site_label
_atom_site_type_symbol
_atom_type_description
_atom_site_fract_x
_atom_site_fract_y
_atom_site_fract_z
_atom_type_partial_charge
O1    O     O_R   0.449560 0.506810 0.599700 -0.535052
O2    O     O_R   0.550440 0.006810 0.400300 -0.535053
O3    O     O_R   0.587960 0.180060 0.595760 -0.547794
O4    O     O_R   0.412040 0.680060 0.404240 -0.547795
C1    C     C_R   0.615154 0.344165 0.616843 0.681535
C2    C     C_R   0.384846 0.844165 0.383156 0.681532
O5    O     O_R   0.452380 0.177430 0.611700 -0.538248
O6    O     O_R   0.547620 0.677430 0.388300 -0.538247
O7    O     O_R   0.413900 0.001890 0.416350 -0.539373
O8    O     O_R   0.586100 0.501890 0.583650 -0.539374
C3    C     C_R   0.436457 0.345460 0.637353 0.682626
C4    C     C_R   0.563543 0.845461 0.362647 0.682624
O9    O     O_3   0.487530 0.337490 0.435890 -0.377989
O10   O     O_3   0.512470 0.837490 0.564110 -0.377989
V1    V     V_3+5 0.502310 0.064660 0.511890 1.390222
V2    V     V_3+5 0.497690 0.564660 0.488110 1.390220
C5    C     C_R   0.606484 0.819686 0.110805 -0.173338
C6    C     C_R   0.393516 0.319688 0.889196 -0.173342
H1    H     H_    0.514094 0.811195 0.163540 0.102436
H2    H     H_    0.485906 0.311179 0.836459 0.102435
H3    H     H_    0.577910 0.800413 0.034407 0.130651
H4    H     H_    0.422090 0.300412 0.965594 0.130646
C7    C     C_R   0.602266 0.850981 0.284575 -0.019051
C8    C     C_R   0.397734 0.350980 0.715425 -0.019052
C9    C     C_R   0.930436 0.870833 0.314269 -0.166057
C10   C     C_R   0.069564 0.370791 0.685731 -0.166057
C11   C     C_R   0.894767 0.871624 0.390100 -0.121934
C12   C     C_R   0.105234 0.371557 0.609901 -0.121934
C13   C     C_R   0.823702 0.866014 0.366659 -0.147456
C14   C     C_R   0.176299 0.365963 0.633342 -0.147458
C15   C     C_R   0.785994 0.859461 0.265360 0.072995
C16   C     C_R   0.214007 0.359454 0.734642 0.072995
C17   C     C_R   0.822981 0.855370 0.188073 0.040531
C18   C     C_R   0.177020 0.355384 0.811930 0.040529
C19   C     C_R   0.713095 0.854601 0.238719 0.045745
C20   C     C_R   0.286906 0.354604 0.761283 0.045748
C21   C     C_R   0.678432 0.836782 0.135604 0.109990
C22   C     C_R   0.321569 0.336797 0.864398 0.109989
C23   C     C_R   0.716137 0.835425 0.059690 0.066932
C24   C     C_R   0.283865 0.335463 0.940313 0.066932
C25   C     C_R   0.787377 0.845539 0.086908 -0.225140
C26   C     C_R   0.212624 0.345582 0.913095 -0.225139
C27   C     C_R   0.673211 0.865727 0.311661 -0.198870
C28   C     C_R   0.326789 0.365729 0.688340 -0.198873
C29   C     C_R   0.569103 0.825909 0.184590 -0.182553
C30   C     C_R   0.430897 0.325902 0.815410 -0.182550
C31   C     C_R   0.895409 0.862143 0.213673 -0.056769
C32   C     C_R   0.104592 0.362141 0.786328 -0.056767
H5    H     H_    0.695391 0.883898 0.390564 0.092635
H6    H     H_    0.304609 0.383909 0.609438 0.092635
H7    H     H_    0.985719 0.877056 0.334055 0.103206
H8    H     H_    0.014281 0.376997 0.665945 0.103205
H9    H     H_    0.800227 0.865011 0.430053 0.106292
H10   H     H_    0.199774 0.364929 0.569949 0.106293
H11   H     H_    0.922420 0.876982 0.467934 0.120302
H12   H     H_    0.077581 0.376879 0.532067 0.120302
H13   H     H_    0.815153 0.844511 0.027599 0.115227
H14   H     H_    0.184847 0.344574 0.972402 0.115224
C33   C     C_R   0.220363 0.022828 0.214738 -0.160561
C34   C     C_R   0.779642 0.522830 0.785247 -0.160568
H15   H     H_    0.199213 0.155333 0.187466 0.114647
H16   H     H_    0.800795 0.655337 0.812511 0.114649
C35   C     C_R   0.285605 0.018375 0.278165 -0.167156
C36   C     C_R   0.714399 0.518377 0.721820 -0.167148
H17   H     H_    0.312645 0.147064 0.297487 0.116713
H18   H     H_    0.687363 0.647068 0.702489 0.116711
C37   C     C_R   0.315427 0.850139 0.315760 -0.034454
C38   C     C_R   0.684573 0.350138 0.684237 -0.034452
C39   C     C_R   0.277777 0.686755 0.289191 -0.156630
C40   C     C_R   0.722220 0.186752 0.710817 -0.156651
H19   H     H_    0.298296 0.554724 0.318243 0.119707
H20   H     H_    0.701697 0.054718 0.681776 0.119720
C41   C     C_R   0.212911 0.690910 0.224685 -0.169789
C42   C     C_R   0.787086 0.190908 0.775323 -0.169799
H21   H     H_    0.185945 0.562062 0.205346 0.122328
H22   H     H_    0.814049 0.062058 0.794671 0.122330
C43   C     C_R   0.183310 0.859051 0.186373 -0.034392
C44   C     C_R   0.816691 0.359051 0.813624 -0.034385
O11   O     O_R   0.913920 0.203370 0.916260 -0.539330
O12   O     O_R   0.086080 0.703370 0.083740 -0.539330
O13   O     O_R   0.047620 0.535540 0.888290 -0.537518
O14   O     O_R   0.952380 0.035540 0.111710 -0.537517
C45   C     C_R   0.064317 0.368526 0.863193 0.679493
C46   C     C_R   0.935684 0.868526 0.136807 0.679493
O15   O     O_R   0.912040 0.532780 0.904220 -0.546133
O16   O     O_R   0.087960 0.032780 0.095780 -0.546131
O17   O     O_R   0.949550 0.708160 0.099720 -0.536560
O18   O     O_R   0.050450 0.208160 0.900280 -0.536559
C47   C     C_R   0.885550 0.364870 0.882723 0.674243
C48   C     C_R   0.114450 0.864870 0.117276 0.674242
O19   O     O_3   0.012480 0.375300 0.064060 -0.378733
O20   O     O_3   0.987520 0.875300 0.935940 -0.378732
V3    V     V_3+5 0.997690 0.648180 0.988110 1.408082
V4    V     V_3+5 0.002310 0.148180 0.011890 1.408085
C49   C     C_3   0.681925 0.822439 0.948720 -0.357211
C50   C     C_3   0.645559 0.003195 0.909431 -0.349823
C51   C     C_3   0.592644 0.971732 0.811562 -0.688841
H23   H     H_    0.616492 0.905737 0.754712 0.223267
H24   H     H_    0.550917 0.881829 0.825097 0.214267
H25   H     H_    0.570336 0.105843 0.781878 0.208674
H26   H     H_    0.619292 0.064960 0.964804 0.199127
H27   H     H_    0.684003 0.104935 0.896712 0.208951
H28   H     H_    0.719958 0.792534 0.903219 0.163441
H29   H     H_    0.646198 0.703441 0.936218 0.172496
C52   C     C_3   0.318076 0.322496 0.051284 -0.357211
C53   C     C_3   0.354448 0.503249 0.090564 -0.349808
C54   C     C_3   0.407353 0.471797 0.188445 -0.688818
H30   H     H_    0.383496 0.405819 0.245291 0.223261
H31   H     H_    0.449082 0.381881 0.174930 0.214266
H32   H     H_    0.429660 0.605910 0.218126 0.208663
H33   H     H_    0.380726 0.564973 0.035192 0.199120
H34   H     H_    0.316008 0.605019 0.103262 0.208950
H35   H     H_    0.280042 0.292616 0.096787 0.163439
H36   H     H_    0.353799 0.203489 0.063794 0.172492

loop_
_geom_bond_atom_site_label_1
_geom_bond_atom_site_label_2
_ccdc_geom_bond_type
C14   C16   A    
C35   H17   S    
C7    C29   A    
C50   H27   S    
C11   C13   A    
C54   H31   S    
C49   C50   S    
O1    C3    A    
C46   O17   A    
O2    C4    A    
C33   C43   A    
C2    O7    A    
C51   H23   S    
C12   H12   S    
C23   C25   A    
C53   H34   S    
O5    C3    A    
C14   H10   S    
C4    C7    S    
C34   C44   A    
C42   H22   S    
O14   V4    S    
C16   C20   A    
C52   H35   S    
C19   C21   A    
C5    C29   A    
C11   H11   S    
C53   C54   S    
C3    C8    S    
C7    C27   A    
C34   H16   S    
C39   H19   S    
O16   V4    S    
C51   H24   S    
O15   V3    S    
C18   C26   A    
C40   C42   A    
C54   H30   S    
C15   C17   A    
C39   C41   A    
C19   C27   A    
C9    C31   A    
C10   C32   A    
C24   C26   A    
C45   O18   A    
O6    V2    S    
C50   H26   S    
O12   C48   A    
C41   H21   S    
C26   H14   S    
C1    C38   S    
C6    C30   A    
O13   C45   A    
C49   H28   S    
O18   V4    S    
C53   H33   S    
C44   C47   S    
C35   C37   A    
C43   C48   S    
C33   H15   S    
C52   H36   S    
O11   V4    S    
O4    C2    A    
O16   C48   A    
O15   C47   A    
C27   H5    S    
O5    V1    S    
C5    H3    S    
C37   C39   A    
C36   H18   S    
O4    V2    S    
C9    H7    S    
C10   H8    S    
O13   V3    S    
O6    C4    A    
C50   C51   S    
O1    V2    S    
C5    C21   A    
C31   C46   S    
O2    V1    S    
C23   C49   S    
C38   C40   A    
C2    C37   S    
O14   C46   A    
C17   C31   A    
C54   H32   S    
C15   C19   A    
C20   C28   A    
C18   C32   A    
C36   C38   A    
C51   H25   S    
O3    V1    S    
C49   H29   S    
C28   H6    S    
C6    H4    S    
C10   C12   A    
O3    C1    A    
H1    C29   S    
C9    C11   A    
C52   C53   S    
C33   C35   A    
C32   C45   S    
C34   C36   A    
C17   C25   A    
C20   C22   A    
O7    V1    S    
C8    C30   A    
C1    O8    A    
C21   C23   A    
O8    V2    S    
O19   V4    S    
C22   C24   A    
C13   H9    S    
C8    C28   A    
O17   V3    S    
C12   C14   A    
O20   V3    S    
C6    C22   A    
O11   C47   A    
C25   H13   S    
C13   C15   A    
C42   C44   A    
O9    V2    S    
C41   C43   A    
O10   V1    S    
C40   H20   S    
O12   V3    S    
H2    C30   S    
C16   C18   A    
C24   C52   S    
