data_mof_unit_14909.cif
_audit_creation_date              2012-12-10T17:26:21-0500
_audit_creation_method            fapswitch 2.2
_symmetry_space_group_name_H-M    P1
_symmetry_Int_Tables_number       1
_space_group_crystal_system       triclinic
_cell_length_a                    26.232
_cell_length_b                    25.829593
_cell_length_c                    22.265912
_cell_angle_alpha                 89.939952
_cell_angle_beta                  126.228473
_cell_angle_gamma                 90.047628
_cell_volume                      12169.7970953

loop_
_atom_site_label
_atom_site_type_symbol
_atom_type_description
_atom_site_fract_x
_atom_site_fract_y
_atom_site_fract_z
_atom_type_partial_charge
C1    C     C_R   0.900372 0.749891 0.300590 0.878937
C2    C     C_3   0.810129 0.257143 0.024974 -0.150066
C3    C     C_R   0.748732 0.280951 0.448554 0.012080
C4    C     C_R   0.244669 0.230748 0.437823 0.034322
C5    C     C_R   0.750906 0.781495 0.550631 0.006847
C6    C     C_R   0.754531 0.229140 0.560367 0.044716
C7    C     C_R   0.249134 0.781489 0.449270 0.011842
C8    C     C_R   0.697051 0.749983 0.500300 -0.093368
C9    C     C_R   0.304170 0.248867 0.500591 -0.101336
C10   C     C_R   0.302238 0.748797 0.498323 -0.113786
C11   C     C_R   0.695503 0.248747 0.498761 -0.102394
C12   C     C_R   0.197139 0.249895 0.500437 -0.093398
C13   C     C_3   0.810249 0.741372 0.025061 -0.143039
C14   C     C_R   0.804116 0.748938 0.500522 -0.101606
C15   C     C_R   0.802146 0.248677 0.498175 -0.113894
C16   C     C_R   0.195563 0.748838 0.498840 -0.102705
C17   C     C_R   0.884802 0.946221 0.388556 -0.000129
C18   C     C_R   0.115513 0.054279 0.610566 0.008883
C19   C     C_R   0.115545 0.945945 0.609994 0.001013
C20   C     C_R   0.884687 0.054529 0.389410 0.008670
C21   C     C_R   0.385011 0.446245 0.387966 -0.000157
C22   C     C_R   0.615341 0.554281 0.611057 0.009728
C23   C     C_R   0.615343 0.445952 0.610572 0.000959
C24   C     C_3   0.190612 0.260834 0.975056 -0.150359
C25   C     C_R   0.384871 0.554548 0.388930 0.009646
C26   C     C_R   0.830453 0.973871 0.336750 -0.156615
C27   C     C_R   0.169861 0.026609 0.662362 -0.186245
C28   C     C_R   0.169885 0.973502 0.662072 -0.159063
C29   C     C_R   0.830391 0.026971 0.337200 -0.188593
C30   C     C_R   0.330783 0.473905 0.335840 -0.156630
C31   C     C_R   0.669562 0.526614 0.663209 -0.186505
C32   C     C_R   0.669568 0.473507 0.662969 -0.159082
C33   C     C_R   0.330705 0.527002 0.336352 -0.189083
C34   C     C_R   0.942825 0.027860 0.444920 0.041759
C35   C     C_3   0.689560 0.242665 0.974922 -0.142547
C36   C     C_R   0.057321 0.972522 0.554715 0.026556
C37   C     C_R   0.057329 0.027735 0.554938 0.037767
C38   C     C_R   0.942846 0.972654 0.444595 0.024743
C39   C     C_R   0.442923 0.527870 0.444667 0.042156
C40   C     C_R   0.557220 0.472526 0.554997 0.026471
C41   C     C_R   0.557239 0.527737 0.555197 0.037980
C42   C     C_R   0.442951 0.472665 0.444308 0.024591
C43   C     C_R   0.000059 0.054239 0.500093 -0.118876
C44   C     C_R   0.000012 0.946035 0.499731 -0.135583
C45   C     C_R   0.500064 0.554243 0.500097 -0.118468
C46   C     C_3   0.310036 0.757802 0.024972 -0.150268
C47   C     C_R   0.500010 0.446038 0.499727 -0.135567
C48   C     C_R   0.999893 0.889970 0.499861 0.806045
C49   C     C_R   0.000105 0.110125 0.500114 0.827791
C50   C     C_R   0.499884 0.389972 0.499852 0.805864
C51   C     C_R   0.500112 0.610126 0.500120 0.828257
C52   C     C_R   0.000001 0.610146 0.499989 0.777599
C53   C     C_R   0.000011 0.389877 0.500008 0.777289
C54   C     C_R   0.500001 0.110145 0.499990 0.778081
C55   C     C_R   0.500012 0.889873 0.500010 0.777864
C56   C     C_R   0.045769 0.554079 0.429739 -0.141656
C57   C     C_3   0.309788 0.239030 0.025060 -0.143503
C58   C     C_R   0.956713 0.446050 0.572896 -0.150835
C59   C     C_R   0.954471 0.553876 0.570499 -0.140716
C60   C     C_R   0.043850 0.446246 0.427693 -0.148677
C61   C     C_R   0.542979 0.054074 0.426731 -0.140643
C62   C     C_R   0.459304 0.946032 0.575640 -0.150562
C63   C     C_R   0.457260 0.053871 0.573499 -0.139931
C64   C     C_R   0.541288 0.946228 0.424968 -0.148171
C65   C     C_R   0.067428 0.527097 0.394726 -0.129533
C66   C     C_R   0.934326 0.473006 0.607138 -0.097989
C67   C     C_R   0.933062 0.526798 0.605786 -0.133619
C68   C     C_3   0.690137 0.758505 0.975055 -0.149860
C69   C     C_R   0.066341 0.473302 0.393565 -0.096135
C70   C     C_R   0.563315 0.027093 0.390297 -0.128739
C71   C     C_R   0.438324 0.972997 0.611407 -0.098289
C72   C     C_R   0.437182 0.026794 0.610210 -0.132707
C73   C     C_R   0.562367 0.973293 0.389307 -0.096583
C74   C     C_R   0.022494 0.472798 0.464617 0.049141
C75   C     C_R   0.977133 0.527294 0.534965 0.073230
C76   C     C_R   0.977772 0.472700 0.535653 0.048979
C77   C     C_R   0.023029 0.527395 0.465190 0.072182
C78   C     C_R   0.521159 0.972787 0.463181 0.048993
C79   C     C_1   0.139465 0.749854 0.778857 -0.059806
C80   C     C_R   0.478534 0.027285 0.536481 0.073330
C81   C     C_R   0.479120 0.972688 0.537099 0.048759
C82   C     C_R   0.521631 0.027386 0.463675 0.072284
C83   C     C_R   0.000065 0.445970 0.500063 -0.139772
C84   C     C_R   0.000013 0.554095 0.500003 -0.137748
C85   C     C_R   0.500068 0.945961 0.500067 -0.139566
C86   C     C_R   0.500013 0.054089 0.500003 -0.137182
C87   C     C_3   0.744455 0.204275 0.024747 -0.162548
C88   C     C_3   0.254639 0.795777 0.975156 -0.153456
C89   C     C_3   0.252080 0.203056 0.975354 -0.162674
C90   C     C_1   0.860422 0.250053 0.221092 -0.114436
C91   C     C_3   0.746079 0.796052 0.024749 -0.154290
C92   C     C_3   0.245070 0.704044 0.024750 -0.162976
C93   C     C_3   0.755239 0.295531 0.975159 -0.153504
C94   C     C_3   0.754302 0.703823 0.975357 -0.162412
C95   C     C_3   0.248314 0.296807 0.024753 -0.154214
C96   C     C_1   0.876435 0.890761 0.379213 0.184006
C97   C     C_1   0.124580 0.109825 0.618720 0.139467
C98   C     C_1   0.124298 0.890428 0.617785 0.179952
C99   C     C_1   0.875571 0.110090 0.381854 0.140376
C100  C     C_1   0.376618 0.390790 0.378639 0.184848
C101  C     C_1   0.860610 0.749877 0.221134 -0.059303
C102  C     C_1   0.624466 0.609824 0.619059 0.138733
C103  C     C_1   0.624116 0.390440 0.618335 0.180820
C104  C     C_1   0.375697 0.610105 0.381541 0.140099
C105  C     C_2   0.918683 0.813736 0.766005 0.969688
C106  C     C_2   0.090359 0.130903 0.283484 0.976103
C107  C     C_2   0.081970 0.816970 0.234931 0.969864
C108  C     C_2   0.884093 0.108924 0.695141 0.961343
C109  C     C_2   0.419379 0.311537 0.767141 0.969359
C110  C     C_2   0.591268 0.629402 0.285120 0.975958
C111  C     C_2   0.581181 0.314588 0.233651 0.969807
C112  C     C_R   0.099681 0.250065 0.699428 0.834562
C113  C     C_1   0.139552 0.250019 0.778922 -0.118918
C114  C     C_2   0.383104 0.607640 0.693173 0.961256
C115  C     C_2   0.750668 0.758107 0.332821 0.969285
C116  C     C_2   0.203223 0.364000 0.558975 0.985456
C117  C     C_2   0.251401 0.755097 0.667810 0.974779
C118  C     C_2   0.798045 0.364106 0.443206 0.982621
C119  C     C_2   0.250883 0.259090 0.333114 0.968082
C120  C     C_2   0.702002 0.864447 0.557004 0.984770
C121  C     C_2   0.751212 0.256126 0.667538 0.973490
C122  C     C_2   0.299371 0.864571 0.445324 0.981965
C123  C     C_2   0.652045 0.634267 0.452718 0.973422
C124  C     C_1   0.639460 0.249849 0.778858 -0.059831
C125  C     C_2   0.419349 0.235926 0.663979 0.956128
C126  C     C_2   0.347545 0.633855 0.540411 0.982376
C127  C     C_2   0.579933 0.237843 0.335032 0.959186
C128  C     C_2   0.151373 0.134449 0.451219 0.975235
C129  C     C_2   0.919188 0.737034 0.664258 0.957115
C130  C     C_2   0.848331 0.134003 0.541992 0.983731
C131  C     C_2   0.080112 0.739078 0.334747 0.960303
C132  C     C_1   0.360426 0.750057 0.221093 -0.114700
C133  C     C_1   0.360615 0.249875 0.221132 -0.059248
C134  C     C_1   0.639549 0.750026 0.778921 -0.119070
C135  C     C_3   0.268132 0.711895 0.975406 -0.151239
C136  C     C_3   0.732075 0.288334 0.024500 -0.154287
C137  C     C_3   0.731395 0.712371 0.024719 -0.149789
C138  C     C_3   0.270751 0.285919 0.975388 -0.151956
C139  C     C_3   0.767619 0.211474 0.975404 -0.151587
C140  C     C_R   0.099672 0.749913 0.699392 0.877353
C141  C     C_3   0.231577 0.787929 0.024498 -0.153597
C142  C     C_3   0.229642 0.213945 0.024718 -0.149262
C143  C     C_3   0.768984 0.787506 0.975387 -0.152943
C144  C     C_3   0.213399 0.749871 0.926912 0.176248
C145  C     C_3   0.786311 0.249945 0.073000 0.180816
C146  C     C_3   0.786673 0.749918 0.073090 0.175358
C147  C     C_3   0.213703 0.249946 0.927008 0.180618
C148  C     C_3   0.713391 0.249863 0.926912 0.176313
C149  C     C_3   0.286318 0.749953 0.073000 0.180766
C150  C     C_3   0.286682 0.249918 0.073091 0.175355
C151  C     C_R   0.900313 0.250077 0.300589 0.832640
C152  C     C_3   0.713699 0.749957 0.927008 0.180711
C153  C     C_1   0.172879 0.749846 0.845725 -0.041262
C154  C     C_1   0.826915 0.250003 0.154208 -0.059321
C155  C     C_1   0.827203 0.749892 0.154270 -0.041266
C156  C     C_1   0.173071 0.249977 0.845804 -0.058041
C157  C     C_1   0.672874 0.249840 0.845725 -0.041459
C158  C     C_1   0.326921 0.750009 0.154209 -0.059363
C159  C     C_1   0.327210 0.249892 0.154270 -0.041402
C160  C     C_1   0.673066 0.749989 0.845804 -0.058188
C161  C     C_R   0.727433 0.723189 0.364836 -0.092140
C162  C     C_R   0.400375 0.249888 0.300589 0.880172
C163  C     C_R   0.253614 0.323964 0.592526 -0.022385
C164  C     C_R   0.271688 0.719836 0.632901 -0.102063
C165  C     C_R   0.747132 0.324489 0.408533 -0.019625
C166  C     C_R   0.227327 0.224004 0.364594 -0.091977
C167  C     C_R   0.752864 0.824790 0.591130 -0.022541
C168  C     C_R   0.771810 0.220648 0.633179 -0.101881
C169  C     C_R   0.247955 0.825373 0.410050 -0.019689
C170  C     C_R   0.676193 0.690683 0.315738 -0.291143
C171  C     C_R   0.310646 0.334708 0.661677 -0.238646
C172  C     C_R   0.318510 0.682893 0.677787 -0.279014
C173  C     C_R   0.599678 0.750069 0.699428 0.834681
C174  C     C_R   0.690280 0.336234 0.339672 -0.243567
C175  C     C_R   0.175821 0.191876 0.315014 -0.290932
C176  C     C_R   0.809817 0.836112 0.660082 -0.237861
C177  C     C_R   0.818906 0.184036 0.678611 -0.278585
C178  C     C_R   0.191201 0.837741 0.341423 -0.242973
C179  C     C_R   0.643888 0.664252 0.338919 -0.057469
C180  C     C_R   0.364786 0.305054 0.687958 -0.074337
C181  C     C_R   0.345381 0.653824 0.649944 -0.053259
C182  C     C_R   0.635628 0.307071 0.312671 -0.075852
C183  C     C_R   0.143310 0.165305 0.337810 -0.057509
C184  C     C_R   0.599669 0.249909 0.699393 0.878524
C185  C     C_R   0.864180 0.806612 0.686922 -0.074812
C186  C     C_R   0.846004 0.154779 0.651208 -0.053375
C187  C     C_R   0.136308 0.808759 0.313824 -0.076171
C188  C     C_R   0.659510 0.674854 0.410441 -0.067533
C189  C     C_R   0.364837 0.270877 0.637874 -0.068517
C190  C     C_R   0.334705 0.669620 0.582145 -0.083319
C191  C     C_R   0.634976 0.272388 0.361943 -0.069574
C192  C     C_R   0.159059 0.175375 0.409514 -0.068182
C193  C     C_R   0.864508 0.771954 0.637475 -0.068710
C194  C     C_R   0.835203 0.170079 0.583167 -0.083892
C195  C     C_R   0.400315 0.750079 0.300590 0.832651
C196  C     C_R   0.135347 0.773569 0.362399 -0.069800
C197  C     C_R   0.699935 0.717492 0.450537 0.013967
C198  C     C_R   0.308274 0.266102 0.564062 0.010178
C199  C     C_R   0.298073 0.714971 0.546217 0.020312
C200  C     C_R   0.691482 0.266626 0.435580 0.008405
C201  C     C_R   0.199792 0.217732 0.450223 0.013807
C202  C     C_R   0.808035 0.766661 0.563698 0.010457
C203  C     C_R   0.798233 0.215175 0.546563 0.020434
C204  C     C_R   0.191748 0.767240 0.435985 0.008661
C205  C     C_R   0.140149 0.749892 0.499975 0.862466
C206  C     C_3   0.189668 0.742022 0.974925 -0.142682
C207  C     C_R   0.859258 0.249639 0.499438 0.844936
C208  C     C_R   0.859825 0.749856 0.499952 0.863226
C209  C     C_R   0.140477 0.250081 0.500084 0.861667
C210  C     C_R   0.640138 0.249882 0.499968 0.862707
C211  C     C_R   0.359283 0.749664 0.499474 0.845860
C212  C     C_R   0.359837 0.249847 0.499959 0.863483
C213  C     C_R   0.640452 0.750102 0.500048 0.862457
C214  C     C_R   0.744732 0.730421 0.437975 0.034173
C215  C     C_R   0.251271 0.281005 0.551289 0.007122
C216  C     C_R   0.254460 0.728830 0.560203 0.044565
H1    H     H_    0.915811 0.547673 0.632591 0.163242
H2    H     H_    0.786778 0.046914 0.295731 0.157779
H3    H     H_    0.786950 0.954002 0.294806 0.161397
H4    H     H_    0.213492 0.046471 0.703973 0.156715
H5    H     H_    0.713097 0.453558 0.704660 0.161478
H6    H     H_    0.287170 0.546952 0.294672 0.157497
H7    H     H_    0.287371 0.454044 0.293635 0.161258
H8    H     H_    0.713117 0.546475 0.705031 0.156440
H9    H     H_    0.046843 0.595924 0.428388 0.134068
H10   H     H_    0.957379 0.404231 0.576031 0.155909
H11   H     H_    0.953292 0.595714 0.571725 0.133193
H12   H     H_    0.082815 0.452418 0.365926 0.168298
H13   H     H_    0.043323 0.404428 0.424698 0.154966
H14   H     H_    0.543979 0.095921 0.425332 0.132103
H15   H     H_    0.459853 0.904205 0.578605 0.154600
H16   H     H_    0.456143 0.095711 0.574763 0.131233
H17   H     H_    0.540894 0.904402 0.422157 0.153582
H18   H     H_    0.139670 0.735553 0.953242 0.169184
H19   H     H_    0.860194 0.263088 0.046616 0.149458
H20   H     H_    0.860144 0.734351 0.046732 0.168910
H21   H     H_    0.141119 0.269790 0.953437 0.150617
H22   H     H_    0.639480 0.236731 0.953238 0.169526
H23   H     H_    0.084754 0.548048 0.368000 0.165371
H24   H     H_    0.360019 0.764282 0.046615 0.149348
H25   H     H_    0.359297 0.230090 0.046724 0.168306
H26   H     H_    0.640258 0.765540 0.953429 0.150951
H27   H     H_    0.740573 0.166796 0.046213 0.148710
H28   H     H_    0.258019 0.833449 0.953679 0.149466
H29   H     H_    0.253083 0.164550 0.953973 0.149537
H30   H     H_    0.743255 0.833928 0.046145 0.149409
H31   H     H_    0.241687 0.666370 0.046219 0.148672
H32   H     H_    0.759119 0.333008 0.953684 0.149473
H33   H     H_    0.757133 0.665943 0.953975 0.149373
H34   H     H_    0.918063 0.452047 0.635005 0.168531
H35   H     H_    0.247318 0.335309 0.046149 0.149326
H36   H     H_    0.718012 0.319899 0.045751 0.153986
H37   H     H_    0.282600 0.680676 0.954134 0.151426
H38   H     H_    0.287092 0.315474 0.954031 0.154148
H39   H     H_    0.716508 0.681521 0.046096 0.152915
H40   H     H_    0.217097 0.819153 0.045748 0.154053
H41   H     H_    0.781670 0.179916 0.954131 0.151219
H42   H     H_    0.783884 0.818362 0.954033 0.153937
H43   H     H_    0.213315 0.184398 0.046101 0.153245
H44   H     H_    0.660391 0.686575 0.258682 0.176538
H45   H     H_    0.421021 0.047672 0.638193 0.162428
H46   H     H_    0.312571 0.365503 0.695995 0.223827
H47   H     H_    0.332181 0.675075 0.733314 0.184096
H48   H     H_    0.688872 0.367445 0.306146 0.225065
H49   H     H_    0.159987 0.188177 0.257898 0.176563
H50   H     H_    0.811492 0.867199 0.693868 0.223909
H51   H     H_    0.832621 0.176611 0.734246 0.183966
H52   H     H_    0.190071 0.869255 0.308475 0.225033
H53   H     H_    0.970982 0.863283 0.851761 0.350515
H54   H     H_    0.001590 0.106212 0.238411 0.350562
H55   H     H_    0.030490 0.867690 0.150491 0.351688
H56   H     H_    0.577862 0.952410 0.360628 0.166586
H57   H     H_    0.947799 0.078414 0.796922 0.356712
H58   H     H_    0.471988 0.360352 0.853791 0.350309
H59   H     H_    0.502644 0.604398 0.240219 0.350608
H60   H     H_    0.529338 0.364529 0.148229 0.351484
H61   H     H_    0.446480 0.576340 0.794484 0.356829
H62   H     H_    0.753412 0.702211 0.271059 0.310593
H63   H     H_    0.164055 0.424551 0.575218 0.353367
H64   H     H_    0.244604 0.698582 0.725957 0.307015
H65   H     H_    0.837895 0.425061 0.428572 0.353202
H66   H     H_    0.253306 0.203556 0.270698 0.310621
H67   H     H_    0.579544 0.048046 0.362385 0.164372
H68   H     H_    0.662373 0.925096 0.572366 0.353322
H69   H     H_    0.744709 0.199979 0.726354 0.307143
H70   H     H_    0.339711 0.925619 0.431632 0.353108
H71   H     H_    0.686339 0.603606 0.553289 0.341809
H72   H     H_    0.448913 0.165138 0.658590 0.318719
H73   H     H_    0.312356 0.597798 0.443028 0.341512
H74   H     H_    0.549273 0.167177 0.339220 0.318659
H75   H     H_    0.185276 0.103217 0.551368 0.341884
H76   H     H_    0.949076 0.666134 0.659800 0.319186
H77   H     H_    0.813565 0.097396 0.445095 0.341566
H78   H     H_    0.423049 0.952040 0.640318 0.166908
H79   H     H_    0.049072 0.668300 0.337854 0.319209
H80   H     H_    0.213503 0.953552 0.703510 0.161618
N1    N     N_1   0.869386 0.846430 0.371136 -0.145519
N2    N     N_1   0.132776 0.154130 0.625868 -0.194111
N3    N     N_1   0.131696 0.846061 0.624587 -0.149084
N4    N     N_1   0.867324 0.154399 0.375205 -0.199824
N5    N     N_1   0.369540 0.346461 0.370565 -0.145143
N6    N     N_1   0.632705 0.654127 0.626083 -0.194136
N7    N     N_1   0.631528 0.346074 0.625119 -0.148717
N8    N     N_1   0.367405 0.654410 0.375029 -0.199787
O1    O     O_3   0.000000 0.750000 0.500000 -0.506737
O2    O     O_R   0.612550 0.780360 0.664400 -0.628114
O3    O     O_R   0.090048 0.687782 0.359517 -0.820773
O4    O     O_R   0.612550 0.219640 0.664400 -0.629289
O5    O     O_R   0.387450 0.780360 0.335600 -0.630490
O6    O     O_R   0.094250 0.780350 0.456890 -0.638412
O7    O     O_R   0.905750 0.219650 0.543110 -0.644267
O8    O     O_R   0.905750 0.780350 0.543110 -0.636842
O9    O     O_R   0.094250 0.219650 0.456890 -0.640446
O10   O     O_R   0.594250 0.280350 0.456890 -0.638246
O11   O     O_R   0.405750 0.719650 0.543110 -0.644180
O12   O     O_R   0.405750 0.280350 0.543110 -0.636629
O13   O     O_3   1.000000 0.250000 0.500000 -0.506612
O14   O     O_R   0.594250 0.719650 0.456890 -0.640564
O15   O     O_R   0.008810 0.865800 0.456890 -0.627301
O16   O     O_R   0.991190 0.134200 0.543110 -0.594723
O17   O     O_R   0.991190 0.865800 0.543110 -0.624870
O18   O     O_R   0.008810 0.134200 0.456890 -0.607083
O19   O     O_R   0.508810 0.365800 0.456890 -0.627466
O20   O     O_R   0.491190 0.634200 0.543110 -0.594588
O21   O     O_R   0.491190 0.365800 0.543110 -0.624927
O22   O     O_R   0.508810 0.634200 0.456890 -0.606777
O23   O     O_R   0.948090 0.634190 0.456900 -0.639202
O24   O     O_3   0.500000 0.250000 0.500000 -0.506942
O25   O     O_R   0.051910 0.365810 0.543100 -0.631585
O26   O     O_R   0.051910 0.634190 0.543100 -0.640547
O27   O     O_R   0.948090 0.365810 0.456900 -0.630174
O28   O     O_R   0.448090 0.134190 0.456900 -0.638724
O29   O     O_R   0.551910 0.865810 0.543100 -0.631228
O30   O     O_R   0.551910 0.134190 0.543100 -0.640012
O31   O     O_R   0.448090 0.865810 0.456900 -0.629770
O32   O     O_R   0.137350 0.719630 0.543100 -0.647478
O33   O     O_R   0.862650 0.280370 0.456900 -0.638061
O34   O     O_R   0.862650 0.719630 0.456900 -0.646532
O35   O     O_3   0.500000 0.750000 0.500000 -0.506739
O36   O     O_R   0.137350 0.280370 0.543100 -0.642695
O37   O     O_R   0.637350 0.219630 0.543100 -0.646908
O38   O     O_R   0.362650 0.780370 0.456900 -0.638101
O39   O     O_R   0.362650 0.219630 0.456900 -0.646004
O40   O     O_R   0.637350 0.780370 0.543100 -0.642624
O41   O     O_R   0.948170 0.780360 0.335600 -0.602840
O42   O     O_R   0.051830 0.219640 0.664400 -0.623637
O43   O     O_R   0.051830 0.780360 0.664400 -0.602585
O44   O     O_R   0.948170 0.219640 0.335600 -0.612602
O45   O     O_R   0.448170 0.280360 0.335600 -0.602868
O46   O     O_R   0.887450 0.719640 0.335600 -0.626952
O47   O     O_R   0.551830 0.719640 0.664400 -0.623835
O48   O     O_R   0.551830 0.280360 0.664400 -0.602603
O49   O     O_R   0.448170 0.719640 0.335600 -0.612860
O50   O     O_2   0.948808 0.776356 0.804788 -0.600885
O51   O     O_R   0.933586 0.863305 0.797252 -0.786152
O52   O     O_2   0.094525 0.104231 0.241198 -0.608486
O53   O     O_R   0.034500 0.130759 0.278173 -0.751802
O54   O     O_2   0.051329 0.780129 0.195143 -0.600252
O55   O     O_R   0.067838 0.866961 0.205010 -0.784025
O56   O     O_2   0.877716 0.067752 0.664356 -0.575986
O57   O     O_R   0.112550 0.280360 0.664400 -0.627924
O58   O     O_R   0.925134 0.112243 0.772784 -0.797329
O59   O     O_2   0.449357 0.273865 0.805205 -0.601337
O60   O     O_R   0.434549 0.360816 0.799308 -0.786865
O61   O     O_2   0.595779 0.602338 0.243424 -0.608388
O62   O     O_R   0.535309 0.629275 0.279592 -0.751481
O63   O     O_2   0.550706 0.277418 0.194633 -0.600446
O64   O     O_R   0.566742 0.364279 0.202732 -0.784468
O65   O     O_2   0.376479 0.566720 0.661747 -0.576530
O66   O     O_R   0.424079 0.610348 0.770872 -0.797206
O67   O     O_2   0.761182 0.803451 0.351807 -0.600467
O68   O     O_R   0.112550 0.719640 0.664400 -0.628511
O69   O     O_R   0.758384 0.741003 0.279083 -0.768114
O70   O     O_2   0.165463 0.367339 0.491261 -0.663109
O71   O     O_R   0.199894 0.398803 0.604643 -0.786480
O72   O     O_2   0.243524 0.800958 0.651405 -0.597589
O73   O     O_R   0.242976 0.737610 0.720867 -0.766290
O74   O     O_2   0.835802 0.366513 0.511001 -0.662027
O75   O     O_R   0.801827 0.399603 0.398485 -0.786585
O76   O     O_2   0.261664 0.304320 0.352657 -0.600564
O77   O     O_R   0.258588 0.242292 0.279250 -0.768600
O78   O     O_2   0.663981 0.867127 0.489256 -0.662501
O79   O     O_R   0.887450 0.280360 0.335600 -0.630299
O80   O     O_R   0.698522 0.899660 0.602155 -0.786276
O81   O     O_2   0.743089 0.301886 0.650560 -0.597751
O82   O     O_R   0.742791 0.238973 0.720728 -0.766698
O83   O     O_2   0.337405 0.866268 0.513135 -0.661418
O84   O     O_R   0.303317 0.900497 0.401166 -0.786580
O85   O     O_2   0.613677 0.599196 0.420765 -0.581681
O86   O     O_R   0.692066 0.635030 0.530579 -0.808483
O87   O     O_2   0.473529 0.251620 0.707188 -0.598494
O88   O     O_R   0.408341 0.185007 0.637723 -0.822495
O89   O     O_2   0.398372 0.611653 0.571596 -0.565502
O90   O     O_R   0.387450 0.219640 0.335600 -0.627680
O91   O     O_R   0.300625 0.625814 0.464584 -0.800534
O92   O     O_2   0.525999 0.254036 0.291834 -0.598274
O93   O     O_R   0.590147 0.186721 0.360514 -0.820209
O94   O     O_2   0.112974 0.099456 0.418775 -0.581615
O95   O     O_R   0.191221 0.134792 0.529090 -0.808122
O96   O     O_2   0.973297 0.752887 0.707436 -0.597631
O97   O     O_R   0.908417 0.685958 0.638614 -0.823119
O98   O     O_2   0.899304 0.111988 0.573552 -0.565286
O99   O     O_R   0.801555 0.125501 0.466244 -0.800120
O100  O     O_2   0.026264 0.755465 0.291613 -0.597424
Zn1   Zn    Zn3+2 0.074160 0.706620 0.561580 0.997842
Zn2   Zn    Zn3+2 0.987410 0.206630 0.561590 1.044128
Zn3   Zn    Zn3+2 0.987410 0.793370 0.561590 1.045256
Zn4   Zn    Zn3+2 0.012590 0.206630 0.438410 1.051650
Zn5   Zn    Zn3+2 0.512590 0.293370 0.438410 1.043089
Zn6   Zn    Zn3+2 0.487410 0.706630 0.561590 1.044195
Zn7   Zn    Zn3+2 0.487410 0.293370 0.561590 1.045443
Zn8   Zn    Zn3+2 0.512590 0.706630 0.438410 1.051843
Zn9   Zn    Zn3+2 0.925840 0.293380 0.438420 1.012847
Zn10  Zn    Zn3+2 0.925840 0.706620 0.438420 1.001153
Zn11  Zn    Zn3+2 0.074160 0.293380 0.561580 1.012894
Zn12  Zn    Zn3+2 0.574160 0.206620 0.561580 0.998437
Zn13  Zn    Zn3+2 0.425840 0.793380 0.438420 1.013206
Zn14  Zn    Zn3+2 0.425840 0.206620 0.438420 1.001743
Zn15  Zn    Zn3+2 0.574160 0.793380 0.561580 1.013275
Zn16  Zn    Zn3+2 0.012590 0.793370 0.438410 1.042983

loop_
_geom_bond_atom_site_label_1
_geom_bond_atom_site_label_2
_ccdc_geom_bond_type
H62   O69   S    
C110  O62   S    
C14   C208  S    
C74   C83   A    
C93   C136  S    
C58   C66   A    
C72   H45   S    
C173  O2    A    
C119  O77   S    
C125  O88   S    
C108  C186  S    
C61   C82   A    
C127  O93   S    
O48   Zn7   S    
C101  C155  T    
C94   C152  S    
C122  O83   D    
C52   C84   S    
C112  O42   A    
C141  C206  S    
C80   C86   A    
C92   H31   S    
C23   C103  S    
C120  O80   S    
C196  C204  A    
C58   H10   S    
C176  H50   S    
C51   O20   A    
C33   H6    S    
O35   Zn13  S    
C27   H4    S    
O46   Zn10  S    
C52   O23   A    
C133  C162  S    
C143  H42   S    
C76   C83   A    
O11   Zn6   S    
C190  C199  A    
C118  O75   S    
C128  O95   S    
C150  C159  S    
C60   H13   S    
C137  C146  S    
C6    C11   A    
C1    O46   A    
C179  C188  A    
C111  C182  S    
C177  C186  A    
C199  C216  A    
O16   Zn2   S    
H66   O77   S    
C75   C76   A    
O13   Zn9   S    
C102  N6    T    
C181  C190  A    
C78   C82   A    
H69   O82   S    
C61   H14   S    
C17   C96   S    
C119  O76   D    
C137  H39   S    
C123  O85   D    
C13   H20   S    
C62   C81   A    
O1    Zn10  S    
C36   C44   A    
C92   C135  S    
O40   Zn15  S    
C1    C101  S    
O7    Zn2   S    
C208  O34   A    
C50   O19   A    
C107  O54   D    
C4    C166  A    
C121  C168  S    
C117  O73   S    
O2    Zn15  S    
C97   N2    T    
H61   O66   S    
C115  O69   S    
C5    C8    A    
C15   C203  A    
C51   O22   A    
C114  C181  S    
O24   Zn12  S    
O1    Zn1   S    
C13   C94   S    
O19   Zn5   S    
O47   Zn6   S    
C6    C203  A    
O43   Zn3   S    
C4    C201  A    
C20   C99   S    
C114  O66   S    
C89   H29   S    
C96   N1    T    
C106  C183  S    
C21   C42   A    
C173  O47   A    
C213  O40   A    
C92   C149  S    
C94   C137  S    
C41   C45   A    
C136  H36   S    
C54   O30   A    
C213  O14   A    
C16   C204  A    
C197  C214  A    
C89   C142  S    
H75   O95   S    
O29   Zn15  S    
C134  C160  T    
C66   H34   S    
H53   O51   S    
C210  O37   A    
C55   O31   A    
O28   Zn14  S    
C10   C199  A    
C174  C182  A    
C205  O6    A    
C58   C76   A    
C131  O100  D    
O35   Zn6   S    
O21   Zn7   S    
O38   Zn13  S    
O22   Zn8   S    
C36   C37   A    
C12   C209  S    
C124  C184  S    
O20   Zn6   S    
C180  C189  A    
C177  H51   S    
C178  H52   S    
C75   C84   A    
C167  C176  A    
C130  O98   D    
O9    Zn4   S    
C123  C188  S    
C211  O38   A    
C184  O4    A    
C126  C190  S    
C11   C200  A    
O1    Zn16  S    
C1    O41   A    
C59   C67   A    
C35   C87   S    
C172  C181  A    
C53   O25   A    
C121  O81   D    
C140  O68   A    
C74   C77   A    
O44   Zn4   S    
C64   C73   A    
C149  C158  S    
C121  O82   S    
C39   C45   A    
C66   C67   A    
C91   H30   S    
O31   Zn13  S    
C115  O67   D    
C98   N3    T    
C47   C50   S    
C91   C143  S    
C63   C80   A    
C6    C168  A    
C139  C148  S    
O1    Zn3   S    
C191  C200  A    
C16   C205  S    
C54   C86   S    
C77   C84   A    
C165  C174  A    
C128  O94   D    
C127  C191  S    
C128  C192  S    
C115  C161  S    
C79   C153  T    
C31   C32   A    
C119  C166  S    
O39   Zn14  S    
C3    C200  A    
C95   C150  S    
H77   O99   S    
O8    Zn3   S    
C19   C28   A    
C210  O10   A    
C145  C154  S    
C78   C85   A    
C29   H2    S    
C55   O29   A    
C164  C172  A    
C28   H80   S    
C69   H12   S    
C88   C141  S    
C163  C171  A    
C3    C165  A    
H59   O62   S    
C89   C147  S    
C131  O3    S    
C40   C41   A    
C26   H3    S    
C141  H40   S    
C64   C78   A    
C186  C194  A    
C34   C43   A    
C24   C147  S    
C114  O65   D    
C25   C104  S    
C30   H7    S    
C107  O55   S    
C118  C165  S    
C170  C179  A    
C206  H18   S    
C125  O87   D    
C71   C72   A    
H70   O84   S    
C109  C180  S    
O5    Zn13  S    
C53   O27   A    
C60   C69   A    
O13   Zn11  S    
C14   C202  A    
C122  O84   S    
C207  O7    A    
C62   C71   A    
C148  C157  S    
C208  O8    A    
O13   Zn4   S    
C106  O52   D    
C31   H8    S    
H68   O80   S    
C46   C149  S    
C104  N8    T    
C205  O32   A    
O24   Zn7   S    
H55   O55   S    
C4    C9    A    
C15   C207  S    
C24   H21   S    
C25   C33   A    
C61   C70   A    
C7    C10   A    
H79   O3    S    
C161  C214  A    
C187  C196  A    
C116  C163  S    
C106  O53   S    
O42   Zn2   S    
C183  C192  A    
C32   H5    S    
C176  C185  A    
C164  C216  A    
C2    C145  S    
C166  C175  A    
C57   C89   S    
C56   H9    S    
C45   C51   S    
C54   O28   A    
C2    C139  S    
C11   C210  S    
H63   O71   S    
O34   Zn10  S    
C22   C41   A    
C9    C212  S    
C168  C177  A    
C109  O60   S    
C14   C214  A    
C93   C148  S    
O49   Zn8   S    
C100  N5    T    
C16   C216  A    
C151  O44   A    
C57   H25   S    
C46   C135  S    
C163  C215  A    
C146  C155  S    
C24   C142  S    
C132  C195  S    
C192  C201  A    
C18   C97   S    
C90   C154  T    
C59   H11   S    
O79   Zn9   S    
O41   Zn16  S    
C116  O71   S    
C20   C34   A    
O27   Zn9   S    
C79   C140  S    
C110  O61   D    
C68   C137  S    
H71   O86   S    
C198  C215  A    
O68   Zn1   S    
O36   Zn11  S    
C39   C42   A    
C144  C206  S    
C117  C164  S    
O32   Zn1   S    
C125  C189  S    
C67   H1    S    
C8    C213  S    
C24   C95   S    
C95   H35   S    
C82   C86   A    
C132  C158  T    
C193  C202  A    
C133  C159  T    
C55   C85   S    
O18   Zn4   S    
C7    C204  A    
C68   C152  S    
O10   Zn5   S    
C111  O64   S    
C122  C169  S    
C124  C157  T    
C70   C73   A    
O90   Zn14  S    
C147  C156  S    
C178  C187  A    
O30   Zn12  S    
C143  C152  S    
C52   O26   A    
C7    C169  A    
C37   C43   A    
C182  C191  A    
C113  C156  T    
C118  O74   D    
C207  O33   A    
C87   C145  S    
C87   C139  S    
C90   C151  S    
C130  C194  S    
C73   H56   S    
C88   H28   S    
O35   Zn8   S    
C48   O17   A    
C21   C30   A    
O25   Zn11  S    
C129  O97   S    
C53   C83   S    
C23   C32   A    
C142  C150  S    
C172  H47   S    
O45   Zn5   S    
O12   Zn7   S    
C105  O50   D    
C211  O11   A    
C188  C197  A    
H73   O91   S    
C65   C69   A    
C139  H41   S    
H64   O73   S    
C13   C143  S    
H58   O60   S    
C126  O91   S    
C92   C206  S    
C123  O86   S    
C10   C211  S    
C209  O36   A    
C63   C72   A    
C151  O79   A    
C62   H15   S    
C184  O48   A    
O24   Zn14  S    
C48   O15   A    
C12   C215  A    
C138  H38   S    
C120  C167  S    
C189  C198  A    
O4    Zn12  S    
C40   C47   A    
C44   C48   S    
C152  C160  S    
H74   O93   S    
O17   Zn3   S    
C134  C173  S    
C131  C196  S    
C175  H49   S    
C141  C149  S    
C38   C44   A    
C17   C26   A    
C110  C179  S    
C18   C37   A    
C19   C36   A    
C108  O58   S    
C127  O92   D    
C195  O49   A    
C56   C65   A    
C107  C187  S    
C68   C91   S    
C105  C185  S    
C144  C153  S    
C99   N4    T    
C195  O5    A    
C130  O99   S    
H60   O64   S    
C162  O90   A    
C68   H26   S    
C23   C40   A    
O26   Zn1   S    
O37   Zn12  S    
C46   H24   S    
C140  O43   A    
C136  C145  S    
C162  O45   A    
C17   C38   A    
C35   C148  S    
C103  N7    T    
C8    C197  A    
C35   H22   S    
C13   C146  S    
C209  O9    A    
C112  C113  S    
C19   C98   S    
C116  O70   D    
C46   C88   S    
C20   C29   A    
O15   Zn16  S    
O33   Zn9   S    
C22   C31   A    
C112  O57   A    
C108  O56   D    
C5    C202  A    
H72   O88   S    
C21   C100  S    
C43   C49   S    
H54   O53   S    
C56   C77   A    
C71   H78   S    
C70   H67   S    
C171  H46   S    
C126  O89   D    
C93   H32   S    
C2    H19   S    
C87   H27   S    
C138  C147  S    
C57   C150  S    
C129  O96   D    
C12   C201  A    
C135  H37   S    
H65   O75   S    
C105  O51   S    
C161  C170  A    
C135  C144  S    
C120  O78   D    
C171  C180  A    
C212  O12   A    
C94   H33   S    
C59   C75   A    
C169  C178  A    
C3    C15   A    
C9    C198  A    
O13   Zn2   S    
O23   Zn10  S    
O35   Zn15  S    
C95   C138  S    
O24   Zn5   S    
C30   C33   A    
C34   C38   A    
C175  C183  A    
C50   O21   A    
C2    C93   S    
C18   C27   A    
C185  C193  A    
C80   C81   A    
C35   C136  S    
C129  C193  S    
C212  O39   A    
C22   C102  S    
C64   H17   S    
C49   O16   A    
H57   O58   S    
C25   C39   A    
O57   Zn11  S    
C194  C203  A    
C109  O59   D    
C60   C74   A    
O14   Zn8   S    
C57   C138  S    
C42   C47   A    
C5    C167  A    
C81   C85   A    
C49   O18   A    
C174  H48   S    
H76   O97   S    
C142  H43   S    
C26   C29   A    
C117  O72   D    
C27   C28   A    
C65   H23   S    
C170  H44   S    
O6    Zn16  S    
C88   C144  S    
C91   C146  S    
C111  O63   D    
C63   H16   S    
