data_mof_unit_23915.cif
_audit_creation_date              2012-12-11T14:01:42-0500
_audit_creation_method            fapswitch 2.2
_symmetry_space_group_name_H-M    P1
_symmetry_Int_Tables_number       1
_space_group_crystal_system       triclinic
_cell_length_a                    19.095641
_cell_length_b                    11.072482
_cell_length_c                    18.853029
_cell_angle_alpha                 90.000011
_cell_angle_beta                  89.738753
_cell_angle_gamma                 90.0
_cell_volume                      3986.17026578

loop_
_atom_site_label
_atom_site_type_symbol
_atom_type_description
_atom_site_fract_x
_atom_site_fract_y
_atom_site_fract_z
_atom_type_partial_charge
Br1   Br    Br    0.084179 0.613495 0.446134 -0.469525
Br2   Br    Br    0.543293 0.580857 0.576965 -0.418125
Br3   Br    Br    0.956706 0.080857 0.423035 -0.418125
Br4   Br    Br    0.043293 0.080857 0.576965 -0.418125
Br5   Br    Br    0.915821 0.613495 0.553866 -0.469525
Br6   Br    Br    0.584179 0.113494 0.446134 -0.469525
Br7   Br    Br    0.415821 0.113495 0.553866 -0.469525
Br8   Br    Br    0.964790 0.812329 0.080177 -0.533549
Br9   Br    Br    0.035210 0.812329 0.919823 -0.533549
Br10  Br    Br    0.464789 0.312329 0.080178 -0.533549
Br11  Br    Br    0.535210 0.312329 0.919823 -0.533550
Br12  Br    Br    0.456706 0.580857 0.423035 -0.418125
C1    C     C_R   0.272527 0.043600 0.852630 0.545285
C2    C     C_R   0.013092 0.660515 0.965037 0.159090
C3    C     C_R   0.486908 0.160514 0.034963 0.159090
C4    C     C_R   0.513092 0.160515 0.965037 0.159090
C5    C     C_2   0.253875 0.592514 0.923578 -0.104025
C6    C     C_2   0.746125 0.592514 0.076422 -0.104025
C7    C     C_2   0.753875 0.092514 0.923578 -0.104025
C8    C     C_2   0.246125 0.092514 0.076422 -0.104025
C9    C     C_2   0.249384 0.600761 0.081338 0.118835
C10   C     C_2   0.750616 0.600761 0.918662 0.118835
C11   C     C_2   0.749383 0.100761 0.081338 0.118835
C12   C     C_R   0.727473 0.043600 0.147369 0.545284
C13   C     C_2   0.250616 0.100761 0.918662 0.118835
C14   C     C_2   0.301176 0.553714 0.042013 -0.120519
C15   C     C_2   0.698824 0.553714 0.957987 -0.120519
C16   C     C_2   0.801176 0.053715 0.042013 -0.120519
C17   C     C_2   0.198824 0.053715 0.957987 -0.120519
C18   C     C_2   0.309478 0.586575 0.967200 -0.139322
C19   C     C_2   0.690522 0.586575 0.032800 -0.139322
C20   C     C_2   0.809478 0.086575 0.967200 -0.139322
C21   C     C_2   0.190522 0.086575 0.032800 -0.139321
C22   C     C_2   0.505040 0.831719 0.578829 -0.115127
C23   C     C_R   0.772527 0.543600 0.852631 0.545284
C24   C     C_2   0.494959 0.831719 0.421171 -0.115127
C25   C     C_2   0.005040 0.331719 0.578829 -0.115127
C26   C     C_2   0.994959 0.331719 0.421171 -0.115127
C27   C     C_2   0.490144 0.732125 0.462101 0.157323
C28   C     C_2   0.509856 0.732125 0.537899 0.157322
C29   C     C_2   0.990144 0.232125 0.462101 0.157323
C30   C     C_2   0.009856 0.232125 0.537899 0.157322
C31   C     C_2   0.246137 0.563089 0.585181 0.097276
C32   C     C_2   0.753863 0.563089 0.414819 0.097276
C33   C     C_2   0.746137 0.063089 0.585181 0.097276
C34   C     C_R   0.227473 0.543600 0.147369 0.545284
C35   C     C_2   0.253863 0.063089 0.414819 0.097276
C36   C     C_2   0.235110 0.569325 0.427984 -0.092812
C37   C     C_2   0.764890 0.569325 0.572016 -0.092812
C38   C     C_2   0.735110 0.069325 0.427984 -0.092812
C39   C     C_2   0.264890 0.069325 0.572016 -0.092812
C40   C     C_R   0.469598 0.821550 0.854082 0.547211
C41   C     C_R   0.530401 0.821550 0.145918 0.547212
C42   C     C_R   0.969598 0.321550 0.854082 0.547211
C43   C     C_R   0.030402 0.321550 0.145918 0.547211
C44   C     C_2   0.179695 0.579115 0.473343 0.102885
C45   C     C_R   0.476954 0.050740 0.071736 0.145555
C46   C     C_2   0.820305 0.579115 0.526657 0.102886
C47   C     C_2   0.679695 0.079115 0.473343 0.102885
C48   C     C_2   0.320305 0.079115 0.526657 0.102886
C49   C     C_2   0.187926 0.590384 0.549469 -0.106148
C50   C     C_2   0.812074 0.590384 0.450531 -0.106148
C51   C     C_2   0.687926 0.090384 0.549469 -0.106148
C52   C     C_2   0.312074 0.090384 0.450531 -0.106148
C53   C     C_R   0.262412 0.641216 0.852867 0.527946
C54   C     C_R   0.737587 0.641216 0.147133 0.527946
C55   C     C_R   0.762413 0.141216 0.852867 0.527946
C56   C     C_R   0.523046 0.050741 0.928264 0.145555
C57   C     C_R   0.237587 0.141216 0.147133 0.527947
C58   C     C_R   0.275698 0.039814 0.645499 0.555537
C59   C     C_R   0.724301 0.039814 0.354501 0.555537
C60   C     C_R   0.775698 0.539814 0.645499 0.555538
C61   C     C_R   0.224301 0.539814 0.354501 0.555537
C62   C     C_R   0.471965 0.823314 0.648658 0.565462
C63   C     C_R   0.528034 0.823314 0.351342 0.565462
C64   C     C_R   0.971965 0.323313 0.648658 0.565462
C65   C     C_R   0.028034 0.323313 0.351342 0.565462
C66   C     C_R   0.260119 0.633914 0.648002 0.545795
C67   C     C_R   0.976954 0.550741 0.071736 0.145555
C68   C     C_R   0.739881 0.633914 0.351997 0.545795
C69   C     C_R   0.760119 0.133914 0.648002 0.545795
C70   C     C_R   0.239881 0.133914 0.351997 0.545795
C71   C     C_R   0.501179 0.828638 0.074097 0.013585
C72   C     C_R   0.498821 0.828639 0.925903 0.013585
C73   C     C_R   0.001179 0.328639 0.074097 0.013585
C74   C     C_R   0.998821 0.328639 0.925903 0.013585
C75   C     C_R   0.494407 0.940190 0.037247 -0.026941
C76   C     C_R   0.505592 0.940190 0.962753 -0.026941
C77   C     C_R   0.994407 0.440190 0.037247 -0.026941
C78   C     C_R   0.023046 0.550740 0.928264 0.145555
C79   C     C_R   0.005592 0.440190 0.962753 -0.026941
C80   C     C_R   0.499573 0.720019 0.963751 -0.166547
C81   C     C_R   0.500427 0.720019 0.036249 -0.166547
C82   C     C_R   0.999573 0.220019 0.963751 -0.166547
C83   C     C_R   0.000427 0.220019 0.036249 -0.166547
C84   C     C_3   0.277397 0.360617 0.548003 -0.276984
C85   C     C_3   0.722603 0.360617 0.451997 -0.276984
C86   C     C_3   0.777397 0.860617 0.548003 -0.276984
C87   C     C_3   0.222603 0.860617 0.451997 -0.276984
C88   C     C_3   0.393164 0.969132 0.162363 -0.283561
C89   C     C_R   0.986908 0.660515 0.034963 0.159090
C90   C     C_3   0.606836 0.969132 0.837637 -0.283561
C91   C     C_3   0.893164 0.469132 0.162363 -0.283561
C92   C     C_3   0.106835 0.469132 0.837637 -0.283561
C93   C     C_3   0.211561 0.807463 0.089875 -0.265607
C94   C     C_3   0.788441 0.807462 0.910125 -0.265604
C95   C     C_3   0.711559 0.307462 0.089876 -0.265603
C96   C     C_3   0.288441 0.307462 0.910124 -0.265603
Cr1   Cr    Cr6+3 0.230530 0.836340 0.748870 1.079405
Cr2   Cr    Cr6+3 0.614360 0.677860 0.250770 1.071314
Cr3   Cr    Cr6+3 0.885640 0.177860 0.749230 1.071314
Cr4   Cr    Cr6+3 0.114360 0.177860 0.250770 1.071314
Cr5   Cr    Cr6+3 0.769470 0.836340 0.251130 1.079406
Cr6   Cr    Cr6+3 0.730530 0.336340 0.748870 1.079405
Cr7   Cr    Cr6+3 0.269470 0.336340 0.251130 1.079405
Cr8   Cr    Cr6+3 0.387420 0.989430 0.750820 1.080866
Cr9   Cr    Cr6+3 0.612580 0.989430 0.249180 1.080866
Cr10  Cr    Cr6+3 0.887420 0.489430 0.750820 1.080866
Cr11  Cr    Cr6+3 0.112580 0.489430 0.249180 1.080867
Cr12  Cr    Cr6+3 0.385640 0.677860 0.749230 1.071314
H1    H     H_    0.496838 0.633076 0.937518 0.183418
H2    H     H_    0.711150 0.570191 0.554543 0.162652
H3    H     H_    0.788850 0.070192 0.445457 0.162652
H4    H     H_    0.211150 0.070191 0.554543 0.162652
H5    H     H_    0.336162 0.486007 0.063701 0.178221
H6    H     H_    0.663837 0.486008 0.936299 0.178221
H7    H     H_    0.836163 0.986008 0.063701 0.178221
H8    H     H_    0.163837 0.986008 0.936299 0.178222
H9    H     H_    0.362190 0.602554 0.947572 0.162499
H10   H     H_    0.637810 0.602554 0.052428 0.162498
H11   H     H_    0.862190 0.102555 0.947572 0.162499
H12   H     H_    0.503162 0.633076 0.062481 0.183419
H13   H     H_    0.137810 0.102555 0.052428 0.162499
H14   H     H_    0.201313 0.572967 0.942328 0.135633
H15   H     H_    0.798687 0.572966 0.057672 0.135633
H16   H     H_    0.701313 0.072966 0.942328 0.135632
H17   H     H_    0.298687 0.072966 0.057672 0.135633
H18   H     H_    0.496405 0.920145 0.444517 0.143310
H19   H     H_    0.503595 0.920145 0.555482 0.143310
H20   H     H_    0.996405 0.420145 0.444517 0.143310
H21   H     H_    0.003595 0.420145 0.555482 0.143310
H22   H     H_    0.348102 0.492191 0.578862 0.316036
H23   H     H_    0.996838 0.133076 0.937518 0.183418
H24   H     H_    0.317406 0.315645 0.514739 0.205651
H25   H     H_    0.226461 0.354033 0.520075 0.157156
H26   H     H_    0.273410 0.315311 0.600403 0.161909
H27   H     H_    0.651898 0.492191 0.421138 0.316036
H28   H     H_    0.682593 0.315644 0.485260 0.205651
H29   H     H_    0.773538 0.354033 0.479926 0.157156
H30   H     H_    0.726591 0.315312 0.399596 0.161908
H31   H     H_    0.848102 0.992191 0.578862 0.316036
H32   H     H_    0.817406 0.815645 0.514739 0.205651
H33   H     H_    0.726461 0.854033 0.520075 0.157156
H34   H     H_    0.003162 0.133076 0.062482 0.183419
H35   H     H_    0.773410 0.815311 0.600403 0.161909
H36   H     H_    0.151898 0.992191 0.421138 0.316036
H37   H     H_    0.182593 0.815645 0.485260 0.205651
H38   H     H_    0.273538 0.854033 0.479926 0.157156
H39   H     H_    0.226590 0.815312 0.399597 0.161909
H40   H     H_    0.453478 0.128666 0.173233 0.298395
H41   H     H_    0.412620 0.905133 0.202956 0.152932
H42   H     H_    0.373133 0.918132 0.116070 0.122544
H43   H     H_    0.349524 0.018532 0.187455 0.152923
H44   H     H_    0.546522 0.128666 0.826768 0.298394
H45   H     H_    0.145984 0.639637 0.575830 0.185446
H46   H     H_    0.587380 0.905134 0.797043 0.152932
H47   H     H_    0.626867 0.918133 0.883929 0.122544
H48   H     H_    0.650476 0.018533 0.812545 0.152923
H49   H     H_    0.953478 0.628666 0.173233 0.298395
H50   H     H_    0.912620 0.405133 0.202957 0.152932
H51   H     H_    0.873133 0.418132 0.116071 0.122544
H52   H     H_    0.849524 0.518532 0.187455 0.152923
H53   H     H_    0.046521 0.628666 0.826767 0.298394
H54   H     H_    0.087380 0.405133 0.797043 0.152932
H55   H     H_    0.126867 0.418133 0.883929 0.122544
H56   H     H_    0.854016 0.639637 0.424170 0.185446
H57   H     H_    0.150476 0.518532 0.812545 0.152923
H58   H     H_    0.154190 0.666983 0.047959 0.278183
H59   H     H_    0.168780 0.867340 0.071957 0.182296
H60   H     H_    0.263051 0.848454 0.077402 0.138468
H61   H     H_    0.206043 0.796378 0.148200 0.158897
H62   H     H_    0.845811 0.666980 0.952042 0.278181
H63   H     H_    0.831221 0.867339 0.928045 0.182297
H64   H     H_    0.736950 0.848454 0.922596 0.138466
H65   H     H_    0.793961 0.796378 0.851800 0.158899
H66   H     H_    0.654189 0.166980 0.047958 0.278181
H67   H     H_    0.645984 0.139637 0.575830 0.185446
H68   H     H_    0.668779 0.367339 0.071955 0.182298
H69   H     H_    0.763050 0.348454 0.077405 0.138465
H70   H     H_    0.706037 0.296377 0.148201 0.158899
H71   H     H_    0.345811 0.166980 0.952042 0.278181
H72   H     H_    0.331221 0.367339 0.928045 0.182297
H73   H     H_    0.236950 0.348454 0.922595 0.138466
H74   H     H_    0.293962 0.296378 0.851799 0.158899
H75   H     H_    0.354016 0.139637 0.424170 0.185446
H76   H     H_    0.288850 0.570192 0.445457 0.162652
N1    N     N_2   0.298674 0.484181 0.557596 -0.526427
N2    N     N_2   0.794322 0.693686 0.946554 -0.502031
N3    N     N_2   0.705678 0.193686 0.053446 -0.502031
N4    N     N_2   0.294321 0.193686 0.946554 -0.502031
N5    N     N_2   0.701326 0.484181 0.442404 -0.526427
N6    N     N_2   0.798674 0.984181 0.557596 -0.526427
N7    N     N_2   0.201326 0.984181 0.442404 -0.526426
N8    N     N_2   0.448493 0.052497 0.142357 -0.467032
N9    N     N_2   0.551507 0.052498 0.857643 -0.467032
N10   N     N_2   0.948493 0.552498 0.142357 -0.467033
N11   N     N_2   0.051507 0.552498 0.857643 -0.467032
N12   N     N_2   0.205679 0.693687 0.053446 -0.502032
O1    O     O_R   0.215090 0.709860 0.828130 -0.488661
O2    O     O_R   0.543740 0.718170 0.330000 -0.455368
O3    O     O_R   0.956260 0.218170 0.670000 -0.455368
O4    O     O_R   0.043740 0.218170 0.330000 -0.455368
O5    O     O_R   0.320940 0.626760 0.674370 -0.493813
O6    O     O_R   0.679060 0.626760 0.325630 -0.493813
O7    O     O_R   0.820940 0.126760 0.674370 -0.493813
O8    O     O_R   0.179060 0.126760 0.325630 -0.493813
O9    O     O_3   0.334530 0.834540 0.749640 -0.279932
O10   O     O_3   0.665470 0.834540 0.250360 -0.279932
O11   O     O_3   0.834530 0.334540 0.749640 -0.279932
O12   O     O_R   0.784910 0.709860 0.171870 -0.488661
O13   O     O_3   0.165470 0.334540 0.250360 -0.279932
O14   O     O_R   0.236990 0.958390 0.823710 -0.497484
O15   O     O_R   0.763010 0.958390 0.176290 -0.497484
O16   O     O_R   0.736990 0.458390 0.823710 -0.497484
O17   O     O_R   0.263010 0.458390 0.176290 -0.497484
O18   O     O_R   0.332380 0.074750 0.830850 -0.512838
O19   O     O_R   0.667620 0.074750 0.169150 -0.512838
O20   O     O_R   0.832380 0.574750 0.830850 -0.512838
O21   O     O_R   0.167620 0.574750 0.169150 -0.512836
O22   O     O_R   0.445800 0.917770 0.825070 -0.475371
O23   O     O_R   0.715090 0.209860 0.828130 -0.488661
O24   O     O_R   0.554200 0.917770 0.174930 -0.475371
O25   O     O_R   0.945800 0.417770 0.825070 -0.475371
O26   O     O_R   0.054200 0.417770 0.174930 -0.475371
O27   O     O_R   0.456410 0.716580 0.829970 -0.523096
O28   O     O_R   0.543590 0.716580 0.170030 -0.523097
O29   O     O_R   0.956410 0.216580 0.829970 -0.523096
O30   O     O_R   0.043590 0.216580 0.170030 -0.523097
O31   O     O_R   0.321080 0.625290 0.822650 -0.508934
O32   O     O_R   0.678920 0.625290 0.177350 -0.508935
O33   O     O_R   0.821080 0.125290 0.822650 -0.508934
O34   O     O_R   0.284910 0.209860 0.171870 -0.488661
O35   O     O_R   0.178920 0.125290 0.177350 -0.508934
O36   O     O_R   0.214930 0.711450 0.668160 -0.525633
O37   O     O_R   0.785070 0.711450 0.331840 -0.525633
O38   O     O_R   0.714930 0.211450 0.668160 -0.525633
O39   O     O_R   0.285070 0.211450 0.331840 -0.525633
O40   O     O_R   0.236850 0.959870 0.675420 -0.481847
O41   O     O_R   0.763150 0.959870 0.324580 -0.481847
O42   O     O_R   0.736850 0.459870 0.675420 -0.481847
O43   O     O_R   0.263150 0.459870 0.324580 -0.481847
O44   O     O_R   0.332230 0.076350 0.670880 -0.461928
O45   O     O_R   0.445660 0.919250 0.676780 -0.470755
O46   O     O_R   0.667770 0.076350 0.329120 -0.461927
O47   O     O_R   0.832230 0.576350 0.670880 -0.461928
O48   O     O_R   0.167770 0.576350 0.329120 -0.461927
O49   O     O_R   0.554340 0.919250 0.323220 -0.470754
O50   O     O_R   0.945660 0.419250 0.676780 -0.470755
O51   O     O_R   0.054340 0.419250 0.323220 -0.470754
O52   O     O_R   0.456260 0.718170 0.670000 -0.455368

loop_
_geom_bond_atom_site_label_1
_geom_bond_atom_site_label_2
_ccdc_geom_bond_type
C46   C50   S    
C71   C75   A    
C75   C76   A    
C63   O2    A    
C96   N4    S    
C90   H47   S    
C39   H4    S    
H27   N5    S    
C87   H39   S    
Cr8   O9    S    
C88   N8    S    
Cr4   O13   S    
Br7   C48   S    
Cr11  O51   S    
H62   N2    S    
C91   N10   S    
Cr6   O11   S    
C9    C14   D    
Cr11  O48   S    
H31   N6    S    
C55   O33   A    
C86   H32   S    
C31   C66   S    
C84   H25   S    
Cr3   O29   S    
C25   H21   S    
C70   O39   A    
C43   O26   A    
C22   C28   D    
C38   C47   D    
Cr4   O4    S    
C9    N12   S    
Cr2   O6    S    
Br1   C44   S    
Cr3   O7    S    
Cr7   O17   S    
C19   H10   S    
Br10  C3    S    
Cr12  O27   S    
C15   H6    S    
Cr2   O32   S    
C57   O34   A    
C35   C70   S    
Cr6   O23   S    
Cr7   O43   S    
C3    C4    A    
C71   C81   A    
C52   H75   S    
C17   C21   S    
C22   H19   S    
Cr11  O13   S    
Cr5   O41   S    
C45   N8    S    
C29   C30   S    
C92   N11   S    
C25   C30   D    
C40   C72   S    
Cr5   O15   S    
C11   N3    S    
C54   O12   A    
C74   C82   A    
C65   O4    A    
H66   N3    S    
C67   C89   A    
Cr4   O35   S    
C2    C78   A    
C63   O49   A    
Cr1   O40   S    
C33   N6    S    
C37   C60   S    
H58   N12   S    
C91   H50   S    
C85   H30   S    
C7    C55   S    
C88   H41   S    
C4    C56   A    
C39   C58   S    
C61   O43   A    
C77   C79   A    
C12   O19   A    
Br8   C89   S    
C1    O14   A    
Cr5   O12   S    
C53   O1    A    
C16   H7    S    
C94   N2    S    
Cr8   O22   S    
Cr9   O19   S    
C86   H33   S    
C55   O23   A    
C90   H46   S    
Cr9   O10   S    
C36   H76   S    
C91   H51   S    
C5    C18   D    
C3    C45   A    
C1    C13   S    
Cr12  O31   S    
Cr2   O2    S    
Cr3   O11   S    
C93   H59   S    
Cr1   O1    S    
C7    C20   D    
C69   O38   A    
C66   O5    A    
C36   C61   S    
Cr2   O28   S    
C92   H55   S    
Cr7   O39   S    
Cr8   O45   S    
C13   C17   D    
C84   N1    S    
Cr6   O16   S    
C47   C51   S    
C15   C19   S    
C23   O20   A    
C62   O45   A    
C26   H20   S    
C16   C20   S    
H71   N4    S    
C42   O29   A    
C26   C29   D    
H53   N11   S    
C85   N5    S    
C27   C28   S    
C42   C74   S    
Br9   C2    S    
C73   C77   A    
H44   N9    S    
Cr12  O9    S    
C2    C89   A    
C68   O6    A    
Cr8   O44   S    
Cr1   O36   S    
C32   C50   D    
Cr12  O5    S    
Cr12  O52   S    
C64   O50   A    
C95   H68   S    
C33   C51   D    
C66   O36   A    
C37   C46   D    
C45   C75   A    
C6    C19   D    
Cr8   O18   S    
C14   H5    S    
C8    H17   S    
C43   C73   S    
C38   C59   S    
C59   O46   A    
C10   C23   S    
C24   C63   S    
Br2   C28   S    
C84   H24   S    
Cr7   O34   S    
Cr9   O49   S    
Cr9   O46   S    
Cr11  O26   S    
C92   H57   S    
C32   C68   S    
C11   C12   S    
C50   H56   S    
C95   H69   S    
C69   O7    A    
C35   N7    S    
C6    H15   S    
C31   N1    S    
C11   C16   D    
C41   O28   A    
C94   H64   S    
C91   H52   S    
C5    H14   S    
C22   C62   S    
C70   O8    A    
C8    C21   D    
Br5   C46   S    
C64   O3    A    
C25   C64   S    
C14   C18   S    
C61   O48   A    
C51   H67   S    
C10   C15   D    
C87   H37   S    
C32   N5    S    
C56   C76   A    
C85   H28   S    
C8    C57   S    
C17   H8    S    
C74   C79   A    
C82   H23   S    
C60   O47   A    
C96   H74   S    
C81   H12   S    
C58   O44   A    
Cr5   O10   S    
H49   N10   S    
C31   C49   D    
C93   N12   S    
C9    C34   S    
C12   O15   A    
C36   C44   D    
C93   H61   S    
C86   H35   S    
Br3   C29   S    
C90   H48   S    
C1    O18   A    
C54   O32   A    
C68   O37   A    
C5    C53   S    
Br6   C47   S    
C10   N2    S    
C24   C27   D    
C33   C69   S    
C38   H3    S    
C72   C76   A    
C94   H65   S    
C57   O35   A    
H40   N8    S    
C92   H54   S    
C35   C52   D    
Cr10  O50   S    
C26   C65   S    
C62   O52   A    
C6    C54   S    
C67   N10   S    
C84   H26   S    
Cr9   O24   S    
Cr4   O30   S    
C93   H60   S    
C48   C52   S    
C41   C71   S    
C83   H34   S    
Cr10  O20   S    
Br12  C27   S    
C7    H16   S    
C13   N4    S    
C80   H1    S    
C95   N3    S    
C73   C83   A    
Cr10  O25   S    
C40   O22   A    
C78   C79   A    
Cr6   O38   S    
Br4   C30   S    
C86   N6    S    
C37   H2    S    
C95   H70   S    
C80   C81   A    
H22   N1    S    
C34   O17   A    
C88   H43   S    
C49   H45   S    
Cr4   O8    S    
C43   O30   A    
C82   C83   A    
Cr2   O10   S    
C90   N9    S    
Cr3   O3    S    
C94   H63   S    
C67   C77   A    
Br11  C4    S    
Cr1   O9    S    
Cr10  O47   S    
Cr11  O21   S    
C41   O24   A    
C78   N11   S    
C18   H9    S    
C21   H13   S    
Cr7   O13   S    
Cr3   O33   S    
Cr5   O37   S    
C65   O51   A    
C87   H38   S    
C87   N7    S    
C56   N9    S    
C85   H29   S    
C44   C49   S    
C96   H72   S    
C88   H42   S    
C39   C48   D    
C72   C80   A    
C42   O25   A    
C60   O42   A    
C96   H73   S    
C23   O16   A    
H36   N7    S    
C24   H18   S    
C59   O41   A    
C20   H11   S    
Cr1   O14   S    
C40   O27   A    
C58   O40   A    
C34   O21   A    
Cr10  O11   S    
C53   O31   A    
Cr6   O42   S    
