data_mof_unit_53712.cif
_audit_creation_date              2012-12-11T15:08:56-0500
_audit_creation_method            fapswitch 2.2
_symmetry_space_group_name_H-M    P1
_symmetry_Int_Tables_number       1
_space_group_crystal_system       triclinic
_cell_length_a                    19.407681
_cell_length_b                    11.318787
_cell_length_c                    18.70309
_cell_angle_alpha                 90.030058
_cell_angle_beta                  90.237982
_cell_angle_gamma                 89.996104
_cell_volume                      4108.49808837

loop_
_atom_site_label
_atom_site_type_symbol
_atom_type_description
_atom_site_fract_x
_atom_site_fract_y
_atom_site_fract_z
_atom_type_partial_charge
C1    C     C_R   0.272477 0.042975 0.854190 0.529643
C2    C     C_R   0.727521 0.042943 0.145803 0.528545
C3    C     C_R   0.772477 0.542975 0.854190 0.529643
C4    C     C_R   0.227521 0.542943 0.145803 0.528545
C5    C     C_3   0.519727 0.723004 0.964531 -0.113414
C6    C     C_3   0.480235 0.723018 0.035415 -0.113633
C7    C     C_3   0.019727 0.223004 0.964531 -0.113413
C8    C     C_3   0.980234 0.223018 0.035415 -0.113633
C9    C     C_3   0.312654 0.526904 0.044646 -0.183598
C10   C     C_3   0.687346 0.526935 0.955308 -0.183657
C11   C     C_3   0.812654 0.026904 0.044646 -0.183598
C12   C     C_3   0.187345 0.026935 0.955308 -0.183657
C13   C     C_3   0.323934 0.554389 0.964423 0.036964
C14   C     C_3   0.676056 0.554383 0.035546 0.037002
C15   C     C_3   0.823934 0.054389 0.964423 0.036963
C16   C     C_3   0.176056 0.054383 0.035547 0.037002
C17   C     C_3   0.180699 0.519887 0.025580 -0.213608
C18   C     C_3   0.819306 0.519849 0.974371 -0.213682
C19   C     C_3   0.680699 0.019887 0.025580 -0.213608
C20   C     C_3   0.319306 0.019849 0.974371 -0.213682
C21   C     C_3   0.240631 0.704186 0.056152 -0.267975
C22   C     C_3   0.759394 0.704196 0.943942 -0.268112
C23   C     C_3   0.740630 0.204187 0.056152 -0.267975
C24   C     C_3   0.259394 0.204196 0.943942 -0.268112
C25   C     C_3   0.241439 0.572399 0.070097 0.033842
C26   C     C_3   0.758572 0.572419 0.929901 0.033552
C27   C     C_3   0.741439 0.072399 0.070098 0.033842
C28   C     C_3   0.258572 0.072419 0.929901 0.033552
C29   C     C_3   0.255830 0.607062 0.931946 0.051502
C30   C     C_3   0.744163 0.607009 0.068059 0.051876
C31   C     C_3   0.755830 0.107062 0.931946 0.051503
C32   C     C_3   0.244163 0.107009 0.068059 0.051876
C33   C     C_3   0.196344 0.520586 0.944854 -0.253230
C34   C     C_3   0.803645 0.520513 0.055092 -0.253363
C35   C     C_3   0.696344 0.020586 0.944854 -0.253230
C36   C     C_3   0.303645 0.020512 0.055092 -0.253363
C37   C     C_3   0.238051 0.722106 0.974334 -0.238592
C38   C     C_3   0.761949 0.722070 0.025768 -0.238507
C39   C     C_3   0.738051 0.222106 0.974334 -0.238592
C40   C     C_3   0.261949 0.222070 0.025768 -0.238507
C41   C     C_3   0.494050 0.700476 0.457977 -0.234855
C42   C     C_3   0.492596 0.700179 0.538016 -0.227478
C43   C     C_3   0.994050 0.200476 0.457977 -0.234855
C44   C     C_3   0.992596 0.200179 0.538016 -0.227478
C45   C     C_R   0.444171 0.817132 0.862334 0.537724
C46   C     C_R   0.555832 0.817085 0.137668 0.537503
C47   C     C_R   0.944171 0.317132 0.862333 0.537725
C48   C     C_R   0.055832 0.317085 0.137668 0.537503
C49   C     C_3   0.568156 0.882893 0.473278 -0.224603
C50   C     C_3   0.437103 0.909560 0.526501 -0.214029
C51   C     C_3   0.068156 0.382893 0.473278 -0.224603
C52   C     C_3   0.937103 0.409560 0.526501 -0.214029
C53   C     C_3   0.445223 0.901332 0.444462 -0.256429
C54   C     C_3   0.558742 0.881744 0.555425 -0.262782
C55   C     C_3   0.945223 0.401332 0.444462 -0.256429
C56   C     C_3   0.058742 0.381744 0.555425 -0.262782
C57   C     C_3   0.508488 0.827318 0.430015 0.058904
C58   C     C_3   0.488361 0.828261 0.568569 0.064065
C59   C     C_3   0.008488 0.327318 0.430015 0.058904
C60   C     C_3   0.988361 0.328261 0.568569 0.064066
C61   C     C_3   0.184043 0.662041 0.456704 -0.234541
C62   C     C_3   0.822844 0.641600 0.539109 -0.227862
C63   C     C_3   0.684043 0.162041 0.456704 -0.234541
C64   C     C_3   0.322844 0.141600 0.539109 -0.227862
C65   C     C_3   0.185733 0.665971 0.536751 -0.226890
C66   C     C_3   0.820993 0.645064 0.459054 -0.235162
C67   C     C_3   0.685733 0.165971 0.536751 -0.226890
C68   C     C_3   0.320993 0.145064 0.459054 -0.235162
C69   C     C_3   0.240196 0.461130 0.472451 -0.223269
C70   C     C_3   0.744512 0.454505 0.526989 -0.212596
C71   C     C_3   0.740196 0.961130 0.472451 -0.223269
C72   C     C_3   0.244512 0.954505 0.526989 -0.212596
C73   C     C_3   0.309786 0.635156 0.442605 -0.257818
C74   C     C_3   0.698132 0.648529 0.557405 -0.263856
C75   C     C_3   0.809786 0.135157 0.442605 -0.257818
C76   C     C_3   0.198132 0.148529 0.557405 -0.263856
C77   C     C_3   0.240907 0.577151 0.428957 0.062429
C78   C     C_3   0.760495 0.570725 0.569412 0.067861
C79   C     C_3   0.740907 0.077151 0.428957 0.062429
C80   C     C_3   0.260495 0.070725 0.569412 0.067861
C81   C     C_3   0.252881 0.608366 0.566970 0.066539
C82   C     C_3   0.749276 0.603625 0.431536 0.061432
C83   C     C_3   0.752881 0.108366 0.566970 0.066539
C84   C     C_3   0.249276 0.103625 0.431536 0.061431
C85   C     C_3   0.244824 0.476846 0.554344 -0.264754
C86   C     C_3   0.743449 0.472266 0.445229 -0.257010
C87   C     C_3   0.744824 0.976846 0.554344 -0.264754
C88   C     C_3   0.243449 0.972266 0.445229 -0.257011
C89   C     C_R   0.262134 0.641041 0.854810 0.524702
C90   C     C_R   0.737873 0.640983 0.145203 0.523899
C91   C     C_R   0.762134 0.141041 0.854810 0.524703
C92   C     C_R   0.237873 0.140983 0.145203 0.523898
C93   C     C_3   0.318988 0.644105 0.524484 -0.214581
C94   C     C_3   0.692276 0.664636 0.475630 -0.226543
C95   C     C_3   0.818988 0.144105 0.524484 -0.214581
C96   C     C_3   0.192276 0.164636 0.475630 -0.226543
C97   C     C_R   0.273560 0.042219 0.645323 0.539492
C98   C     C_R   0.727591 0.045704 0.353244 0.535647
C99   C     C_R   0.773560 0.542219 0.645323 0.539492
C100  C     C_R   0.227591 0.545704 0.353244 0.535647
C101  C     C_R   0.468100 0.822860 0.645045 0.543443
C102  C     C_R   0.529984 0.822825 0.353748 0.540850
C103  C     C_R   0.968100 0.322860 0.645045 0.543443
C104  C     C_R   0.029984 0.322825 0.353748 0.540850
C105  C     C_R   0.261114 0.641236 0.643189 0.540556
C106  C     C_R   0.739846 0.638461 0.355641 0.538000
C107  C     C_R   0.761114 0.141236 0.643189 0.540556
C108  C     C_R   0.239846 0.138461 0.355641 0.538000
C109  C     C_3   0.479838 0.916186 0.035762 -0.107773
C110  C     C_3   0.520194 0.916172 0.964317 -0.107722
C111  C     C_3   0.979839 0.416186 0.035762 -0.107773
C112  C     C_3   0.020194 0.416172 0.964316 -0.107721
C113  C     C_3   0.431517 0.818679 0.006650 -0.160129
C114  C     C_3   0.568478 0.818593 0.993361 -0.159925
C115  C     C_3   0.931517 0.318680 0.006650 -0.160129
C116  C     C_3   0.068478 0.318593 0.993361 -0.159924
C117  C     C_3   0.471895 0.820121 0.936039 0.057301
C118  C     C_3   0.528102 0.820055 0.063971 0.057459
C119  C     C_3   0.971894 0.320121 0.936039 0.057301
C120  C     C_3   0.028102 0.320055 0.063971 0.057458
Cr1   Cr    Cr6+3 0.229620 0.836040 0.749110 0.989254
Cr2   Cr    Cr6+3 0.770380 0.836040 0.250890 0.988394
Cr3   Cr    Cr6+3 0.729620 0.336040 0.749110 0.989254
Cr4   Cr    Cr6+3 0.270380 0.336040 0.250890 0.988394
Cr5   Cr    Cr6+3 0.387630 0.990680 0.750730 0.993864
Cr6   Cr    Cr6+3 0.612370 0.990680 0.249270 0.992978
Cr7   Cr    Cr6+3 0.887630 0.490680 0.750730 0.993864
Cr8   Cr    Cr6+3 0.112370 0.490680 0.249270 0.992978
Cr9   Cr    Cr6+3 0.386020 0.676590 0.749210 0.989790
Cr10  Cr    Cr6+3 0.613980 0.676590 0.250790 0.988928
Cr11  Cr    Cr6+3 0.886020 0.176590 0.749210 0.989789
Cr12  Cr    Cr6+3 0.113980 0.176590 0.250790 0.988928
H1    H     H_    0.376825 0.806008 0.018569 0.084580
H2    H     H_    0.623165 0.805830 0.981442 0.084527
H3    H     H_    0.876825 0.306009 0.018570 0.084580
H4    H     H_    0.123165 0.305829 0.981442 0.084527
H5    H     H_    0.194693 0.744041 0.081104 0.168568
H6    H     H_    0.805349 0.744029 0.919042 0.168733
H7    H     H_    0.694693 0.244041 0.081104 0.168568
H8    H     H_    0.305349 0.244029 0.919043 0.168734
H9    H     H_    0.286846 0.744121 0.080996 0.100012
H10   H     H_    0.713196 0.744167 0.919111 0.100331
H11   H     H_    0.786846 0.244122 0.080996 0.100012
H12   H     H_    0.213196 0.244167 0.919111 0.100331
H13   H     H_    0.272529 0.792401 0.958439 0.106826
H14   H     H_    0.727466 0.792365 0.041724 0.106943
H15   H     H_    0.772529 0.292401 0.958439 0.106826
H16   H     H_    0.227466 0.292365 0.041724 0.106943
H17   H     H_    0.184504 0.747935 0.960158 0.150128
H18   H     H_    0.815496 0.747863 0.039977 0.150066
H19   H     H_    0.684504 0.247935 0.960158 0.150128
H20   H     H_    0.315496 0.247862 0.039977 0.150066
H21   H     H_    0.633419 0.074088 0.033950 0.138110
H22   H     H_    0.366589 0.074041 0.966056 0.138070
H23   H     H_    0.133419 0.574088 0.033950 0.138110
H24   H     H_    0.866589 0.574041 0.966056 0.138070
H25   H     H_    0.149723 0.548261 0.914533 0.119579
H26   H     H_    0.850264 0.548138 0.085447 0.119356
H27   H     H_    0.649723 0.048260 0.914533 0.119579
H28   H     H_    0.350264 0.048138 0.085447 0.119356
H29   H     H_    0.532163 0.633129 0.441653 0.136057
H30   H     H_    0.451974 0.641640 0.555803 0.137308
H31   H     H_    0.032163 0.133129 0.441653 0.136057
H32   H     H_    0.951974 0.141640 0.555803 0.137308
H33   H     H_    0.444839 0.669438 0.435846 0.117506
H34   H     H_    0.539794 0.656148 0.558624 0.112994
H35   H     H_    0.944839 0.169438 0.435846 0.117506
H36   H     H_    0.039794 0.156148 0.558624 0.112994
H37   H     H_    0.608939 0.825034 0.460371 0.112019
H38   H     H_    0.383916 0.898375 0.543252 0.112238
H39   H     H_    0.108939 0.325034 0.460371 0.112019
H40   H     H_    0.883916 0.398375 0.543252 0.112238
H41   H     H_    0.599360 0.828887 0.582196 0.106081
H42   H     H_    0.399044 0.861750 0.419134 0.103012
H43   H     H_    0.099360 0.328887 0.582196 0.106081
H44   H     H_    0.899044 0.361750 0.419134 0.103012
H45   H     H_    0.464858 0.996849 0.065516 0.111903
H46   H     H_    0.535196 0.996826 0.934621 0.111946
H47   H     H_    0.964858 0.496850 0.065516 0.111903
H48   H     H_    0.035197 0.496825 0.934621 0.111946
H49   H     H_    0.453675 0.990213 0.420971 0.115661
H50   H     H_    0.561881 0.972568 0.577665 0.111059
H51   H     H_    0.953675 0.490213 0.420971 0.115661
H52   H     H_    0.061881 0.472568 0.577665 0.111059
H53   H     H_    0.452123 0.000553 0.540805 0.120112
H54   H     H_    0.577964 0.973848 0.454872 0.129423
H55   H     H_    0.952123 0.500553 0.540804 0.120112
H56   H     H_    0.077964 0.473848 0.454872 0.129423
H57   H     H_    0.130952 0.637609 0.440859 0.135733
H58   H     H_    0.872885 0.610051 0.556560 0.136610
H59   H     H_    0.630952 0.137609 0.440859 0.135732
H60   H     H_    0.372885 0.110051 0.556560 0.136610
H61   H     H_    0.192264 0.750668 0.434034 0.115993
H62   H     H_    0.821596 0.733434 0.560202 0.112785
H63   H     H_    0.692264 0.250668 0.434034 0.115993
H64   H     H_    0.321596 0.233434 0.560202 0.112785
H65   H     H_    0.177424 0.756317 0.553929 0.136251
H66   H     H_    0.835194 0.736002 0.443190 0.135341
H67   H     H_    0.677423 0.256317 0.553929 0.136251
H68   H     H_    0.335194 0.236002 0.443190 0.135341
H69   H     H_    0.140035 0.618778 0.558091 0.113460
H70   H     H_    0.861114 0.588108 0.436269 0.117663
H71   H     H_    0.640035 0.118777 0.558091 0.113460
H72   H     H_    0.361114 0.088108 0.436269 0.117663
H73   H     H_    0.690834 0.928075 0.459719 0.112607
H74   H     H_    0.276988 0.880586 0.542927 0.111994
H75   H     H_    0.190834 0.428075 0.459719 0.112607
H76   H     H_    0.776988 0.380586 0.542927 0.111994
H77   H     H_    0.698098 0.942908 0.581274 0.105754
H78   H     H_    0.286145 0.923783 0.419327 0.102116
H79   H     H_    0.198098 0.442908 0.581274 0.105754
H80   H     H_    0.786145 0.423783 0.419327 0.102116
H81   H     H_    0.350375 0.578394 0.418826 0.115620
H82   H     H_    0.650947 0.606787 0.579295 0.111665
H83   H     H_    0.850375 0.078394 0.418826 0.115620
H84   H     H_    0.150947 0.106787 0.579295 0.111665
H85   H     H_    0.312093 0.723328 0.417102 0.102201
H86   H     H_    0.704680 0.734527 0.585133 0.104152
H87   H     H_    0.812093 0.223328 0.417102 0.102201
H88   H     H_    0.204680 0.234527 0.585133 0.104152
H89   H     H_    0.535441 0.642111 0.935482 0.114083
H90   H     H_    0.464507 0.642139 0.064414 0.113941
H91   H     H_    0.035440 0.142110 0.935482 0.114083
H92   H     H_    0.964506 0.142140 0.064415 0.113941
H93   H     H_    0.339691 0.729397 0.540706 0.112455
H94   H     H_    0.702299 0.754637 0.464869 0.113024
H95   H     H_    0.839691 0.229397 0.540706 0.112455
H96   H     H_    0.202299 0.254637 0.464869 0.113024
H97   H     H_    0.357771 0.576684 0.538525 0.120226
H98   H     H_    0.641010 0.635974 0.456989 0.129837
H99   H     H_    0.857771 0.076684 0.538525 0.120226
H100  H     H_    0.141010 0.135974 0.456989 0.129837
H101  H     H_    0.281493 0.401301 0.454232 0.130468
H102  H     H_    0.691275 0.430633 0.541714 0.120764
H103  H     H_    0.781493 0.901301 0.454232 0.130468
H104  H     H_    0.191275 0.930633 0.541714 0.120764
H105  H     H_    0.289435 0.427250 0.576531 0.110157
H106  H     H_    0.693990 0.440454 0.422117 0.115126
H107  H     H_    0.789435 0.927250 0.576531 0.110157
H108  H     H_    0.193990 0.940454 0.422117 0.115126
H109  H     H_    0.317344 0.432123 0.055182 0.158925
H110  H     H_    0.682653 0.432152 0.944694 0.158980
H111  H     H_    0.817344 0.932123 0.055182 0.158925
H112  H     H_    0.182653 0.932152 0.944694 0.158980
H113  H     H_    0.354109 0.569032 0.076860 0.082954
H114  H     H_    0.645897 0.569098 0.923124 0.083161
H115  H     H_    0.854109 0.069033 0.076860 0.082954
H116  H     H_    0.145897 0.069099 0.923124 0.083161
H117  H     H_    0.364399 0.623081 0.959384 0.146475
H118  H     H_    0.635593 0.623086 0.040640 0.146516
H119  H     H_    0.864399 0.123082 0.959384 0.146475
H120  H     H_    0.135593 0.123085 0.040640 0.146516
H121  H     H_    0.666073 0.934740 0.047200 0.101902
H122  H     H_    0.333937 0.934705 0.952669 0.101760
H123  H     H_    0.166073 0.434740 0.047199 0.101902
H124  H     H_    0.833937 0.434705 0.952669 0.101759
H125  H     H_    0.710506 0.932132 0.925911 0.127951
H126  H     H_    0.289461 0.932062 0.073953 0.127822
H127  H     H_    0.210506 0.432132 0.925911 0.127950
H128  H     H_    0.789462 0.432062 0.073953 0.127821
O1    O     O_R   0.214130 0.708570 0.829890 -0.529608
O2    O     O_R   0.785870 0.708570 0.170110 -0.530156
O3    O     O_R   0.714130 0.208570 0.829890 -0.529608
O4    O     O_R   0.285870 0.208570 0.170110 -0.530156
O5    O     O_R   0.446360 0.919990 0.675230 -0.507642
O6    O     O_R   0.553640 0.919990 0.324770 -0.507550
O7    O     O_R   0.946360 0.419990 0.675230 -0.507642
O8    O     O_R   0.053640 0.419990 0.324770 -0.507550
O9    O     O_R   0.457170 0.717300 0.668380 -0.530874
O10   O     O_R   0.542830 0.717300 0.331620 -0.530888
O11   O     O_R   0.957170 0.217300 0.668380 -0.530874
O12   O     O_R   0.042830 0.217300 0.331620 -0.530888
O13   O     O_R   0.320870 0.624890 0.673130 -0.512091
O14   O     O_R   0.679130 0.624890 0.326870 -0.511877
O15   O     O_R   0.820870 0.124890 0.673130 -0.512091
O16   O     O_R   0.179130 0.124890 0.326870 -0.511877
O17   O     O_3   0.334430 0.834430 0.749680 -0.283098
O18   O     O_3   0.665570 0.834430 0.250320 -0.279777
O19   O     O_3   0.834430 0.334430 0.749680 -0.283098
O20   O     O_3   0.165570 0.334430 0.250320 -0.279777
O21   O     O_R   0.236050 0.959150 0.825270 -0.516405
O22   O     O_R   0.763950 0.959150 0.174730 -0.516918
O23   O     O_R   0.736050 0.459150 0.825270 -0.516405
O24   O     O_R   0.263950 0.459150 0.174730 -0.516918
O25   O     O_R   0.332100 0.076650 0.832310 -0.533879
O26   O     O_R   0.667900 0.076650 0.167690 -0.534446
O27   O     O_R   0.832100 0.576650 0.832310 -0.533879
O28   O     O_R   0.167900 0.576650 0.167690 -0.534446
O29   O     O_R   0.446500 0.918620 0.826240 -0.503957
O30   O     O_R   0.553500 0.918620 0.173760 -0.504645
O31   O     O_R   0.946500 0.418620 0.826240 -0.503958
O32   O     O_R   0.053500 0.418620 0.173760 -0.504645
O33   O     O_R   0.457310 0.715830 0.831280 -0.525732
O34   O     O_R   0.542690 0.715830 0.168720 -0.526418
O35   O     O_R   0.957310 0.215830 0.831280 -0.525732
O36   O     O_R   0.042690 0.215830 0.168720 -0.526418
O37   O     O_R   0.321000 0.623520 0.824130 -0.517138
O38   O     O_R   0.679000 0.623520 0.175870 -0.517643
O39   O     O_R   0.821000 0.123520 0.824130 -0.517139
O40   O     O_R   0.179000 0.123520 0.175870 -0.517643
O41   O     O_R   0.213990 0.710040 0.667000 -0.533095
O42   O     O_R   0.786010 0.710040 0.333000 -0.532980
O43   O     O_R   0.713990 0.210040 0.667000 -0.533095
O44   O     O_R   0.286010 0.210040 0.333000 -0.532980
O45   O     O_R   0.235920 0.960520 0.674260 -0.512130
O46   O     O_R   0.764080 0.960520 0.325740 -0.511822
O47   O     O_R   0.735920 0.460520 0.674260 -0.512130
O48   O     O_R   0.264080 0.460520 0.325740 -0.511822
O49   O     O_R   0.331960 0.078120 0.669410 -0.534719
O50   O     O_R   0.668040 0.078120 0.330590 -0.534384
O51   O     O_R   0.831960 0.578120 0.669410 -0.534719
O52   O     O_R   0.168040 0.578120 0.330590 -0.534384
N1    N     N_2   0.347227 0.447974 0.927886 -0.537667
H129  H     H_    0.328909 0.433068 0.876928 0.270836
C121  C     C_3   0.419418 0.418958 0.936477 -0.337687
H130  H     H_    0.429101 0.328717 0.915506 0.139639
H131  H     H_    0.434366 0.420671 0.993839 0.133468
H132  H     H_    0.451538 0.482715 0.906261 0.160865
N2    N     N_2   0.652756 0.447959 0.071997 -0.537668
H133  H     H_    0.671017 0.433109 0.122973 0.270561
C122  C     C_3   0.580577 0.418920 0.063325 -0.337844
H134  H     H_    0.570892 0.328684 0.084243 0.139480
H135  H     H_    0.565675 0.420605 0.005951 0.133566
H136  H     H_    0.548419 0.482682 0.093543 0.160740
N3    N     N_2   0.847228 0.947974 0.927886 -0.537667
H137  H     H_    0.828910 0.933068 0.876928 0.270836
C123  C     C_3   0.919419 0.918959 0.936478 -0.337685
H138  H     H_    0.929100 0.828713 0.915513 0.139639
H139  H     H_    0.934368 0.920684 0.993839 0.133467
H140  H     H_    0.951539 0.982711 0.906256 0.160866
N4    N     N_2   0.152757 0.947959 0.071997 -0.537668
H141  H     H_    0.171017 0.933109 0.122973 0.270561
C124  C     C_3   0.080577 0.918920 0.063325 -0.337845
H142  H     H_    0.070893 0.828684 0.084243 0.139480
H143  H     H_    0.065675 0.920604 0.005950 0.133566
H144  H     H_    0.048419 0.982682 0.093542 0.160740

loop_
_geom_bond_atom_site_label_1
_geom_bond_atom_site_label_2
_ccdc_geom_bond_type
C82   C94   S    
C55   C59   S    
C35   H125  S    
C83   C87   S    
C73   C93   S    
C47   O31   A    
C42   C58   S    
C29   C89   S    
C16   H120  S    
C89   O37   A    
C48   C120  S    
C124  H142  S    
C24   H8    S    
C57   C102  S    
Cr6   O18   S    
Cr7   O7    S    
C59   C104  S    
Cr1   O17   S    
Cr9   O33   S    
C5    C6    S    
Cr10  O10   S    
Cr3   O19   S    
Cr4   O4    S    
Cr12  O16   S    
C29   C33   S    
C30   C38   S    
C77   C100  S    
C44   H36   S    
C9    C13   S    
C11   C15   S    
C49   H54   S    
C12   C16   S    
C98   O50   A    
C99   O47   A    
C10   H114  S    
C52   H55   S    
C103  O7    A    
C60   C103  S    
C107  O15   A    
C83   C107  S    
C88   H78   S    
C74   H82   S    
C61   H57   S    
C23   H11   S    
C64   H60   S    
C109  C118  S    
Cr5   O25   S    
C50   C53   S    
C75   C95   S    
C7    C119  S    
Cr8   O28   S    
C62   H58   S    
C62   C66   S    
Cr2   O2    S    
C72   H74   S    
C20   C28   S    
C18   H124  S    
Cr12  O36   S    
C43   C44   S    
C66   C82   S    
C7    H91   S    
C75   H87   S    
C58   C101  S    
C105  O41   A    
C92   O4    A    
C107  O43   A    
C14   H118  S    
C108  O44   A    
C19   H21   S    
C89   O1    A    
C62   H62   S    
Cr5   O49   S    
C17   H23   S    
C32   C40   S    
C91   O3    A    
C124  H144  S    
Cr1   O45   S    
Cr5   O5    S    
Cr2   O42   S    
C3    C26   S    
C84   C88   S    
C95   H99   S    
Cr12  O12   S    
C22   H10   S    
C110  H46   S    
C85   H79   S    
C13   H117  S    
Cr10  O34   S    
C17   C25   S    
C19   C35   S    
C76   C96   S    
C1    O21   A    
C32   C92   S    
C75   H83   S    
C86   H106  S    
C95   H95   S    
C67   H71   S    
C21   H9    S    
C61   C65   S    
C71   H73   S    
C122  H134  S    
C78   C99   S    
C45   O29   A    
C76   H88   S    
C75   C79   S    
Cr5   O29   S    
C6    H90   S    
C22   C38   S    
N2    C122  S    
C67   C83   S    
C80   C97   S    
C68   H72   S    
C11   H111  S    
C69   C77   S    
C111  C112  S    
C9    H109  S    
C52   H40   S    
C71   C79   S    
C4    C25   S    
Cr4   O20   S    
C7    C8    S    
Cr10  O38   S    
C96   H96   S    
C24   H12   S    
C100  O52   A    
N1    C121  S    
C39   H19   S    
C49   C57   S    
C40   H20   S    
Cr9   O37   S    
N3    C123  S    
C69   H101  S    
C38   H14   S    
C51   H56   S    
C52   C60   S    
C19   H121  S    
C61   C77   S    
C12   H112  S    
C71   H103  S    
C47   O35   A    
C110  C114  S    
C48   O36   A    
C43   C59   S    
C112  H48   S    
C90   O38   A    
C74   H86   S    
Cr1   O21   S    
C14   N2    S    
Cr2   O18   S    
Cr4   O24   S    
Cr12  O20   S    
C81   C105  S    
C87   H107  S    
C30   C34   S    
C34   H128  S    
C10   C14   S    
C36   H126  S    
C123  H139  S    
C101  O9    A    
C116  C120  S    
C103  O11   A    
C7    C116  S    
C93   H93   S    
C16   N4    S    
N4    C124  S    
C122  H136  S    
C33   H127  S    
C114  H2    S    
Cr11  O11   S    
C66   H66   S    
C113  C117  S    
C72   H104  S    
C31   C91   S    
Cr6   O26   S    
C74   C78   S    
Cr4   O48   S    
C61   H61   S    
C112  C116  S    
C69   C85   S    
C94   H98   S    
C45   C117  S    
C21   C25   S    
C121  H132  S    
C73   C77   S    
Cr12  O40   S    
C62   C78   S    
C76   C80   S    
C42   H30   S    
C15   C31   S    
C43   H35   S    
C16   C32   S    
C97   O45   A    
C105  O13   A    
C106  O42   A    
C72   C80   S    
C115  H3    S    
C64   H64   S    
C4    O24   A    
C82   C106  S    
C15   N3    S    
C55   H44   S    
Cr6   O50   S    
C66   H70   S    
Cr8   O32   S    
C51   C59   S    
Cr2   O46   S    
Cr6   O6    S    
C113  H1    S    
C46   O34   A    
Cr7   O19   S    
Cr8   O20   S    
C81   C85   S    
C111  H47   S    
C41   H29   S    
C87   H77   S    
C41   C42   S    
C74   C94   S    
Cr9   O13   S    
C18   C26   S    
C30   C90   S    
Cr11  O39   S    
C1    O25   A    
C9    C25   S    
C2    O22   A    
C3    O27   A    
C12   C28   S    
C13   C29   S    
C86   H80   S    
C67   H67   S    
C98   O46   A    
C88   H108  S    
C46   C118  S    
Cr6   O30   S    
C106  O14   A    
C1    C28   S    
C2    C27   S    
Cr10  O14   S    
C9    H113  S    
Cr11  O19   S    
C8    H92   S    
C52   C55   S    
C32   C36   S    
C121  H130  S    
C64   C80   S    
C73   H81   S    
C17   C33   S    
C110  C117  S    
C38   H18   S    
C33   H25   S    
C124  H143  S    
C69   H75   S    
C40   H16   S    
C68   C84   S    
C24   C28   S    
C53   C57   S    
C82   C86   S    
C56   C60   S    
C115  C119  S    
C50   C58   S    
N4    H141  S    
C104  O12   A    
C48   O32   A    
Cr7   O27   S    
C76   H84   S    
C65   C81   S    
C91   O39   A    
Cr8   O8    S    
C50   H38   S    
C20   H122  S    
Cr2   O22   S    
C71   C87   S    
C63   H63   S    
C64   C68   S    
Cr11  O35   S    
C101  O5    A    
C102  O10   A    
C37   H17   S    
C108  O16   A    
C112  C119  S    
C116  H4    S    
C56   H52   S    
C22   H6    S    
C41   C57   S    
C123  H138  S    
C12   H116  S    
C109  C110  S    
C49   H37   S    
N1    H129  S    
Cr5   O17   S    
C44   C60   S    
C63   H59   S    
C84   C108  S    
C85   H105  S    
N3    H137  S    
C94   H94   S    
N2    H133  S    
C20   C36   S    
C109  H45   S    
C21   C37   S    
C22   C26   S    
C29   C37   S    
C55   H51   S    
C44   H32   S    
C42   H34   S    
C43   H31   S    
C5    H89   S    
C97   O49   A    
C5    C114  S    
C70   C78   S    
C79   C98   S    
C99   O51   A    
C10   H110  S    
C63   C79   S    
C4    O28   A    
C20   H22   S    
C92   O40   A    
C54   H41   S    
C23   H7    S    
C46   O30   A    
C70   H76   S    
C49   C54   S    
Cr3   O47   S    
C51   C56   S    
C84   C96   S    
C8    C115  S    
Cr1   O1    S    
Cr3   O3    S    
C122  H135  S    
C41   H33   S    
C54   H50   S    
Cr9   O17   S    
C11   C27   S    
C19   C27   S    
C109  C113  S    
C2    O26   A    
C10   C26   S    
C47   C119  S    
C14   C30   S    
C90   O2    A    
C72   C88   S    
C53   H42   S    
C63   C67   S    
C121  H131  S    
C56   H43   S    
Cr7   O31   S    
Cr1   O41   S    
C21   H5    S    
C5    C117  S    
C111  C120  S    
Cr10  O18   S    
Cr3   O43   S    
C6    C113  S    
Cr11  O15   S    
Cr4   O44   S    
C53   H49   S    
C81   C93   S    
C83   C95   S    
C73   H85   S    
C18   C34   S    
C114  C118  S    
C65   H65   S    
C34   H26   S    
C23   C27   S    
C13   N1    S    
C70   C86   S    
C8    C120  S    
C54   C58   S    
C93   H97   S    
C17   H123  S    
C45   O33   A    
C104  O8    A    
C18   H24   S    
C123  H140  S    
Cr7   O51   S    
Cr8   O52   S    
C70   H102  S    
C68   H68   S    
C11   H115  S    
C51   H39   S    
Cr3   O23   S    
C15   H119  S    
C23   C39   S    
C3    O23   A    
C24   C40   S    
C31   C39   S    
C31   C35   S    
C96   H100  S    
C35   H27   S    
Cr9   O9    S    
C36   H28   S    
C100  O48   A    
C65   H69   S    
C102  O6    A    
C39   H15   S    
C111  C115  S    
C37   H13   S    
C50   H53   S    
C6    C118  S    
