data_mof_unit_40965.cif
_audit_creation_date              2012-12-10T18:35:43-0500
_audit_creation_method            fapswitch 2.2
_symmetry_space_group_name_H-M    P1
_symmetry_Int_Tables_number       1
_space_group_crystal_system       triclinic
_cell_length_a                    13.479511
_cell_length_b                    13.870851
_cell_length_c                    15.047284
_cell_angle_alpha                 90.253742
_cell_angle_beta                  90.285225
_cell_angle_gamma                 72.292493
_cell_volume                      2680.08390096

loop_
_atom_site_label
_atom_site_type_symbol
_atom_type_description
_atom_site_fract_x
_atom_site_fract_y
_atom_site_fract_z
_atom_type_partial_charge
C1    C     C_R   0.499424 0.500327 0.669820 0.863019
C2    C     C_R   0.977473 0.458155 0.495132 0.081182
C3    C     C_R   0.872097 0.480689 0.466325 0.044275
C4    C     C_R   0.029892 0.532692 0.484733 0.007216
C5    C     C_R   0.976564 0.628232 0.446990 0.030292
C6    C     C_R   0.877090 0.644581 0.412326 -0.271873
C7    C     C_R   0.829029 0.569471 0.415212 0.125882
C8    C     C_R   0.134881 0.514174 0.508066 -0.225148
C9    C     C_R   0.131687 0.681304 0.460422 -0.277891
C10   C     C_R   0.814863 0.413222 0.489473 -0.096606
C11   C     C_R   0.589583 0.501128 0.904609 0.503996
C12   C     C_R   0.700054 0.446048 0.493732 0.796856
C13   C     C_R   0.587729 0.503236 0.811965 -0.300761
C14   C     C_R   0.498035 0.500898 0.765908 -0.123137
C15   C     C_R   0.409387 0.495942 0.812073 0.136773
C16   C     C_R   0.410704 0.495267 0.904459 -0.179042
C17   C     C_R   0.500276 0.497458 0.950559 0.041872
C18   C     C_R   0.457659 0.586784 0.094324 0.131004
C19   C     C_R   0.460762 0.586193 0.186398 -0.250269
C20   C     C_R   0.504906 0.495935 0.232676 -0.209807
C21   C     C_R   0.549329 0.404079 0.185490 0.417565
C22   C     C_R   0.543829 0.404434 0.092660 0.127402
C23   C     C_R   0.501163 0.498998 0.329716 0.830760
C24   C     C_R   0.500112 0.496038 0.047284 -0.038317
C25   C     C_R   0.418062 0.915792 0.460373 0.352383
C26   C     C_R   0.423687 0.812732 0.456447 -0.044800
C27   C     C_R   0.575653 0.767890 0.545153 -0.057471
C28   C     C_R   0.578459 0.868923 0.545964 0.323381
C29   C     C_R   0.497615 0.945360 0.504380 0.000456
C30   C     C_R   0.510453 0.105775 0.582379 0.328391
C31   C     C_R   0.517962 0.205147 0.577566 -0.192416
C32   C     C_R   0.475598 0.213451 0.425024 0.494810
C33   C     C_R   0.486307 0.108874 0.423556 0.221280
C34   C     C_R   0.300010 0.554124 0.499836 0.838380
C35   C     C_R   0.498687 0.054248 0.503664 -0.075211
C36   C     C_R   0.026987 0.703059 0.436734 0.427081
C37   C     C_R   0.186595 0.585510 0.492092 -0.091844
C38   C     C_R   0.867682 0.317338 0.523613 -0.196361
C39   C     C_R   0.972894 0.291424 0.543223 -0.157665
C40   C     C_R   0.026764 0.361243 0.531865 -0.159991
Cu1   Cu    Cu3+1 0.500000 0.403570 0.500010 0.965330
Cu2   Cu    Cu3+1 0.500000 0.596430 0.499990 0.962167
H1    H     H_    0.170961 0.737632 0.449859 0.150098
H2    H     H_    0.656994 0.503920 0.776005 0.151319
H3    H     H_    0.342378 0.492154 0.940521 0.182075
H4    H     H_    0.426384 0.656438 0.221987 0.197684
H5    H     H_    0.365725 0.789827 0.419261 0.141436
H6    H     H_    0.634358 0.710469 0.581058 0.152831
H7    H     H_    0.840040 0.712673 0.374892 0.190712
H8    H     H_    0.535202 0.239617 0.637699 0.198123
H9    H     H_    0.180290 0.443113 0.535712 0.165283
H10   H     H_    0.826504 0.263775 0.539898 0.159145
H11   H     H_    0.106925 0.335980 0.552722 0.120403
H12   H     H_    0.012056 0.218310 0.571940 0.142033
N1    N     N_R   0.500000 0.741310 0.499980 -0.204297
N2    N     N_R   0.500060 0.258650 0.499980 -0.249444
O1    O     O_R   0.499990 0.418570 0.628550 -0.575348
O2    O     O_R   0.499990 0.581440 0.628540 -0.569840
O3    O     O_R   0.650980 0.378820 0.499990 -0.598302
O4    O     O_R   0.650980 0.541690 0.499970 -0.561659
O5    O     O_R   0.500010 0.418560 0.371460 -0.515384
O6    O     O_R   0.500010 0.581430 0.371450 -0.559987
O7    O     O_R   0.349020 0.458310 0.500030 -0.578632
O8    O     O_R   0.349020 0.621180 0.500010 -0.592408
I1    I     I_    0.271412 0.490561 0.746509 -0.411607
I2    I     I_    0.385137 0.727254 0.030564 -0.438373
O9    O     O_3   0.590698 0.311957 0.228299 -0.560889
C41   C     C_3   0.686084 0.306563 0.271372 0.103516
H13   H     H_    0.680058 0.284707 0.341562 0.185903
H14   H     H_    0.705546 0.378947 0.272121 0.129974
C42   C     C_3   0.775803 0.225007 0.228205 -0.358578
H15   H     H_    0.756774 0.152552 0.225443 0.224187
H16   H     H_    0.787105 0.248103 0.159340 0.249767
C43   C     C_3   0.876842 0.209108 0.280649 -0.923626
H17   H     H_    0.896599 0.281103 0.285717 0.275349
H18   H     H_    0.941526 0.152135 0.246414 0.267108
H19   H     H_    0.868888 0.181272 0.348567 0.250415
I3    I     I_    0.599315 0.264392 0.022487 -0.356472
O10   O     O_3   0.338600 0.985841 0.415472 -0.569480
C44   C     C_3   0.250931 0.022290 0.471291 0.049735
H20   H     H_    0.208274 0.100200 0.448895 0.169192
H21   H     H_    0.272002 0.028956 0.542406 0.105976
C45   C     C_3   0.178852 0.955874 0.462403 -0.353191
H22   H     H_    0.171484 0.936887 0.391296 0.232843
H23   H     H_    0.212731 0.884655 0.499918 0.203593
C46   C     C_3   0.070700 0.008222 0.499058 -0.931842
H24   H     H_    0.075696 0.028232 0.570128 0.253599
H25   H     H_    0.022907 0.956012 0.493554 0.292471
H26   H     H_    0.032152 0.077496 0.460199 0.254987
O11   O     O_3   0.655568 0.894739 0.592435 -0.544938
C47   C     C_3   0.753237 0.850573 0.552053 0.083762
H27   H     H_    0.749085 0.859115 0.478277 0.137005
H28   H     H_    0.782635 0.768732 0.568736 0.112706
C48   C     C_3   0.830947 0.901435 0.588753 -0.276965
H29   H     H_    0.829166 0.900969 0.662598 0.224866
H30   H     H_    0.910843 0.857785 0.567786 0.204301
C49   C     C_3   0.806730 0.010359 0.556185 -0.790444
H31   H     H_    0.810950 0.012249 0.482503 0.232174
H32   H     H_    0.864113 0.044874 0.584688 0.229115
H33   H     H_    0.728072 0.056172 0.577997 0.282738
O12   O     O_3   0.520112 0.057592 0.663602 -0.546355
C50   C     C_3   0.426855 0.097512 0.711667 0.053215
H34   H     H_    0.358467 0.092503 0.671951 0.117806
H35   H     H_    0.415894 0.177942 0.730170 0.157370
C51   C     C_3   0.433095 0.036094 0.796660 -0.294962
H36   H     H_    0.443848 0.955619 0.779076 0.230554
H37   H     H_    0.501322 0.039809 0.836793 0.239850
C52   C     C_3   0.334611 0.076138 0.852230 -0.874281
H38   H     H_    0.323477 0.155987 0.872021 0.266192
H39   H     H_    0.341643 0.029794 0.913270 0.272922
H40   H     H_    0.265515 0.071630 0.813880 0.253395
O13   O     O_3   0.439766 0.269612 0.349677 -0.536176
C53   C     C_3   0.330486 0.290290 0.344125 0.109602
H41   H     H_    0.291864 0.315203 0.409375 0.113161
H42   H     H_    0.311479 0.221463 0.321419 0.177219
C54   C     C_3   0.286634 0.374991 0.276854 -0.308760
H43   H     H_    0.301861 0.445184 0.300525 0.211918
H44   H     H_    0.326114 0.353197 0.211845 0.238626
C55   C     C_3   0.169488 0.396419 0.264256 -0.924356
H45   H     H_    0.152333 0.328298 0.237767 0.264515
H46   H     H_    0.139806 0.459434 0.216387 0.262863
H47   H     H_    0.128415 0.418548 0.328395 0.263657
O14   O     O_3   0.477202 0.062951 0.343566 -0.552159
C56   C     C_3   0.576510 0.027789 0.304107 0.079424
H48   H     H_    0.629698 0.967325 0.345682 0.118724
H49   H     H_    0.610946 0.090795 0.295450 0.161588
C57   C     C_3   0.565139 0.984004 0.212638 -0.269698
H50   H     H_    0.529843 0.921713 0.219967 0.237751
H51   H     H_    0.512474 0.044137 0.170786 0.244800
C58   C     C_3   0.669994 0.943125 0.166221 -0.924397
H52   H     H_    0.707734 0.003576 0.159560 0.269284
H53   H     H_    0.658055 0.915931 0.098705 0.270805
H54   H     H_    0.721814 0.878834 0.204328 0.259080
O15   O     O_3   0.972700 0.798891 0.406819 -0.645800
C59   C     C_3   0.997955 0.808265 0.317044 0.039220
H55   H     H_    0.977368 0.750382 0.275384 0.152248
H56   H     H_    0.082467 0.799405 0.309547 0.145004
C60   C     C_3   0.935834 0.913565 0.284389 -0.349912
H57   H     H_    0.851582 0.926435 0.296722 0.217747
H58   H     H_    0.960273 0.971607 0.322154 0.230427
C61   C     C_3   0.952811 0.925535 0.185376 -0.891558
H59   H     H_    0.036408 0.915113 0.172038 0.268573
H60   H     H_    0.906635 0.002468 0.163525 0.260394
H61   H     H_    0.927177 0.869180 0.146300 0.264034
I4    I     I_    0.721149 0.583094 0.310043 -0.470087
O16   O     O_3   0.681719 0.491037 0.949800 -0.599536
C62   C     C_3   0.691515 0.587924 0.966292 0.039250
H62   H     H_    0.619154 0.639754 0.995704 0.174820
H63   H     H_    0.709213 0.621264 0.903384 0.147218
C63   C     C_3   0.780653 0.577586 0.032344 -0.287184
H64   H     H_    0.767951 0.535713 0.091903 0.250090
H65   H     H_    0.855405 0.533620 0.001181 0.224757
C64   C     C_3   0.787638 0.680765 0.061708 -0.895661
H66   H     H_    0.799854 0.724617 0.003408 0.256784
H67   H     H_    0.854044 0.670464 0.108463 0.261605
H68   H     H_    0.714983 0.723798 0.096313 0.276526

loop_
_geom_bond_atom_site_label_1
_geom_bond_atom_site_label_2
_ccdc_geom_bond_type
C27   H6    S    
C59   C60   S    
O12   C50   S    
C34   C37   S    
Cu1   Cu2   S    
C58   H53   S    
C62   H62   S    
Cu1   O5    S    
C4    C8    A    
C26   N1    A    
Cu2   O2    S    
C49   H31   S    
C19   H4    S    
O14   C56   S    
C54   H43   S    
C51   H37   S    
C43   H18   S    
C30   C35   A    
C18   C24   A    
C22   C24   A    
C28   C29   A    
C62   H63   S    
O16   C62   S    
C3    C7    A    
C61   H60   S    
C30   C31   A    
C50   H35   S    
C27   N1    A    
C39   H12   S    
C38   H10   S    
C15   C16   A    
C15   I1    S    
C5    C36   A    
C52   H38   S    
C50   C51   S    
C18   C19   A    
C12   O3    A    
C23   O6    A    
C19   C20   A    
C54   H44   S    
C41   H13   S    
C63   C64   S    
C9    C36   A    
C13   C14   A    
C31   N2    A    
C64   H67   S    
Cu2   O6    S    
C53   C54   S    
C21   C22   A    
C21   O9    S    
C50   H34   S    
C44   C45   S    
C34   O8    A    
O13   C53   S    
C49   H32   S    
C55   H46   S    
C25   C29   A    
C38   C39   A    
C51   C52   S    
C9    H1    S    
C17   C24   S    
C43   H17   S    
O9    C41   S    
C59   H55   S    
C62   C63   S    
C22   I3    S    
C44   H21   S    
C61   H61   S    
Cu2   O4    S    
C39   C40   A    
C42   H16   S    
C46   H24   S    
C16   C17   A    
C48   C49   S    
C25   C26   A    
C43   H19   S    
C46   H26   S    
C2    C4    A    
C57   H51   S    
Cu1   N2    S    
C1    O1    A    
Cu2   N1    S    
C47   H28   S    
C45   H22   S    
C14   C15   A    
C20   C23   S    
C23   O5    A    
C9    C37   A    
C64   H68   S    
C48   H30   S    
C8    H9    S    
Cu1   O3    S    
C6    C7    A    
C10   C12   S    
C26   H5    S    
C56   C57   S    
C45   H23   S    
C63   H65   S    
C58   H54   S    
C8    C37   A    
Cu1   O7    S    
C31   H8    S    
C57   H50   S    
Cu2   O8    S    
C47   H27   S    
C49   H33   S    
C56   H49   S    
C53   H41   S    
C55   H47   S    
C59   H56   S    
C11   C17   A    
C32   O13   S    
C25   O10   S    
C44   H20   S    
C60   C61   S    
C36   O15   S    
C16   H3    S    
C42   C43   S    
C55   H45   S    
C54   C55   S    
C11   O16   S    
O15   C59   S    
C60   H58   S    
C18   I2    S    
C51   H36   S    
C29   C35   S    
C52   H40   S    
C10   C38   A    
C32   C33   A    
C2    C3    A    
C57   C58   S    
Cu1   O1    S    
C42   H15   S    
C3    C10   A    
C61   H59   S    
C47   C48   S    
C11   C13   A    
O11   C47   S    
C5    C6    A    
C41   C42   S    
C30   O12   S    
C34   O7    A    
C33   C35   A    
C52   H39   S    
C58   H52   S    
C46   H25   S    
C6    H7    S    
C48   H29   S    
C60   H57   S    
O10   C44   S    
C12   O4    A    
C2    C40   A    
C4    C5    A    
C45   C46   S    
C20   C21   A    
C41   H14   S    
C40   H11   S    
C27   C28   A    
C33   O14   S    
C63   H64   S    
C28   O11   S    
C1    C14   S    
C7    I4    S    
C64   H66   S    
C1    O2    A    
C32   N2    A    
C13   H2    S    
C56   H48   S    
C53   H42   S    
