data_mof_unit_50796.cif
_audit_creation_date              2012-12-11T15:15:10-0500
_audit_creation_method            fapswitch 2.2
_symmetry_space_group_name_H-M    P1
_symmetry_Int_Tables_number       1
_space_group_crystal_system       triclinic
_cell_length_a                    18.832687
_cell_length_b                    18.808746
_cell_length_c                    20.406646
_cell_angle_alpha                 106.856944
_cell_angle_beta                  106.539049
_cell_angle_gamma                 111.062641
_cell_volume                      5811.48883002

loop_
_atom_site_label
_atom_site_type_symbol
_atom_type_description
_atom_site_fract_x
_atom_site_fract_y
_atom_site_fract_z
_atom_type_partial_charge
C1    C     C_R   0.042571 0.087896 0.344506 0.059099
C2    C     C_R   0.238517 0.074292 0.494824 -0.136406
C3    C     C_R   0.164518 0.195112 0.719039 0.164740
C4    C     C_R   0.754635 0.930341 0.455549 -0.129118
C5    C     C_R   0.051833 0.804744 0.480100 -0.133742
C6    C     C_R   0.246309 0.218852 0.725033 -0.020123
C7    C     C_R   0.036567 0.780166 0.534863 0.074945
C8    C     C_R   0.242667 0.005735 0.450591 0.082584
C9    C     C_R   0.935998 0.973799 0.712112 0.050046
C10   C     C_R   0.049690 0.711557 0.622204 -0.267457
C11   C     C_R   0.077132 0.740282 0.573034 0.117235
C12   C     C_R   0.746546 0.002964 0.465449 0.076775
C13   C     C_R   0.135620 0.720970 0.552858 -0.257500
C14   C     C_R   0.153157 0.660247 0.568469 0.141044
C15   C     C_R   0.114780 0.621728 0.607883 0.025563
C16   C     C_R   0.846057 0.778893 0.289641 -0.143698
C17   C     C_R   0.066964 0.651029 0.638723 0.146176
C18   C     C_R   0.200446 0.630693 0.537814 -0.206427
C19   C     C_R   0.201649 0.557315 0.538677 -0.209627
C20   C     C_R   0.155933 0.513425 0.570542 0.144900
C21   C     C_R   0.116366 0.548208 0.609090 0.026362
C22   C     C_R   0.070602 0.504676 0.641585 0.144955
C23   C     C_R   0.768752 0.729697 0.286553 0.061773
C24   C     C_R   0.031212 0.539614 0.679608 -0.209116
C25   C     C_R   0.029308 0.612569 0.678101 -0.205660
C26   C     C_R   0.141913 0.431657 0.557753 -0.265207
C27   C     C_R   0.087623 0.383921 0.581806 0.111866
C28   C     C_R   0.001180 0.236676 0.569067 -0.166239
C29   C     C_R   0.057785 0.423225 0.628837 -0.265784
C30   C     C_R   0.299695 0.933084 0.374457 -0.264264
C31   C     C_R   0.305965 0.008770 0.421140 0.114445
C32   C     C_R   0.376871 0.086575 0.444990 -0.263215
C33   C     C_R   0.446046 0.088178 0.432045 0.143287
C34   C     C_R   0.055243 0.291677 0.551440 0.077327
C35   C     C_R   0.443250 0.011036 0.393364 0.026852
C36   C     C_R   0.368352 0.933556 0.361246 0.143375
C37   C     C_R   0.520780 0.164971 0.463632 -0.208822
C38   C     C_R   0.594773 0.164599 0.464021 -0.206550
C39   C     C_R   0.594405 0.087406 0.433092 0.140843
C40   C     C_R   0.768868 0.772789 0.354130 -0.130285
C41   C     C_R   0.517646 0.010629 0.393978 0.026325
C42   C     C_R   0.516806 0.932722 0.362811 0.142021
C43   C     C_R   0.440182 0.856673 0.323768 -0.207060
C44   C     C_R   0.366100 0.857094 0.322973 -0.209818
C45   C     C_R   0.240055 0.194727 0.652248 -0.165046
C46   C     C_R   0.670156 0.084975 0.448131 -0.258703
C47   C     C_R   0.669723 0.006703 0.427663 0.115589
C48   C     C_R   0.593200 0.931456 0.378712 -0.259222
C49   C     C_R   0.323630 0.251544 0.793528 0.144480
C50   C     C_R   0.320002 0.222236 0.848976 -0.201610
C51   C     C_R   0.393038 0.253486 0.914377 -0.160743
C52   C     C_R   0.081683 0.244904 0.508224 -0.130631
C53   C     C_R   0.470573 0.315118 0.925345 0.229001
C54   C     C_R   0.475039 0.339581 0.867300 -0.184515
C55   C     C_R   0.401968 0.307988 0.801715 -0.170263
C56   C     C_R   0.973555 0.797811 0.544514 -0.130926
C57   C     C_R   0.684187 0.502515 0.150937 -0.163521
C58   C     C_R   0.739727 0.587059 0.202551 -0.221179
C59   C     C_R   0.622275 0.605949 0.215043 0.032132
C60   C     C_R   0.567136 0.520714 0.163881 -0.238641
C61   C     C_R   0.597233 0.469633 0.129665 0.221033
C62   C     C_2   0.544623 0.364383 0.000046 -0.229612
C63   C     C_2   0.534814 0.387292 0.064261 -0.217269
C64   C     C_R   0.824327 0.071442 0.520184 -0.136854
C65   C     C_R   0.709279 0.639969 0.233721 0.117907
C66   C     C_R   0.952762 0.023454 0.199605 0.147333
C67   C     C_R   0.169196 0.934228 0.430637 -0.147766
C68   C     C_R   0.939760 0.961925 0.132592 -0.191511
C69   C     C_R   0.898217 0.958492 0.062658 -0.163910
C70   C     C_R   0.868370 0.016447 0.058308 0.225749
C71   C     C_R   0.882118 0.078695 0.125253 -0.184029
C72   C     C_R   0.922774 0.081289 0.195515 -0.180259
C73   C     C_R   0.819178 0.006596 0.830051 -0.160225
C74   C     C_R   0.858586 0.014412 0.782314 -0.221911
C75   C     C_R   0.889978 0.901120 0.790476 0.158054
C76   C     C_R   0.972402 0.947105 0.281285 -0.147809
C77   C     C_R   0.846424 0.891568 0.835342 -0.245009
C78   C     C_R   0.979745 0.048667 0.708654 -0.150280
C79   C     C_R   0.813862 0.945709 0.857394 0.200050
C80   C     C_2   0.833241 0.018558 0.984968 -0.230811
C81   C     C_2   0.790150 0.946871 0.920050 -0.217721
C82   C     C_R   0.895297 0.963126 0.762850 0.079352
C83   C     C_R   0.990112 0.020841 0.272027 -0.012202
C84   C     C_3   0.145721 0.233835 0.783268 -0.461834
C85   C     C_3   0.085836 0.268990 0.759727 -0.232965
C86   C     C_3   0.066789 0.307620 0.824949 -0.948667
C87   C     C_3   0.933730 0.847818 0.778388 -0.474282
C88   C     C_3   0.009100 0.875996 0.852509 -0.222990
C89   C     C_R   0.914215 0.909708 0.644559 -0.159571
C90   C     C_3   0.053802 0.823285 0.840115 -0.930088
H1    H     H_    0.946065 0.787192 0.582659 0.091975
H2    H     H_    0.706992 0.865679 0.417308 0.096923
H3    H     H_    0.233578 0.531954 0.510070 0.128663
H4    H     H_    0.167712 0.403507 0.523489 0.116611
H5    H     H_    0.018632 0.388776 0.650527 0.118435
H6    H     H_    0.997008 0.507426 0.705906 0.128401
H7    H     H_    0.993473 0.635296 0.703043 0.130397
H8    H     H_    0.244540 0.872674 0.353245 0.115975
H9    H     H_    0.381786 0.145770 0.478853 0.116748
H10   H     H_    0.523322 0.224790 0.492346 0.128298
H11   H     H_    0.653240 0.224125 0.493192 0.129710
H12   H     H_    0.144513 0.871164 0.387360 0.086515
H13   H     H_    0.728789 0.143977 0.482151 0.119121
H14   H     H_    0.872911 0.758578 0.252391 0.088405
H15   H     H_    0.591944 0.870900 0.358877 0.119471
H16   H     H_    0.438547 0.796515 0.298510 0.127612
H17   H     H_    0.308452 0.797242 0.296939 0.127651
H18   H     H_    0.260619 0.175428 0.841867 0.123801
H19   H     H_    0.806530 0.611056 0.217686 0.123463
H20   H     H_    0.472436 0.358053 0.062254 0.131133
H21   H     H_    0.534311 0.386815 0.874556 0.112678
H22   H     H_    0.708904 0.463571 0.126200 0.118672
H23   H     H_    0.986380 0.108361 0.742590 0.114257
H24   H     H_    0.406226 0.329818 0.758650 0.114082
H25   H     H_    0.977767 0.253379 0.610418 0.084015
H26   H     H_    0.605314 0.399327 0.000896 0.132548
H27   H     H_    0.388324 0.231272 0.957110 0.116247
H28   H     H_    0.499889 0.495949 0.147241 0.115905
H29   H     H_    0.962233 0.916652 0.134347 0.116190
H30   H     H_    0.860943 0.061305 0.761062 0.130451
H31   H     H_    0.763095 0.886712 0.922873 0.136177
H32   H     H_    0.860628 0.124559 0.122999 0.119621
H33   H     H_    0.794640 0.049219 0.847078 0.123032
H34   H     H_    0.865307 0.844701 0.620856 0.096391
H35   H     H_    0.928084 0.126660 0.245879 0.118230
H36   H     H_    0.726376 0.746110 0.377004 0.098907
H37   H     H_    0.860946 0.079638 0.983969 0.138291
H38   H     H_    0.891842 0.911945 0.012199 0.111531
H39   H     H_    0.843407 0.845588 0.858000 0.114703
H40   H     H_    0.135696 0.270766 0.497102 0.101586
H41   H     H_    0.841660 0.137660 0.542002 0.097599
H42   H     H_    0.932678 0.882915 0.237127 0.108672
H43   H     H_    0.290989 0.202931 0.635708 0.112062
H44   H     H_    0.120014 0.177934 0.325795 0.101926
H45   H     H_    0.278020 0.140274 0.510584 0.085467
H46   H     H_    0.048894 0.199212 0.350316 0.094533
H47   H     H_    0.036018 0.258914 0.842618 0.260051
H48   H     H_    0.126004 0.360777 0.874372 0.267771
H49   H     H_    0.023374 0.332413 0.806090 0.247841
H50   H     H_    0.115336 0.318640 0.742369 0.201463
H51   H     H_    0.025458 0.217859 0.710559 0.190896
H52   H     H_    0.122222 0.187900 0.805667 0.183412
H53   H     H_    0.205629 0.287821 0.831395 0.196881
H54   H     H_    0.557284 0.632521 0.273163 0.094465
H55   H     H_    0.544724 0.657008 0.198689 0.108826
H56   H     H_    0.097023 0.801152 0.458512 0.096189
H57   H     H_    0.009610 0.755309 0.820184 0.255892
H58   H     H_    0.077936 0.830398 0.797383 0.264880
H59   H     H_    0.108068 0.845168 0.894507 0.253282
H60   H     H_    0.054950 0.943856 0.873725 0.199669
H61   H     H_    0.987538 0.869036 0.896721 0.192037
H62   H     H_    0.887318 0.780145 0.757154 0.187195
H63   H     H_    0.957765 0.851450 0.735398 0.196928
H64   H     H_    0.008308 0.729478 0.641836 0.120152
H65   H     H_    0.161319 0.746328 0.518646 0.118657
H66   H     H_    0.231335 0.660651 0.508429 0.129811
N1    N     N_R   0.052580 0.056040 0.395500 -0.045409
N2    N     N_R   0.890210 0.849400 0.355780 -0.036601
N3    N     N_R   0.997110 0.161140 0.539580 -0.040119
N4    N     N_R   0.841950 0.845400 0.395490 -0.040526
N5    N     N_R   0.045360 0.165140 0.499870 -0.037054
N6    N     N_R   0.877490 0.041510 0.539580 -0.042714
N7    N     N_R   0.009820 0.969030 0.355780 -0.045421
N8    N     N_R   0.158050 0.154600 0.604510 -0.048631
N9    N     N_3   0.090332 0.174923 0.361847 -0.227577
N10   N     N_3   0.589026 0.658674 0.244576 -0.225991
N11   N     N_R   0.954640 0.834860 0.500130 -0.040828
N12   N     N_R   0.122510 0.958490 0.460420 -0.038320
N13   N     N_R   0.990180 0.030970 0.644220 -0.038092
N14   N     N_R   0.947420 0.943960 0.604500 -0.034235
N15   N     N_R   0.165270 0.045500 0.500140 -0.038086
N16   N     N_R   0.109790 0.150600 0.644220 -0.054667
N17   N     N_R   0.002890 0.838860 0.460420 -0.041087
N18   N     N_R   0.834730 0.954500 0.499860 -0.039864
Ni1   Ni    Ni4+2 0.104370 0.104380 0.500010 0.211525
Ni2   Ni    Ni4+2 0.895630 0.895620 0.499990 0.210382
Ni3   Ni    Ni4+2 0.006300 0.904810 0.408930 0.207080
Ni4   Ni    Ni4+2 0.993700 0.095190 0.591070 0.202330

loop_
_geom_bond_atom_site_label_1
_geom_bond_atom_site_label_2
_ccdc_geom_bond_type
C67   N12   A    
C26   H4    S    
C66   C68   A    
C87   C88   S    
C22   C29   A    
C27   C29   A    
C58   H19   S    
C11   C13   A    
N13   N14   A    
C14   C18   A    
C71   H32   S    
C35   C36   A    
C3    C6    A    
C10   H64   S    
C39   C41   A    
N14   Ni2   S    
C53   C54   A    
C7    C11   S    
C80   H37   S    
C26   C27   A    
C90   H57   S    
C20   C26   A    
C6    C45   A    
N2    Ni3   S    
C89   N14   A    
C38   H11   S    
C90   H59   S    
C68   H29   S    
C30   C31   A    
N5    Ni1   S    
C3    N16   A    
C57   H22   S    
H46   N9    S    
C10   C17   A    
C23   C40   A    
N8    Ni1   S    
C18   C19   A    
C41   C42   A    
C61   C63   S    
C13   H65   S    
C90   H58   S    
C34   C52   A    
C86   H47   S    
C33   C35   A    
C66   C83   S    
C46   C47   A    
C16   H14   S    
N12   N15   A    
C66   C72   A    
C48   H15   S    
C69   H38   S    
C68   C69   A    
C73   H33   S    
N7    Ni3   S    
N3    N5    A    
C60   H28   S    
C70   C71   A    
C84   H52   S    
C4    C12   A    
N1    N7    A    
C19   H3    S    
C9    C82   S    
N11   N17   A    
C28   C34   A    
C59   C60   A    
C4    N18   A    
C13   C14   A    
C50   H18   S    
N4    Ni2   S    
C5    N17   A    
C7    C56   A    
C74   C82   A    
C12   C47   S    
C76   C83   A    
H55   N10   S    
C77   C79   A    
C27   C34   S    
C16   N2    A    
C84   C85   S    
C64   N6    A    
C85   H51   S    
C29   H5    S    
C42   C48   A    
N2    N4    A    
C84   H53   S    
C85   C86   S    
C70   C80   S    
C28   N3    A    
C33   C37   A    
C81   H31   S    
C60   C61   A    
C51   C53   A    
C43   H16   S    
C43   C44   A    
C62   H26   S    
C37   C38   A    
C28   H25   S    
C53   C62   S    
C58   C65   A    
C47   C48   A    
C64   H41   S    
C1    N9    S    
C2    N15   A    
C40   H36   S    
C62   C63   D    
C87   H63   S    
C50   C51   A    
C73   C79   A    
H44   N9    S    
C77   H39   S    
C24   C25   A    
C75   C77   A    
C85   H50   S    
C59   N10   S    
C86   H49   S    
N1    Ni1   S    
C39   C46   A    
C25   H7    S    
C89   H34   S    
C88   C90   S    
C16   C23   A    
C87   H62   S    
C88   H61   S    
C22   C24   A    
C36   C44   A    
C78   H23   S    
C42   C43   A    
N3    Ni4   S    
C9    C89   A    
C73   C74   A    
N13   Ni4   S    
C18   H66   S    
C5    C7    A    
C44   H17   S    
N16   Ni4   S    
C15   C17   A    
C30   H8    S    
C54   C55   A    
C5    H56   S    
C8    C31   S    
C88   H60   S    
C40   N4    A    
C31   C32   A    
C2    C8    A    
C80   C81   D    
C75   C82   A    
C57   C61   A    
N6    N18   A    
C55   H24   S    
C45   H43   S    
C1    C83   A    
C74   H30   S    
C46   H13   S    
C52   N5    A    
C79   C81   S    
C2    H45   S    
C32   H9    S    
C30   C36   A    
C72   H35   S    
C52   H40   S    
C32   C33   A    
C23   C65   S    
C19   C20   A    
C24   H6    S    
C17   C25   A    
C71   C72   A    
C49   C55   A    
C59   C65   A    
C76   H42   S    
C57   C58   A    
C38   C39   A    
N15   Ni1   S    
C63   H20   S    
C12   C64   A    
C56   N11   A    
C1    N1    A    
C51   H27   S    
C54   H21   S    
C9    C78   A    
C78   N13   A    
C6    C49   S    
C69   C70   A    
C35   C41   A    
N18   Ni2   S    
N6    Ni4   S    
N8    N16   A    
C10   C11   A    
C86   H48   S    
C15   C21   A    
C20   C21   A    
C8    C67   A    
C49   C50   A    
H54   N10   S    
C3    C84   S    
C14   C15   A    
C76   N7    A    
N17   Ni3   S    
C21   C22   A    
C37   H10   S    
C56   H1    S    
C75   C87   S    
N12   Ni3   S    
C67   H12   S    
C45   N8    A    
N11   Ni2   S    
C4    H2    S    
