data_mof_unit_32887.cif
_audit_creation_date              2012-12-11T14:15:50-0500
_audit_creation_method            fapswitch 2.2
_symmetry_space_group_name_H-M    P1
_symmetry_Int_Tables_number       1
_space_group_crystal_system       triclinic
_cell_length_a                    11.150075
_cell_length_b                    12.723447
_cell_length_c                    23.524774
_cell_angle_alpha                 90.852389
_cell_angle_beta                  96.878823
_cell_angle_gamma                 68.601148
_cell_volume                      3083.46083901

loop_
_atom_site_label
_atom_site_type_symbol
_atom_type_description
_atom_site_fract_x
_atom_site_fract_y
_atom_site_fract_z
_atom_type_partial_charge
C1    C     C_R   0.149440 0.616500 0.428816 0.535155
C2    C     C_2   0.180808 0.233246 0.226701 -0.093653
C3    C     C_2   0.155030 0.165476 0.262609 -0.095349
C4    C     C_R   0.751565 0.602913 0.403357 0.565722
C5    C     C_1   0.132108 0.198861 0.320441 -0.024357
C6    C     C_1   0.210391 0.197862 0.169788 -0.013810
C7    C     C_1   0.115873 0.231928 0.368302 0.010027
C8    C     C_1   0.167222 0.750686 0.123755 0.017993
C9    C     C_2   0.141275 0.690567 0.227921 -0.117732
C10   C     C_2   0.235952 0.676217 0.271505 -0.112553
C11   C     C_1   0.217294 0.652261 0.329068 -0.046220
C12   C     C_R   0.707361 0.539470 0.307335 -0.134334
C13   C     C_1   0.154580 0.722027 0.170784 -0.024602
C14   C     C_1   0.193680 0.634457 0.376046 -0.006465
C15   C     C_1   0.630572 0.753568 0.865698 -0.021420
C16   C     C_R   0.101124 0.282135 0.423351 0.542738
C17   C     C_2   0.706075 0.695323 0.763663 0.358381
C18   C     C_2   0.615570 0.706432 0.718668 -0.091675
C19   C     C_1   0.652602 0.670859 0.662752 -0.005873
C20   C     C_1   0.668054 0.728954 0.819567 -0.009027
C21   C     C_1   0.690735 0.640242 0.617235 0.011141
C22   C     C_R   0.193977 0.186657 0.856125 0.030631
C23   C     C_R   0.703561 0.732012 0.317586 0.248189
C24   C     C_R   0.102290 0.242053 0.643611 -0.026181
C25   C     C_R   0.004131 0.177828 0.715632 0.327611
C26   C     C_R   0.013191 0.195636 0.658067 0.346593
C27   C     C_R   0.178079 0.274848 0.686400 -0.187224
C28   C     C_R   0.152297 0.617873 0.589936 0.557507
C29   C     C_R   0.171690 0.256201 0.743313 -0.114758
C30   C     C_R   0.089624 0.201839 0.758626 -0.012036
C31   C     C_R   0.100099 0.168500 0.815869 0.332242
C32   C     C_R   0.262555 0.254141 0.841655 0.229471
C33   C     C_R   0.248826 0.290050 0.784884 -0.116619
C34   C     C_R   0.699467 0.740857 0.257741 -0.071903
C35   C     C_R   0.132609 0.755604 0.848426 -0.049898
C36   C     C_R   0.202959 0.642741 0.646651 -0.066148
C37   C     C_R   0.312284 0.567782 0.740418 0.341751
C38   C     C_R   0.298919 0.557057 0.681289 -0.148885
C39   C     C_R   0.132653 0.745209 0.670916 0.255793
C40   C     C_R   0.749808 0.602413 0.566007 0.544874
C41   C     C_R   0.126225 0.746155 0.729802 0.011476
C42   C     C_R   0.220410 0.658070 0.765147 -0.021138
C43   C     C_R   0.223130 0.663840 0.824428 -0.094731
C44   C     C_R   0.029469 0.833942 0.813120 -0.061486
C45   C     C_R   0.708052 0.645470 0.224175 -0.016734
C46   C     C_R   0.026076 0.830743 0.753995 0.323868
C47   C     C_R   0.265802 0.110195 0.069437 0.551143
C48   C     C_R   0.601160 0.775322 0.080778 0.558604
C49   C     C_R   0.189605 0.788096 0.069846 0.545280
C50   C     C_R   0.240175 0.116497 0.908344 0.588283
C51   C     C_R   0.573993 0.776081 0.918295 0.542536
C52   C     C_R   0.099031 0.280950 0.585750 0.575496
C53   C     C_R   0.164657 0.787534 0.906351 0.548194
C54   C     C_R   0.671313 0.758501 0.138293 -0.006932
C55   C     C_R   0.709786 0.629406 0.342301 -0.028702
C56   C     C_R   0.702718 0.653509 0.165211 -0.147759
C57   C     C_R   0.710237 0.546060 0.249182 0.363500
C58   C     C_3   0.469647 0.247557 0.871302 -0.075303
C59   C     C_3   0.796435 0.224493 0.733819 -0.017714
C60   C     C_3   0.816901 0.892910 0.712442 -0.033087
C61   C     C_3   0.140445 0.891627 0.620018 -0.043918
C62   C     C_3   0.809323 0.845904 0.357985 -0.068513
C63   C     C_R   0.671220 0.851920 0.171057 0.360078
C64   C     C_R   0.684436 0.842974 0.230392 -0.087441
C65   C     C_1   0.235831 0.162902 0.123021 0.037199
Cr1   Cr    Cr6+3 0.189770 0.415650 0.511620 1.036088
Cr2   Cr    Cr6+3 0.930400 0.667320 0.496770 1.054036
Cr3   Cr    Cr6+3 0.879870 0.417010 0.491650 1.079741
Cr4   Cr    Cr6+3 0.149500 0.973980 0.985330 1.088673
Cr5   Cr    Cr6+3 0.457000 0.976510 0.994660 1.097950
Cr6   Cr    Cr6+3 0.411170 0.724270 0.995270 1.061672
F1    F     F_    0.834708 0.647734 0.757942 -0.641148
F2    F     F_    0.030772 0.107139 0.831030 -0.600954
F3    F     F_    0.932830 0.170452 0.616668 -0.618202
F4    F     F_    0.645253 0.954761 0.146182 -0.600934
F5    F     F_    0.408455 0.486222 0.773386 -0.681335
F6    F     F_    0.714074 0.455105 0.217357 -0.622631
H1    H     H_    0.705782 0.581049 0.139699 0.212178
H2    H     H_    0.712614 0.459792 0.325311 0.179543
H3    H     H_    0.154106 0.083671 0.249177 0.141206
H4    H     H_    0.182580 0.314699 0.240330 0.143415
H5    H     H_    0.326120 0.685600 0.264454 0.148892
H6    H     H_    0.482101 0.305798 0.839903 0.176894
H7    H     H_    0.503037 0.159595 0.855665 0.108860
H8    H     H_    0.533603 0.247580 0.911226 0.157641
H9    H     H_    0.808457 0.282384 0.768120 0.137664
H10   H     H_    0.724688 0.189551 0.745610 0.137656
H11   H     H_    0.756052 0.272258 0.692292 0.145929
H12   H     H_    0.050748 0.682187 0.235312 0.132279
H13   H     H_    0.778511 0.890801 0.753761 0.099121
H14   H     H_    0.832676 0.812530 0.689678 0.176769
H15   H     H_    0.741975 0.961488 0.685056 0.145593
H16   H     H_    0.216998 0.833844 0.595795 0.078300
H17   H     H_    0.185167 0.923628 0.657915 0.115484
H18   H     H_    0.081856 0.964981 0.591093 0.200576
H19   H     H_    0.893969 0.777594 0.342826 0.114997
H20   H     H_    0.834800 0.858210 0.403963 0.177632
H21   H     H_    0.794001 0.926396 0.335355 0.113474
H22   H     H_    0.512931 0.742475 0.723648 0.069222
H23   H     H_    0.302937 0.339642 0.772725 0.185805
H24   H     H_    0.241002 0.317574 0.675519 0.159271
H25   H     H_    0.300829 0.601512 0.851845 0.205835
H26   H     H_    0.957466 0.904598 0.831073 0.185241
H27   H     H_    0.358727 0.479797 0.663031 0.153160
H28   H     H_    0.673217 0.918700 0.253964 0.176120
O1    O     O_R   0.196340 0.303200 0.448500 -0.500754
O2    O     O_R   0.555390 0.700940 0.062700 -0.523050
O3    O     O_R   0.295020 0.731920 0.049950 -0.488248
O4    O     O_R   0.199310 0.519670 0.454880 -0.487597
O5    O     O_R   0.094290 0.884230 0.921550 -0.485032
O6    O     O_R   0.168980 0.069410 0.926940 -0.440990
O7    O     O_R   0.358400 0.089990 0.927950 -0.500199
O8    O     O_R   0.544850 0.873850 0.939920 -0.507502
O9    O     O_R   0.536020 0.701900 0.936430 -0.495053
O10   O     O_R   0.277070 0.732810 0.932890 -0.501895
O11   O     O_3   0.339220 0.891590 0.991750 -0.280060
O12   O     O_R   0.811960 0.658090 0.547150 -0.490407
O13   O     O_R   0.045660 0.691380 0.441680 -0.541980
O14   O     O_R   0.811930 0.659460 0.430950 -0.470729
O15   O     O_R   0.757900 0.507620 0.421760 -0.531185
O16   O     O_R   0.988630 0.322990 0.439840 -0.494687
O17   O     O_R   0.196380 0.301720 0.573850 -0.532255
O18   O     O_R   0.199350 0.518300 0.571080 -0.515593
O19   O     O_R   0.045700 0.689900 0.567030 -0.448761
O20   O     O_3   0.340095 0.285547 0.883927 -0.535620
O21   O     O_3   0.914221 0.134081 0.729178 -0.438285
O22   O     O_3   0.931448 0.916690 0.720657 -0.459425
O23   O     O_R   0.757930 0.506140 0.547110 -0.493555
O24   O     O_3   0.057867 0.839140 0.636546 -0.481685
O25   O     O_3   0.692555 0.824213 0.351808 -0.558104
O26   O     O_R   0.988670 0.321620 0.556040 -0.437228
O27   O     O_3   0.000020 0.499990 0.500010 -0.270119
O28   O     O_R   0.113660 0.883270 0.047820 -0.499848
O29   O     O_R   0.186930 0.068530 0.043990 -0.506665
O30   O     O_R   0.377770 0.089040 0.054220 -0.455558
O31   O     O_R   0.562800 0.872960 0.056970 -0.426944

loop_
_geom_bond_atom_site_label_1
_geom_bond_atom_site_label_2
_ccdc_geom_bond_type
C53   O5    A    
C24   C52   S    
C60   O22   S    
Cr4   O11   S    
Cr4   O29   S    
C62   H19   S    
C35   C53   S    
C41   C42   A    
C62   O25   S    
Cr2   O27   S    
C24   C27   A    
C16   O16   A    
Cr2   O19   S    
C28   O18   A    
C64   H28   S    
C39   C41   A    
C59   O21   S    
C48   C54   S    
C45   C57   A    
C51   O8    A    
C22   C32   A    
C19   C21   T    
C24   C26   A    
Cr6   O2    S    
C30   C31   A    
C11   C14   T    
C61   H16   S    
C31   F2    S    
C48   O2    A    
C27   C29   A    
C54   C63   A    
C40   O23   A    
C12   H2    S    
C29   C33   A    
C17   C20   S    
C56   H1    S    
C18   C19   S    
C37   C42   A    
Cr3   O27   S    
C9    C13   S    
C59   H11   S    
C38   H27   S    
C1    O4    A    
C62   H21   S    
C52   O17   A    
C6    C65   T    
C45   C56   A    
C41   C46   A    
Cr1   O17   S    
C4    O14   A    
C15   C51   S    
C29   C30   A    
C35   C43   A    
C9    C10   D    
Cr3   O23   S    
C61   H18   S    
C61   O24   S    
C22   C50   S    
C40   O12   A    
Cr6   O3    S    
Cr5   O31   S    
C2    C6    S    
Cr1   O1    S    
C3    H3    S    
C50   O7    A    
C44   H26   S    
C44   C46   A    
C49   O3    A    
Cr1   O27   S    
C60   H15   S    
Cr5   O8    S    
C15   C20   T    
C54   C56   A    
C51   O9    A    
C22   C31   A    
C57   F6    S    
C46   O22   S    
C9    H12   S    
C5    C7    T    
C61   H17   S    
C39   O24   S    
Cr5   O11   S    
C25   C26   A    
C10   H5    S    
Cr6   O9    S    
C32   O20   S    
Cr3   O26   S    
C25   O21   S    
C37   C38   A    
C58   H7    S    
C62   H20   S    
Cr4   O5    S    
C23   C34   A    
C34   C64   A    
C17   C18   D    
Cr6   O10   S    
C34   C45   A    
C35   C44   A    
Cr2   O12   S    
Cr5   O7    S    
C23   O25   S    
C58   O20   S    
C12   C57   A    
C7    C16   S    
C37   F5    S    
C60   H13   S    
C4    C55   S    
Cr5   O30   S    
C42   C43   A    
C58   H8    S    
C60   H14   S    
C25   C30   A    
C49   O28   A    
Cr4   O28   S    
C47   O30   A    
C52   O26   A    
C48   O31   A    
C36   C39   A    
C3    C5    S    
Cr3   O16   S    
C28   O19   A    
C23   C55   A    
C16   O1    A    
C33   H23   S    
C32   C33   A    
C36   C38   A    
C2    C3    D    
C43   H25   S    
C47   O29   A    
C58   H6    S    
Cr3   O15   S    
Cr4   O6    S    
C21   C40   S    
C63   F4    S    
C50   O6    A    
C26   F3    S    
C27   H24   S    
Cr6   O11   S    
C1    O13   A    
Cr1   O4    S    
Cr2   O13   S    
C59   H10   S    
C59   H9    S    
C12   C55   A    
C10   C11   S    
C63   C64   A    
C8    C13   T    
C28   C36   S    
C17   F1    S    
C18   H22   S    
Cr1   O18   S    
C4    O15   A    
C2    H4    S    
C1    C14   S    
Cr2   O14   S    
C8    C49   S    
C47   C65   S    
C53   O10   A    
