data_mof_unit_66896.cif
_audit_creation_date              2013-03-05T15:57:25-0500
_audit_creation_method            fapswitch 2.2
_symmetry_space_group_name_H-M    P1
_symmetry_Int_Tables_number       1
_space_group_crystal_system       triclinic
_cell_length_a                    17.91313
_cell_length_b                    20.141993
_cell_length_c                    8.622515
_cell_angle_alpha                 90.258359
_cell_angle_beta                  103.200433
_cell_angle_gamma                 90.423307
_cell_volume                      3028.70944561

loop_
_atom_site_label
_atom_site_type_symbol
_atom_site_description
_atom_site_fract_x
_atom_site_fract_y
_atom_site_fract_z
_atom_type_partial_charge
P1    P     P_3+3 0.834140 0.419320 0.003900 0.486775
P2    P     P_3+3 0.834140 0.580680 0.503900 0.517581
P3    P     P_3+3 0.334140 0.919320 0.003900 0.473982
P4    P     P_3+3 0.334140 0.080680 0.503900 0.569574
O1    O     O_2   0.841960 0.394640 0.833410 -0.346744
O2    O     O_2   0.841960 0.605360 0.333410 -0.325050
O3    O     O_2   0.341960 0.894640 0.833410 -0.390476
O4    O     O_2   0.341960 0.105360 0.333410 -0.371152
O5    O     O_3   0.907950 0.463080 0.102990 -0.420190
O6    O     O_3   0.907950 0.536920 0.602990 -0.300387
O7    O     O_3   0.407950 0.963080 0.102990 -0.437193
O8    O     O_3   0.407950 0.036920 0.602990 -0.343054
O9    O     O_3   0.972780 0.329600 0.629720 -0.354369
O10   O     O_3   0.972780 0.670400 0.129720 -0.355446
O11   O     O_3   0.472780 0.829600 0.629720 -0.423928
O12   O     O_3   0.472780 0.170400 0.129720 -0.376158
O13   O     O_2   0.852951 0.275404 0.707687 -0.264577
O14   O     O_2   0.854792 0.728485 0.210117 -0.256108
O15   O     O_2   0.361676 0.756414 0.686074 -0.245953
O16   O     O_2   0.352691 0.219018 0.209164 -0.274006
O17   O     O_3   0.767446 0.480856 0.940788 -0.564758
O18   O     O_3   0.762510 0.520933 0.442513 -0.520463
O19   O     O_3   0.265489 0.979384 0.955180 -0.558044
O20   O     O_3   0.260193 0.022084 0.456596 -0.522339
O21   O     O_3   0.940060 0.199248 0.592892 -0.499839
O22   O     O_3   0.947163 0.799792 0.092620 -0.524670
O23   O     O_3   0.469531 0.694644 0.587333 -0.454301
O24   O     O_3   0.446000 0.302351 0.129913 -0.515435
H1    H     H_    0.048841 0.231572 0.585047 0.128453
H2    H     H_    0.060642 0.781506 0.103725 0.127202
H3    H     H_    0.551507 0.746690 0.756178 0.174943
H4    H     H_    0.550571 0.345842 0.147344 0.127699
C1    C     C_3   0.027274 0.132947 0.491850 -1.339442
C2    C     C_3   0.018874 0.862449 0.947125 -1.092976
C3    C     C_3   0.603372 0.663486 0.682397 -0.961664
C4    C     C_3   0.514662 0.298213 0.923203 -1.113834
H5    H     H_    0.658793 0.683375 0.751300 0.245740
H6    H     H_    0.463500 0.324214 0.859186 0.274455
H7    H     H_    0.003677 0.098513 0.568373 0.421413
H8    H     H_    0.999505 0.901772 0.017667 0.330290
H9    H     H_    0.007196 0.114567 0.368418 0.319429
H10   H     H_    0.983567 0.867045 0.825648 0.290429
H11   H     H_    0.585207 0.627209 0.760256 0.299916
H12   H     H_    0.510122 0.246418 0.878321 0.266582
P5    P     P_3+3 0.165830 0.418670 0.685610 0.508167
P6    P     P_3+3 0.165830 0.581330 0.185610 0.433397
P7    P     P_3+3 0.665830 0.918670 0.685610 0.470943
P8    P     P_3+3 0.665830 0.081330 0.185610 0.467281
P9    P     P_3+3 0.101873 0.272494 0.114967 0.523326
P10   P     P_3+3 0.106508 0.722005 0.619825 0.560432
P11   P     P_3+3 0.605753 0.775783 0.114414 0.548407
P12   P     P_3+3 0.602229 0.227412 0.610666 0.511363
O25   O     O_2   0.157990 0.394030 0.856030 -0.360943
O26   O     O_2   0.157990 0.605970 0.356030 -0.287265
O27   O     O_2   0.657990 0.894030 0.856030 -0.350870
O28   O     O_2   0.657990 0.105970 0.356030 -0.312197
O29   O     O_3   0.027110 0.329490 0.059550 -0.378092
O30   O     O_3   0.027110 0.670510 0.559550 -0.262921
O31   O     O_3   0.527110 0.829490 0.059550 -0.422972
O32   O     O_3   0.527110 0.170510 0.559550 -0.283771
O33   O     O_2   0.162975 0.297677 0.030381 -0.248577
O34   O     O_2   0.170994 0.689794 0.556717 -0.272791
O35   O     O_2   0.665403 0.798186 0.022590 -0.359663
O36   O     O_2   0.664306 0.200301 0.531597 -0.239374
O37   O     O_3   0.246482 0.466296 0.764497 -0.568995
O38   O     O_3   0.248839 0.537947 0.256279 -0.581724
O39   O     O_3   0.743863 0.968647 0.764263 -0.531546
O40   O     O_3   0.745574 0.035897 0.273704 -0.577356
O41   O     O_3   0.077724 0.198690 0.005374 -0.523567
O42   O     O_3   0.091294 0.790832 0.495848 -0.521502
O43   O     O_3   0.581918 0.697240 0.027212 -0.734777
O44   O     O_3   0.579391 0.299731 0.495627 -0.582055
C5    C     C_3   0.006152 0.176910 0.023307 1.098418
C6    C     C_3   0.023589 0.821878 0.509209 1.115896
C7    C     C_3   0.509945 0.678794 0.048784 3.058500
C8    C     C_3   0.510257 0.325907 0.517250 1.097439
H13   H     H_    0.009713 0.169221 0.152358 0.140120
H14   H     H_    0.034121 0.844804 0.629374 -0.043685
H15   H     H_    0.510293 0.682019 0.179085 -2.205618
H16   H     H_    0.518577 0.340042 0.643840 -0.009396
C9    C     C_3   0.984983 0.111612 0.935208 -1.101652
C10   C     C_3   0.006242 0.874891 0.384013 -0.943172
C11   C     C_3   0.492673 0.607525 0.998768 -0.348086
C12   C     C_3   0.489413 0.388576 0.418490 -0.998328
H17   H     H_    0.434544 0.593981 0.007937 0.165728
H18   H     H_    0.434794 0.382854 0.329705 0.289650
H19   H     H_    0.954348 0.119721 0.810354 0.338395
H20   H     H_    0.946513 0.871329 0.315302 0.301247
H21   H     H_    0.035484 0.082976 0.932543 0.294428
H22   H     H_    0.041451 0.868056 0.296975 0.288388
H23   H     H_    0.495556 0.598490 0.873947 -0.817989
H24   H     H_    0.532785 0.401242 0.351973 0.256394
C13   C     C_3   0.257763 0.489109 0.150636 0.282842
C14   C     C_3   0.262864 0.512592 0.659061 0.331217
C15   C     C_3   0.767110 0.988163 0.178324 0.246726
C16   C     C_3   0.761300 0.012734 0.655366 0.355167
H25   H     H_    0.218599 0.492797 0.030790 0.131468
H26   H     H_    0.230369 0.505088 0.533933 0.116495
H27   H     H_    0.716703 0.962694 0.101843 0.129122
H28   H     H_    0.732721 0.000796 0.530285 0.098429
C17   C     C_3   0.338897 0.496039 0.126259 -1.064826
C18   C     C_3   0.348628 0.508030 0.665613 -0.723715
C19   C     C_3   0.818844 0.018255 0.078533 -0.753367
C20   C     C_3   0.848150 0.011525 0.673751 -0.902238
H29   H     H_    0.382616 0.485754 0.236680 0.316178
H30   H     H_    0.382198 0.513741 0.789984 0.258100
H31   H     H_    0.875311 0.034129 0.149873 0.239656
H32   H     H_    0.878302 0.019697 0.798528 0.264213
H33   H     H_    0.348991 0.465726 0.027420 0.308964
H34   H     H_    0.367978 0.546192 0.593412 0.240289
H35   H     H_    0.833421 0.980749 0.998719 0.218775
H36   H     H_    0.867937 0.049398 0.600622 0.271842
H37   H     H_    0.344880 0.547543 0.088787 0.309373
H38   H     H_    0.361542 0.459319 0.618722 0.257029
H39   H     H_    0.790214 0.061105 0.012534 0.220688
H40   H     H_    0.866041 0.962478 0.640218 0.326284
Ba1   Ba    Ba6+2 0.000000 0.447380 0.844850 1.126985
Ba2   Ba    Ba6+2 0.000000 0.552620 0.344850 1.293853
Ba3   Ba    Ba6+2 0.500000 0.947380 0.844850 1.564091
Ba4   Ba    Ba6+2 0.500000 0.052620 0.344850 1.620693
C21   C     C_3   0.720502 0.489327 0.047747 0.236144
C22   C     C_3   0.717978 0.515428 0.556672 0.191446
C23   C     C_3   0.243113 0.996355 0.095212 0.268374
C24   C     C_3   0.232804 0.011453 0.595386 0.317667
H41   H     H_    0.748390 0.526123 0.138464 0.164039
H42   H     H_    0.749617 0.484273 0.654398 0.174800
H43   H     H_    0.267561 0.045450 0.131229 0.162902
H44   H     H_    0.264452 0.969698 0.659431 0.150654
H45   H     H_    0.710377 0.443084 0.109919 0.089192
H46   H     H_    0.706617 0.563875 0.607785 0.069524
H47   H     H_    0.262173 0.962765 0.198656 0.143026
H48   H     H_    0.241273 0.054641 0.677847 0.059231
C25   C     C_3   0.644714 0.516335 0.951201 -0.611120
C26   C     C_3   0.642185 0.480556 0.478913 -0.702168
C27   C     C_3   0.157565 0.002088 0.052849 -0.574241
C28   C     C_3   0.147552 0.993731 0.552477 -0.636887
H49   H     H_    0.646963 0.519478 0.824651 0.263294
H50   H     H_    0.645483 0.461069 0.360376 0.225840
H51   H     H_    0.134266 0.972286 0.947640 0.232620
H52   H     H_    0.118152 0.019686 0.446055 0.248465
H53   H     H_    0.637600 0.568142 0.986023 0.146179
H54   H     H_    0.633755 0.437079 0.548401 0.198043
H55   H     H_    0.145435 0.054882 0.031318 0.216330
H56   H     H_    0.140682 0.940013 0.528727 0.218024
O45   O     O_3   0.092100 0.536880 0.086720 -0.448676
O46   O     O_3   0.092100 0.463120 0.586720 -0.381516
O47   O     O_3   0.592100 0.036880 0.086720 -0.433288
O48   O     O_3   0.592100 0.963120 0.586720 -0.412061
P13   P     P_3+3 0.897437 0.725209 0.073465 0.578572
P14   P     P_3+3 0.895132 0.275898 0.572023 0.612898
P15   P     P_3+3 0.399083 0.226262 0.080302 0.538489
P16   P     P_3+3 0.409802 0.764930 0.561388 0.562250
C29   C     C_3   0.000182 0.202148 0.513155 0.558796
C30   C     C_3   0.007722 0.795142 0.014798 0.455202
C31   C     C_3   0.545657 0.718207 0.643675 0.496731
C32   C     C_3   0.519676 0.300187 0.099791 0.516448
H57   H     H_    0.981877 0.223085 0.392287 -0.003510
H58   H     H_    0.998125 0.758390 0.915153 0.044120
H59   H     H_    0.562311 0.749443 0.551711 0.075596
H60   H     H_    0.555988 0.260084 0.164134 0.120717
H61   H     H_    0.611460 0.641270 0.570545 0.309980
H62   H     H_    0.564704 0.324615 0.900024 0.250644
H63   H     H_    0.090615 0.133561 0.521354 0.342025
H64   H     H_    0.079727 0.869505 0.946696 0.288197
H65   H     H_    0.532292 0.576671 0.081266 0.193027
H66   H     H_    0.478859 0.429068 0.497149 0.238344
H67   H     H_    0.947824 0.082310 0.995439 0.260293
H68   H     H_    0.014290 0.923907 0.440608 0.251848
C33   C     C_R   0.136178 0.679561 0.938320 -0.318880
C34   C     C_R   0.142770 0.321251 0.434484 -0.346683
C35   C     C_R   0.640895 0.177047 0.927764 -0.408416
C36   C     C_R   0.651459 0.828000 0.424491 -0.503972
C37   C     C_R   0.833438 0.339046 0.279376 0.291999
C38   C     C_R   0.844526 0.668434 0.768901 0.285932
C39   C     C_R   0.344689 0.834176 0.273851 0.295458
C40   C     C_R   0.346393 0.168150 0.772277 0.182139
C41   C     C_R   0.784193 0.227005 0.300746 -0.355778
C42   C     C_R   0.787354 0.775910 0.803060 -0.272716
C43   C     C_R   0.294716 0.721592 0.294958 -0.257514
C44   C     C_R   0.287143 0.274506 0.808046 -0.279538
C45   C     C_R   0.827911 0.282689 0.370113 0.069356
C46   C     C_R   0.833193 0.721022 0.867414 0.051461
C47   C     C_R   0.342478 0.775376 0.360946 0.094722
C48   C     C_R   0.335648 0.221164 0.871176 0.134870
C49   C     C_R   0.797034 0.342666 0.115645 -0.017732
C50   C     C_R   0.804274 0.662386 0.609400 0.020157
C51   C     C_R   0.301202 0.840949 0.116131 -0.017683
C52   C     C_R   0.304880 0.161717 0.612864 0.076244
C53   C     C_R   0.740108 0.288126 0.052370 -0.131813
C54   C     C_R   0.747953 0.716679 0.547929 -0.206198
C55   C     C_R   0.243421 0.786498 0.055126 -0.085992
C56   C     C_R   0.246607 0.214738 0.552971 -0.121525
C57   C     C_R   0.238825 0.725756 0.150106 -0.121585
C58   C     C_R   0.238814 0.273682 0.652753 -0.042898
C59   C     C_R   0.734092 0.228181 0.148848 -0.010237
C60   C     C_R   0.740397 0.775638 0.647374 -0.044830
C61   C     C_R   0.183171 0.669981 0.089917 0.223975
C62   C     C_R   0.185877 0.330097 0.589918 0.224662
C63   C     C_R   0.683217 0.169875 0.085321 0.170936
C64   C     C_R   0.689265 0.833090 0.584343 0.207808
C65   C     C_R   0.146775 0.732071 0.838882 0.063405
C66   C     C_R   0.152185 0.268596 0.333740 0.197716
C67   C     C_R   0.650247 0.231019 0.829361 0.132882
C68   C     C_R   0.656736 0.772806 0.328836 0.364152
C69   C     C_R   0.198071 0.784773 0.896045 -0.245065
C70   C     C_R   0.202885 0.216429 0.392284 -0.313918
C71   C     C_R   0.698211 0.285368 0.890645 -0.259958
C72   C     C_R   0.703848 0.718406 0.388513 -0.166880
H69   H     H_    0.094192 0.641577 0.889830 0.212182
H70   H     H_    0.103504 0.359699 0.386460 0.154182
H71   H     H_    0.600862 0.137957 0.877482 0.215530
H72   H     H_    0.619972 0.870313 0.369017 0.105618
C73   C     C_2   0.576904 0.473912 0.963087 1.186484
O49   O     O_2   0.564838 0.460728 0.092922 -0.705214
O50   O     O_R   0.525603 0.452352 0.825238 -0.746637
H73   H     H_    0.477504 0.432498 0.848666 0.338193
C74   C     C_2   0.571157 0.521413 0.467079 1.223822
O51   O     O_2   0.532184 0.537001 0.337590 -0.534940
O52   O     O_R   0.543504 0.532930 0.602286 -0.807856
H74   H     H_    0.493690 0.558097 0.579686 0.350158
C75   C     C_2   0.116170 0.975991 0.167759 1.020226
O53   O     O_2   0.141160 0.928570 0.250264 -0.653524
O54   O     O_R   0.043661 0.002162 0.163545 -0.869238
H75   H     H_    0.016205 0.983744 0.242813 0.340035
C76   C     C_2   0.105428 0.013335 0.675122 1.070850
O55   O     O_2   0.123042 0.064428 0.752009 -0.672667
O56   O     O_R   0.041710 0.975958 0.691824 -0.824086
H76   H     H_    0.014360 0.995024 0.771887 0.336496
C77   C     C_2   0.320709 0.657832 0.361027 1.167599
O57   O     O_2   0.300246 0.638245 0.477446 -0.580633
O58   O     O_R   0.379395 0.626390 0.308264 -0.711474
H77   H     H_    0.398629 0.585842 0.372669 0.347793
C78   C     C_2   0.306858 0.336252 0.892498 1.173444
O59   O     O_2   0.344911 0.377128 0.840331 -0.718793
O60   O     O_R   0.296845 0.341215 0.046207 -0.722700
H78   H     H_    0.338594 0.368434 0.115343 0.330402
C79   C     C_2   0.810253 0.163982 0.369110 1.200854
O61   O     O_2   0.795876 0.147698 0.493615 -0.576330
O62   O     O_R   0.861292 0.127879 0.304598 -0.868694
H79   H     H_    0.881962 0.088653 0.372895 0.344953
C80   C     C_2   0.811348 0.839074 0.878364 1.185419
O63   O     O_2   0.847038 0.877437 0.813756 -0.714611
O64   O     O_R   0.805701 0.850424 0.032739 -0.739456
H80   H     H_    0.849040 0.880509 0.086316 0.310330
C81   C     C_2   0.698371 0.339970 0.780211 1.135093
O65   O     O_2   0.667155 0.391382 0.800346 -0.692584
O66   O     O_R   0.725891 0.329928 0.642901 -0.732156
H81   H     H_    0.729764 0.371202 0.579449 0.318846
C82   C     C_2   0.697746 0.660778 0.284664 1.191183
O67   O     O_2   0.723863 0.661525 0.165514 -0.634989
O68   O     O_R   0.652380 0.608780 0.312520 -0.771185
H82   H     H_    0.652908 0.570015 0.239432 0.315501
C83   C     C_2   0.203240 0.835975 0.780064 1.083281
O69   O     O_2   0.173030 0.888941 0.788816 -0.704271
O70   O     O_R   0.235771 0.821630 0.651184 -0.716967
H83   H     H_    0.232656 0.859411 0.573118 0.322193
C84   C     C_2   0.199110 0.160240 0.285352 1.135642
O71   O     O_2   0.219667 0.164685 0.160212 -0.575783
O72   O     O_R   0.157688 0.106132 0.313185 -0.844512
H84   H     H_    0.108547 0.103762 0.229970 0.290040
O73   O     O_3   0.881854 0.389478 0.350993 -0.605271
C85   C     C_3   0.955917 0.376029 0.329002 0.238505
H85   H     H_    0.954600 0.367866 0.205532 0.122101
H86   H     H_    0.980770 0.329375 0.378254 -0.076175
H87   H     H_    0.994159 0.418124 0.373951 0.158283
O74   O     O_3   0.908357 0.630008 0.820633 -0.664659
C86   C     C_3   0.889763 0.577950 0.912544 0.142134
H88   H     H_    0.859939 0.538079 0.834523 0.137501
H89   H     H_    0.854189 0.592870 0.997088 0.104196
H90   H     H_    0.944577 0.558654 0.982490 0.213849
O75   O     O_3   0.393299 0.885386 0.341220 -0.605805
C87   C     C_3   0.469814 0.870072 0.336947 0.017496
H91   H     H_    0.489641 0.894518 0.241740 0.160338
H92   H     H_    0.483720 0.816474 0.336782 0.095539
H93   H     H_    0.506710 0.892684 0.441012 0.165904
O76   O     O_3   0.410260 0.129624 0.822547 -0.654091
C88   C     C_3   0.392437 0.077949 0.916573 0.126304
H94   H     H_    0.363167 0.037119 0.841222 0.108884
H95   H     H_    0.357022 0.093303 0.000760 0.085322
H96   H     H_    0.447457 0.059315 0.987059 0.203779
O77   O     O_3   0.950751 0.222918 0.954226 -0.528846
C89   C     C_3   0.891001 0.219934 0.032408 -0.140821
H97   H     H_    0.908321 0.244847 0.149385 0.051155
H98   H     H_    0.869824 0.168734 0.043286 0.169116
H99   H     H_    0.844250 0.246184 0.957674 0.204092
O78   O     O_3   0.961370 0.777029 0.477490 -0.585334
C90   C     C_3   0.904035 0.799223 0.550967 -0.120528
H100  H     H_    0.901563 0.854032 0.563874 0.170138
H101  H     H_    0.912353 0.775906 0.668767 0.090572
H102  H     H_    0.849208 0.784171 0.473818 0.240705
O79   O     O_3   0.455223 0.717287 0.947699 -0.782112
C91   C     C_3   0.396275 0.730399 0.023019 -0.046946
H103  H     H_    0.418963 0.755653 0.137157 0.218204
H104  H     H_    0.364982 0.684651 0.041285 0.136717
H105  H     H_    0.357244 0.764133 0.946521 0.182409
O80   O     O_3   0.450736 0.279671 0.466963 -0.567024
C92   C     C_3   0.388568 0.297107 0.531234 -0.182511
H106  H     H_    0.385944 0.349999 0.566361 0.155310
H107  H     H_    0.392895 0.267666 0.638448 0.121268
H108  H     H_    0.335749 0.287116 0.440196 0.246873
C93   C     C_2   0.240806 0.428183 0.231891 1.116964
O81   O     O_2   0.288253 0.404986 0.342092 -0.693075
O82   O     O_R   0.166056 0.405232 0.202626 -0.787085
H109  H     H_    0.130008 0.426695 0.110250 0.344844
C94   C     C_2   0.241912 0.576559 0.722300 1.109628
O83   O     O_2   0.175504 0.583807 0.731073 -0.626537
O84   O     O_R   0.297225 0.624952 0.782107 -0.785768
H110  H     H_    0.273935 0.666109 0.817819 0.322923
C95   C     C_2   0.812900 0.942111 0.297266 0.940051
O85   O     O_2   0.874925 0.960498 0.376179 -0.673538
O86   O     O_R   0.784974 0.879988 0.324280 -0.800982
H111  H     H_    0.735337 0.870143 0.245651 0.313252
C96   C     C_2   0.735792 0.077810 0.703168 1.094946
O87   O     O_2   0.667319 0.087010 0.686600 -0.614041
O88   O     O_R   0.789614 0.125361 0.776964 -0.793973
H112  H     H_    0.766120 0.169133 0.793622 0.328922

loop_
_geom_bond_atom_site_label_1
_geom_bond_atom_site_label_2
_geom_bond_distance
_ccdc_geom_bond_type
C25   H49   1.103165 S    
C17   H37   1.099665 S    
O54   H75   0.999897 S    
C2    H10   1.097669 S    
C28   H52   1.086458 S    
P15   C48   1.901067 S    
P8    Ba4   3.590032 S    
O27   Ba3   3.015744 S    
C93   O81   1.218440 D    
C27   H51   1.084402 S    
C89   H97   1.102551 S    
C41   C79   1.437574 S    
C12   H18   1.100944 S    
C30   H58   1.113851 S    
C15   H27   1.109733 S    
C6    O78   1.405959 S    
O75   C87   1.415754 S    
C20   H40   1.098479 S    
O79   C91   1.386491 S    
C87   H91   1.084765 S    
O42   C6    1.396275 S    
C90   H101  1.100321 S    
P4    O8    1.662258 S    
C10   H20   1.099958 S    
P9    O41   1.755312 S    
C81   O65   1.210960 D    
P11   O43   1.755868 S    
C5    C9    1.517478 S    
C40   C52   1.410423 A    
P14   C45   1.883287 S    
C73   O50   1.391557 S    
O40   C15   1.375808 S    
P8    C63   2.038203 S    
O3    Ba3   2.996628 S    
C13   C17   1.520764 S    
Ba3   O48   3.074397 S    
Ba1   O46   3.074397 S    
C50   C54   1.507314 A    
O50   H73   1.009063 S    
C77   O57   1.211268 D    
C18   H38   1.105498 S    
H3    C31   1.108511 S    
O56   H76   1.009423 S    
C9    H67   1.102712 S    
C42   C46   1.419587 A    
O80   C92   1.398750 S    
Ba4   O48   2.971100 S    
C16   C20   1.527759 S    
P13   C46   1.884530 S    
C4    H12   1.107036 S    
P11   C68   1.867234 S    
C39   C47   1.410359 A    
C43   C57   1.414362 A    
C40   C48   1.405091 A    
C41   C59   1.408966 A    
O22   P13   1.728685 S    
P3    C51   2.009271 S    
P1    C49   2.011163 S    
C26   C74   1.504456 S    
C11   H23   1.103588 S    
O16   P15   1.538787 D    
P12   C67   1.886286 S    
P4    C52   2.011317 S    
C91   H104  1.105496 S    
P5    C62   2.030776 S    
C87   H93   1.081852 S    
O10   P13   1.733023 S    
C5    O77   1.395360 S    
O12   P15   1.720383 S    
P10   O42   1.739190 S    
C34   C66   1.403238 A    
P3    O7    1.647749 S    
H2    C30   1.111645 S    
C14   C18   1.527864 S    
C28   H56   1.101054 S    
C5    H13   1.111550 S    
C19   H31   1.101369 S    
C80   O64   1.376014 S    
C17   H33   1.095036 S    
C44   C48   1.417267 A    
O13   P14   1.530691 D    
O23   P16   1.764924 S    
C38   C46   1.399471 A    
C21   H41   1.105229 S    
C37   C49   1.415916 A    
C82   O67   1.222356 D    
C3    H61   1.101021 S    
Ba1   O45   2.944780 S    
C1    H63   1.104630 S    
C3    C31   1.502552 S    
C2    H64   1.099107 S    
O12   Ba4   2.991697 S    
O73   C85   1.410392 S    
C86   H90   1.102804 S    
C1    C29   1.503486 S    
C96   O88   1.397296 S    
P9    O29   1.753625 S    
C24   H48   1.108373 S    
C80   O63   1.214657 D    
C22   C26   1.533670 S    
P12   O32   1.737907 S    
H4    C32   1.097946 S    
C94   O84   1.394856 S    
C43   C77   1.443944 S    
C3    H11   1.091405 S    
C78   O59   1.216520 D    
C42   C80   1.442902 S    
C27   H55   1.095093 S    
P5    O25   1.589060 D    
C88   H94   1.098441 S    
C35   C67   1.414329 A    
O5    Ba2   2.944867 S    
C92   H107  1.088660 S    
O7    Ba4   2.944867 S    
C71   C81   1.458398 S    
C15   C19   1.525512 S    
O15   P16   1.533374 D    
C59   C63   1.503384 A    
C95   O86   1.384480 S    
C27   C75   1.463675 S    
C31   H59   1.106072 S    
C68   C72   1.413521 A    
C32   H60   1.109210 S    
C20   H36   1.098905 S    
O19   C23   1.398112 S    
C74   O51   1.217777 D    
C42   C60   1.412007 A    
C23   C27   1.497487 S    
C56   C58   1.489095 A    
P2    O18   1.742427 S    
C75   O53   1.218929 D    
O8    Ba3   2.971188 S    
C23   H43   1.093092 S    
C34   H70   1.069507 S    
P1    Ba1   3.587557 S    
P16   C47   1.881709 S    
O41   C5    1.393888 S    
P3    Ba3   3.587557 S    
O38   C13   1.372482 S    
P5    O37   1.730597 S    
C13   H25   1.111719 S    
C84   O71   1.220566 D    
C69   C83   1.456859 S    
C33   C61   1.398795 A    
P5    Ba1   3.595104 S    
Ba2   O45   3.074841 S    
C8    H16   1.103162 S    
C86   H88   1.098892 S    
C49   C53   1.506073 A    
C85   H85   1.071402 S    
C89   H98   1.107946 S    
C52   C56   1.507342 A    
C88   H95   1.111852 S    
O6    Ba1   2.971188 S    
Ba1   Ba2   4.812760 S    
C58   C62   1.506908 A    
C7    H15   1.123700 S    
C41   C45   1.412811 A    
C16   H28   1.107595 S    
C76   O56   1.397726 S    
O11   Ba3   2.972658 S    
C36   C64   1.392947 A    
C39   C51   1.412191 A    
O76   C88   1.401253 S    
C89   H99   1.076702 S    
C87   H92   1.109788 S    
C88   H96   1.102530 S    
C65   C69   1.410014 A    
C12   H24   1.095237 S    
O72   H84   1.001293 S    
C28   C76   1.486167 S    
O62   H79   1.008499 S    
C8    C12   1.526207 S    
C85   H87   1.097980 S    
P2    Ba2   3.592521 S    
O68   H82   1.002641 S    
C10   H68   1.093182 S    
C73   O49   1.217728 D    
C11   H65   1.084354 S    
P1    O1    1.586279 D    
H1    C29   1.112442 S    
O9    P14   1.734663 S    
P6    O38   1.719323 S    
P3    O3    1.586279 D    
P4    O20   1.743478 S    
C14   H26   1.111818 S    
Ba3   O47   2.944780 S    
O64   H80   1.005009 S    
P8    O47   1.653572 S    
P6    Ba2   3.590032 S    
C19   H35   1.092161 S    
C55   C69   1.425788 A    
C36   C68   1.397848 A    
C15   C95   1.490184 S    
P9    C66   1.898091 S    
O60   H78   1.001304 S    
O18   C22   1.405651 S    
C60   C64   1.505799 A    
C24   H44   1.096322 S    
C9    H21   1.081055 S    
C2    C30   1.508206 S    
C37   C45   1.397212 A    
O88   H112  1.003495 S    
C4    H62   1.096377 S    
C6    C10   1.504715 S    
O11   P16   1.727522 S    
C93   O82   1.380506 S    
O23   C31   1.416540 S    
P9    O33   1.531984 D    
C24   C28   1.526151 S    
O21   C29   1.404847 S    
O84   H110  1.008746 S    
P10   O30   1.733352 S    
P1    O5    1.647749 S    
P12   O36   1.533429 D    
O52   H74   1.009611 S    
P6    C61   2.021848 S    
C19   H39   1.099750 S    
C55   C57   1.487521 A    
C26   H54   1.092138 S    
C53   C59   1.486455 A    
C90   H100  1.111270 S    
P12   O44   1.763413 S    
P6    O26   1.585566 D    
C90   H102  1.092885 S    
P11   O35   1.534504 D    
P8    O40   1.727698 S    
C9    H19   1.104477 S    
C11   H17   1.094752 S    
C70   C84   1.447958 S    
C44   C78   1.438621 S    
C81   O66   1.396981 S    
C18   H34   1.094300 S    
C20   H32   1.099117 S    
C4    C32   1.504990 S    
O29   Ba1   2.991237 S    
P10   C65   1.871145 S    
O31   Ba3   2.991237 S    
C23   H47   1.113388 S    
C56   C70   1.428096 A    
C21   H45   1.110969 S    
O9    Ba1   2.972658 S    
Ba3   Ba4   4.812760 S    
C25   H53   1.100875 S    
C10   H22   1.093845 S    
C1    H9    1.103993 S    
C4    H6    1.094309 S    
C77   O58   1.392414 S    
C86   H89   1.113908 S    
C7    C11   1.506422 S    
C96   O87   1.217693 D    
C83   O69   1.209593 D    
C53   C71   1.425346 A    
O32   Ba4   2.972227 S    
C72   C82   1.450908 S    
C29   H57   1.105194 S    
C33   C65   1.403335 A    
Ba4   O47   3.074841 S    
C94   O83   1.218901 D    
C6    H14   1.107926 S    
O86   H111  1.005196 S    
P1    O17   1.729372 S    
C92   H106  1.110513 S    
P3    O19   1.715527 S    
O20   C24   1.409828 S    
P4    O4    1.589782 D    
C95   O85   1.216966 D    
C1    H7    1.105563 S    
C2    H8    1.101701 S    
C13   C93   1.479362 S    
C91   H103  1.096463 S    
C3    H5    1.105277 S    
C8    O80   1.400946 S    
O78   C90   1.399103 S    
O25   Ba1   3.015744 S    
P6    O45   1.653572 S    
O30   Ba2   2.972227 S    
C35   C63   1.405081 A    
O82   H109  1.005296 S    
O10   Ba2   2.991697 S    
C14   C94   1.480688 S    
O14   P13   1.545109 D    
C51   C55   1.510043 A    
C54   C60   1.486628 A    
C38   O74   1.374282 S    
P7    Ba3   3.595104 S    
O28   Ba4   3.000494 S    
P2    O2    1.589782 D    
C40   O76   1.374251 S    
P7    O39   1.722563 S    
C43   C47   1.409866 A    
C17   H29   1.107411 S    
C82   O68   1.376174 S    
P5    O46   1.668237 S    
Ba2   O46   2.971100 S    
C7    O79   1.395997 S    
C83   O70   1.397620 S    
C85   H86   1.088585 S    
O77   C89   1.390168 S    
C67   C71   1.410431 A    
O1    Ba1   2.996628 S    
O21   P14   1.737356 S    
C84   O72   1.366619 S    
C22   H42   1.103164 S    
P2    C50   2.010945 S    
C35   H71   1.081078 S    
C33   H69   1.082036 S    
C76   O55   1.221338 D    
O44   C8    1.400213 S    
C78   O60   1.380723 S    
O24   P15   1.746137 S    
C54   C72   1.421149 A    
O37   C14   1.381165 S    
C79   O62   1.382952 S    
O39   C16   1.380270 S    
P10   O34   1.531784 D    
C92   H108  1.099302 S    
P7    C64   2.018535 S    
O22   C30   1.403290 S    
P11   O31   1.761067 S    
O70   H83   1.011630 S    
P2    O6    1.662258 S    
O26   Ba2   3.000494 S    
C39   O75   1.381989 S    
C34   C62   1.395489 A    
C44   C58   1.418751 A    
O4    Ba4   3.011734 S    
P7    O27   1.589060 D    
P8    O28   1.585566 D    
P7    O48   1.668237 S    
C37   O73   1.379162 S    
C91   H105  1.089048 S    
C36   H72   1.077440 S    
C26   H50   1.107483 S    
O66   H81   1.007904 S    
C74   O52   1.386138 S    
C25   C73   1.502799 S    
C75   O54   1.398204 S    
C38   C50   1.403736 A    
O43   C7    1.392091 S    
C57   C61   1.505721 A    
C22   H46   1.108101 S    
C18   H30   1.108250 S    
O17   C21   1.393444 S    
C12   H66   1.103088 S    
O74   C86   1.400497 S    
C66   C70   1.411812 A    
O58   H77   1.007473 S    
O24   C32   1.403015 S    
P4    Ba4   3.592521 S    
C21   C25   1.526712 S    
C79   O61   1.206064 D    
C16   C96   1.478769 S    
O2    Ba2   3.011734 S    
