data_mof_unit_52799.cif
_audit_creation_date              2012-12-10T18:04:50-0500
_audit_creation_method            fapswitch 2.2
_symmetry_space_group_name_H-M    P1
_symmetry_Int_Tables_number       1
_space_group_crystal_system       triclinic
_cell_length_a                    10.841822
_cell_length_b                    9.691118
_cell_length_c                    17.71018
_cell_angle_alpha                 90.000034
_cell_angle_beta                  100.811033
_cell_angle_gamma                 90.0
_cell_volume                      1827.77055044

loop_
_atom_site_label
_atom_site_type_symbol
_atom_type_description
_atom_site_fract_x
_atom_site_fract_y
_atom_site_fract_z
_atom_type_partial_charge
C1    C     C_R   0.262847 0.500214 0.501411 0.846307
C2    C     C_R   0.737153 0.500214 0.498588 0.846301
C3    C     C_1   0.498972 0.500484 0.966011 -0.034642
C4    C     C_1   0.501024 0.500485 0.033988 -0.034642
C5    C     C_R   0.064285 0.376360 0.502155 -0.128926
C6    C     C_R   0.935924 0.626652 0.499531 -0.128966
C7    C     C_R   0.935715 0.376360 0.497845 -0.128938
C8    C     C_R   0.064076 0.626652 0.500469 -0.128975
C9    C     C_R   0.502320 0.499935 0.356004 0.839734
C10   C     C_R   0.497680 0.499935 0.643996 0.839728
C11   C     C_R   0.871115 0.501162 0.498231 -0.075341
C12   C     C_R   0.128885 0.501162 0.501768 -0.075340
C13   C     C_R   0.469002 0.621265 0.842535 -0.129181
C14   C     C_R   0.477538 0.378140 0.151257 -0.142039
C15   C     C_R   0.530994 0.621265 0.157464 -0.129182
C16   C     C_R   0.522460 0.378141 0.848743 -0.142040
C17   C     C_R   0.468128 0.621065 0.763697 -0.135423
C18   C     C_R   0.478373 0.377715 0.230066 -0.145665
C19   C     C_R   0.531870 0.621065 0.236303 -0.135417
C20   C     C_R   0.521627 0.377715 0.769934 -0.145656
C21   C     C_R   0.495763 0.499601 0.726836 -0.077538
C22   C     C_R   0.504236 0.499601 0.273164 -0.077533
C23   C     C_R   0.412570 0.075379 0.446556 0.310797
C24   C     C_R   0.586221 0.924352 0.554297 0.309225
C25   C     C_R   0.587430 0.075379 0.553444 0.310797
C26   C     C_R   0.413779 0.924352 0.445703 0.309225
C27   C     C_R   0.496751 0.499999 0.885045 0.125563
C28   C     C_R   0.503245 0.499999 0.114954 0.125563
Cu1   Cu    Cu3+1 0.500000 0.640660 0.500000 1.093368
Cu2   Cu    Cu3+1 0.500000 0.359340 0.500000 1.093292
H1    H     H_    0.444919 0.715549 0.731599 0.186330
H2    H     H_    0.457846 0.282366 0.257008 0.207373
H3    H     H_    0.555079 0.715550 0.268401 0.186329
H4    H     H_    0.542155 0.282367 0.742992 0.207374
H5    H     H_    0.112727 0.278629 0.505813 0.209386
H6    H     H_    0.887918 0.724673 0.499559 0.190734
H7    H     H_    0.887273 0.278629 0.494187 0.209387
H8    H     H_    0.112082 0.724673 0.500441 0.190734
N1    N     N_R   0.500000 0.852070 0.500000 -0.321301
N2    N     N_R   0.500000 0.147930 0.500000 -0.318699
O1    O     O_R   0.319640 0.618740 0.499990 -0.538663
O2    O     O_R   0.680360 0.381260 0.500010 -0.531500
O3    O     O_R   0.680360 0.618740 0.500010 -0.538662
O4    O     O_R   0.319640 0.381260 0.499990 -0.531496
O5    O     O_R   0.500000 0.618830 0.391250 -0.525722
O6    O     O_R   0.500000 0.381170 0.608750 -0.533629
O7    O     O_R   0.500000 0.618830 0.608750 -0.525726
O8    O     O_R   0.500000 0.381170 0.391250 -0.533631
H9    H     H_    0.448083 0.715791 0.870298 0.147672
H10   H     H_    0.456495 0.283689 0.118631 0.152292
H11   H     H_    0.551913 0.715792 0.129701 0.147671
H12   H     H_    0.543503 0.283690 0.881369 0.152292
S1    S     S_3+6 0.287135 0.163766 0.379214 0.075519
O9    O     O_2   0.281952 0.108050 0.299643 -0.229310
O10   O     O_2   0.166526 0.129771 0.405192 -0.291816
O11   O     O_3   0.280467 0.334358 0.364403 -0.517954
H13   H     H_    0.198285 0.351645 0.330479 0.355835
S2    S     S_3+6 0.691295 0.834926 0.633610 0.088919
O12   O     O_2   0.821465 0.893264 0.645207 -0.208121
O13   O     O_2   0.637724 0.861586 0.704617 -0.290293
O14   O     O_3   0.720744 0.665378 0.634477 -0.510123
H14   H     H_    0.766906 0.644628 0.687025 0.355844
S3    S     S_3+6 0.712865 0.163766 0.620786 0.075520
O15   O     O_2   0.718048 0.108050 0.700357 -0.229299
O16   O     O_2   0.833473 0.129770 0.594807 -0.291826
O17   O     O_3   0.719533 0.334358 0.635597 -0.517954
H15   H     H_    0.801725 0.351648 0.669509 0.355836
S4    S     S_3+6 0.308704 0.834925 0.366390 0.088918
O18   O     O_2   0.178535 0.893264 0.354794 -0.208132
O19   O     O_2   0.362274 0.861585 0.295382 -0.290284
O20   O     O_3   0.279256 0.665378 0.365523 -0.510124
H16   H     H_    0.233074 0.644632 0.312979 0.355843

loop_
_geom_bond_atom_site_label_1
_geom_bond_atom_site_label_2
_ccdc_geom_bond_type
C10   O6    A    
C15   C19   A    
S3    O16   D    
C9    O5    A    
Cu1   Cu2   S    
C15   H11   S    
C14   C18   A    
C1    O4    A    
C13   C17   A    
C2    O3    A    
C8    C12   A    
C26   S4    S    
C20   C21   A    
Cu1   N1    S    
S2    O14   S    
C3    C27   S    
O17   H15   S    
C7    H7    S    
S3    O17   S    
C20   H4    S    
O20   H16   S    
C25   N2    A    
Cu1   O1    S    
S1    O9    D    
Cu1   O3    S    
C7    C11   A    
Cu2   O4    S    
C15   C28   A    
C14   H10   S    
C1    C12   S    
C8    H8    S    
C2    O2    A    
S4    O20   S    
C13   H9    S    
C2    C11   S    
C5    H5    S    
C1    O1    A    
C16   C20   A    
C4    C28   S    
Cu1   O7    S    
C23   S1    S    
Cu2   O2    S    
S1    O10   D    
C10   C21   S    
C19   H3    S    
O14   H14   S    
C17   H1    S    
C17   C21   A    
C26   N1    A    
S1    O11   S    
Cu1   O5    S    
C18   H2    S    
O11   H13   S    
S2    O13   D    
S3    O15   D    
C16   H12   S    
C6    C11   A    
C24   N1    A    
C24   C25   A    
C9    O8    A    
C24   S2    S    
C19   C22   A    
C16   C27   A    
C23   C26   A    
Cu2   O8    S    
C10   O7    A    
C5    C7    A    
S4    O19   D    
Cu2   N2    S    
C9    C22   S    
C25   S3    S    
C6    C8    A    
C14   C28   A    
S2    O12   D    
C18   C22   A    
Cu2   O6    S    
C13   C27   A    
C3    C4    T    
C23   N2    A    
C6    H6    S    
S4    O18   D    
C5    C12   A    
