data_mof_unit_18857.cif
_audit_creation_date              2012-12-10T19:18:40-0500
_audit_creation_method            fapswitch 2.2
_symmetry_space_group_name_H-M    P1
_symmetry_Int_Tables_number       1
_space_group_crystal_system       triclinic
_cell_length_a                    15.753533
_cell_length_b                    15.011108
_cell_length_c                    10.510906
_cell_angle_alpha                 90.300047
_cell_angle_beta                  89.421753
_cell_angle_gamma                 89.944139
_cell_volume                      2485.43589614

loop_
_atom_site_label
_atom_site_type_symbol
_atom_type_description
_atom_site_fract_x
_atom_site_fract_y
_atom_site_fract_z
_atom_type_partial_charge
C1    C     C_R   0.338013 0.500023 0.500715 0.896812
C2    C     C_3   0.954455 0.535408 0.353889 -0.029659
C3    C     C_3   0.053690 0.541978 0.367903 -0.692135
C4    C     C_1   0.825968 0.500869 0.490316 0.068228
C5    C     C_1   0.174114 0.500147 0.498375 -0.001264
C6    C     C_R   0.500989 0.499756 0.257041 0.930135
C7    C     C_1   0.249289 0.500046 0.499916 -0.154847
C8    C     C_3   0.421528 0.051940 0.445005 -0.447495
C9    C     C_3   0.415776 0.948774 0.462986 -0.365879
C10   C     C_3   0.500246 0.054244 0.655811 -0.191469
C11   C     C_3   0.518999 0.946229 0.651210 -0.233925
C12   C     C_3   0.500514 0.499249 0.122581 -0.112615
C13   C     C_3   0.502859 0.090619 0.511290 0.030038
C14   C     C_3   0.502218 0.909769 0.509250 -0.008060
C15   C     C_3   0.570261 0.947563 0.412010 -0.272735
C16   C     C_3   0.578788 0.052069 0.427049 -0.254682
C17   C     C_1   0.499748 0.808987 0.501356 0.181955
C18   C     C_1   0.500062 0.191057 0.502197 0.206300
C19   C     C_R   0.662130 0.499968 0.499647 0.895753
C20   C     C_R   0.499085 0.500290 0.743192 0.924107
C21   C     C_3   0.429461 0.542595 0.045030 -0.353504
C22   C     C_3   0.501021 0.414316 0.039916 -0.259184
C23   C     C_3   0.046980 0.559175 0.606287 0.387176
C24   C     C_3   0.431318 0.458469 0.960965 0.568956
C25   C     C_3   0.499334 0.501046 0.877625 -0.112643
C26   C     C_3   0.498687 0.586117 0.960175 -0.277472
C27   C     C_3   0.570385 0.457906 0.955309 -0.320983
C28   C     C_3   0.568464 0.541991 0.039241 0.561549
C29   C     C_3   0.302619 0.393759 0.007737 0.091722
C30   C     C_3   0.231719 0.336205 0.955131 -0.772471
C31   C     C_2   0.921096 0.626601 0.313254 0.895499
C32   C     C_2   0.928773 0.469799 0.248733 0.872529
C33   C     C_2   0.557766 0.103647 0.750390 1.048674
C34   C     C_3   0.048165 0.403532 0.503097 0.403855
C35   C     C_2   0.610339 0.918882 0.685941 0.962859
C36   C     C_2   0.411635 0.080966 0.710631 0.858817
C37   C     C_2   0.464874 0.897920 0.752422 0.972576
C38   C     C_2   0.667696 0.086832 0.452149 1.013837
C39   C     C_2   0.651838 0.893069 0.395181 0.972653
C40   C     C_3   0.686389 0.626415 0.993022 0.090528
C41   C     C_3   0.767821 0.664775 0.046739 -0.651833
C42   C     C_3   0.074757 0.590821 0.819199 0.068839
C43   C     C_3   0.075661 0.548602 0.950350 -0.716105
C44   C     C_3   0.083390 0.265438 0.587621 0.089184
C45   C     C_3   0.950192 0.406782 0.514279 -0.497803
C46   C     C_3   0.121518 0.219198 0.701915 -0.765624
C47   C     C_3   0.949057 0.563194 0.596594 -0.488881
C48   C     C_1   0.750805 0.500045 0.494929 -0.084967
C49   C     C_3   0.082669 0.500513 0.495423 0.161919
C50   C     C_3   0.917564 0.502486 0.486581 0.088461
H1    H     H_    0.363592 0.932200 0.530218 0.250470
H2    H     H_    0.627658 0.425029 0.914245 0.163047
H3    H     H_    0.919423 0.541746 0.688145 0.201078
H4    H     H_    0.929640 0.386474 0.611639 0.219071
H5    H     H_    0.066037 0.369956 0.411408 0.079803
H6    H     H_    0.073053 0.627945 0.593376 0.044448
H7    H     H_    0.922277 0.357423 0.447359 0.161306
H8    H     H_    0.929115 0.633370 0.582508 0.192123
H9    H     H_    0.074913 0.612798 0.366333 0.203159
H10   H     H_    0.088313 0.510398 0.286716 0.232225
H11   H     H_    0.273753 0.455884 0.046904 0.128548
H12   H     H_    0.362239 0.084076 0.480630 0.198740
H13   H     H_    0.333678 0.356359 0.085917 0.137363
H14   H     H_    0.257465 0.270544 0.924928 0.247163
H15   H     H_    0.182390 0.325544 0.029713 0.216879
H16   H     H_    0.202217 0.369350 0.872304 0.294123
H17   H     H_    0.840317 0.729336 0.342396 0.353983
H18   H     H_    0.833485 0.417842 0.144792 0.351208
H19   H     H_    0.613922 0.218548 0.805036 0.346757
H20   H     H_    0.731835 0.952759 0.722983 0.371761
H21   H     H_    0.334761 0.181429 0.768840 0.342699
H22   H     H_    0.440017 0.880010 0.939487 0.346639
H23   H     H_    0.567481 0.079244 0.329968 0.118622
H24   H     H_    0.747395 0.158592 0.560875 0.347441
H25   H     H_    0.770268 0.863008 0.452683 0.351086
H26   H     H_    0.649055 0.682271 0.952483 0.174202
H27   H     H_    0.703843 0.578427 0.915824 0.120779
H28   H     H_    0.808070 0.610238 0.083523 0.277039
H29   H     H_    0.803506 0.700276 0.970798 0.198749
H30   H     H_    0.752923 0.712336 0.125142 0.284038
H31   H     H_    0.018959 0.636441 0.815594 0.135919
H32   H     H_    0.133924 0.630248 0.805995 0.157729
H33   H     H_    0.132155 0.505162 0.959714 0.247030
H34   H     H_    0.540507 0.938679 0.316673 0.166562
H35   H     H_    0.077997 0.601311 0.024749 0.227090
H36   H     H_    0.017356 0.508247 0.964824 0.278826
H37   H     H_    0.122732 0.247699 0.502548 0.136768
H38   H     H_    0.017555 0.240313 0.574758 0.145958
H39   H     H_    0.085539 0.237287 0.789745 0.265696
H40   H     H_    0.118999 0.145848 0.688255 0.217800
H41   H     H_    0.188792 0.239564 0.712226 0.252384
H42   H     H_    0.423029 0.067087 0.341424 0.185285
H43   H     H_    0.397717 0.917684 0.370768 0.171203
H44   H     H_    0.372808 0.576274 0.086663 0.157943
H45   H     H_    0.500629 0.344940 0.076042 0.178243
H46   H     H_    0.497997 0.655337 0.923454 0.189477
N1    N     N_1   0.498630 0.731150 0.497460 -0.058412
N2    N     N_1   0.498630 0.268850 0.497460 -0.055345
O1    O     O_R   0.377210 0.574260 0.500130 -0.618477
O2    O     O_2   0.950526 0.661436 0.217448 -0.650555
O3    O     O_R   0.856514 0.670200 0.381474 -0.799426
O4    O     O_2   0.981278 0.422388 0.194807 -0.659253
O5    O     O_R   0.843300 0.463124 0.215000 -0.805347
O6    O     O_2   0.574028 0.069324 0.852696 -0.574390
O7    O     O_R   0.580205 0.192838 0.731856 -0.736420
O8    O     O_2   0.626600 0.839955 0.702681 -0.632744
O9    O     O_R   0.676145 0.980803 0.696756 -0.733333
O10   O     O_2   0.354374 0.027082 0.725924 -0.619482
O11   O     O_R   0.394842 0.170956 0.736914 -0.776631
O12   O     O_R   0.377210 0.425740 0.500130 -0.605935
O13   O     O_2   0.409711 0.844604 0.722727 -0.622767
O14   O     O_R   0.478962 0.915412 0.881410 -0.753166
O15   O     O_2   0.723526 0.073441 0.372517 -0.600585
O16   O     O_R   0.685925 0.138753 0.558536 -0.751286
O17   O     O_2   0.656870 0.839188 0.307592 -0.618749
O18   O     O_R   0.720977 0.903590 0.475883 -0.754658
O19   O     O_3   0.640202 0.584265 0.091363 -0.584693
O20   O     O_3   0.070795 0.523058 0.725407 -0.546489
O21   O     O_3   0.083422 0.358527 0.608774 -0.551164
O22   O     O_R   0.500050 0.574220 0.314080 -0.592597
O23   O     O_R   0.500050 0.425780 0.314080 -0.647668
O24   O     O_R   0.622930 0.574200 0.500140 -0.582526
O25   O     O_R   0.622930 0.425800 0.500140 -0.611832
O26   O     O_R   0.500090 0.574240 0.686180 -0.625218
O27   O     O_R   0.500090 0.425760 0.686180 -0.566035
O28   O     O_3   0.360735 0.413973 0.909046 -0.586012
Zn1   Zn    Zn3+2 0.500090 0.599130 0.500180 1.043720
Zn2   Zn    Zn3+2 0.500090 0.400870 0.500180 1.032283

loop_
_geom_bond_atom_site_label_1
_geom_bond_atom_site_label_2
_ccdc_geom_bond_type
C21   C26   S    
C29   H13   S    
C19   O24   A    
C8    C13   S    
C30   H14   S    
C36   O10   D    
C33   O6    D    
C43   H33   S    
C22   H45   S    
C9    H1    S    
H18   O5    S    
N1    Zn1   S    
C1    O1    A    
C23   O20   S    
H22   O14   S    
C3    C49   S    
O22   Zn1   S    
C23   H6    S    
C46   H39   S    
C19   O25   A    
C13   C18   S    
C12   C28   S    
C31   O3    S    
H20   O9    S    
C6    C12   S    
C38   O16   S    
C11   C14   S    
C23   C49   S    
C20   C25   S    
C15   C16   S    
H24   O16   S    
C12   C22   S    
C2    C32   S    
O24   Zn1   S    
C11   C37   S    
C37   O14   S    
C2    C50   S    
C8    C9    S    
C42   H32   S    
O27   Zn2   S    
C8    H42   S    
C44   H37   S    
C47   H3    S    
C3    H10   S    
N2    Zn2   S    
C40   O19   S    
C34   H5    S    
C29   O28   S    
C24   O28   S    
C14   C17   S    
C5    C49   S    
C42   H31   S    
C41   H30   S    
C6    O22   A    
C44   C46   S    
C47   C50   S    
C26   H46   S    
C29   H11   S    
C23   C47   S    
C16   H23   S    
C43   H35   S    
C33   O7    S    
C24   C25   S    
O23   Zn2   S    
C41   H28   S    
C5    C7    T    
C38   O15   D    
H19   O7    S    
C19   C48   S    
C42   O20   S    
O1    Zn1   S    
C46   H41   S    
C44   O21   S    
C25   C26   S    
C12   C21   S    
C40   H26   S    
C4    C50   S    
C2    C31   S    
C9    C14   S    
C29   C30   S    
C1    O12   A    
C14   C15   S    
C45   H7    S    
C32   O5    S    
C34   C45   S    
C31   O2    D    
C15   C39   S    
C30   H16   S    
O26   Zn1   S    
C40   C41   S    
C45   H4    S    
C39   O17   D    
C22   C27   S    
C32   O4    D    
C21   C24   S    
C42   C43   S    
C9    H43   S    
C36   O11   S    
C27   H2    S    
H17   O3    S    
C4    C48   T    
C34   O21   S    
C34   C49   S    
C1    C7    S    
C43   H36   S    
C10   C13   S    
C41   H29   S    
C15   H34   S    
C46   H40   S    
C25   C27   S    
C26   C28   S    
C28   O19   S    
C11   C35   S    
C2    C3    S    
C20   O27   A    
C35   O8    D    
C47   H8    S    
O25   Zn2   S    
C45   C50   S    
H21   O11   S    
O12   Zn2   S    
C10   C33   S    
C22   C24   S    
C20   O26   A    
C30   H15   S    
C35   O9    S    
C10   C11   S    
C37   O13   D    
C39   O18   S    
C21   H44   S    
C13   C16   S    
C8    H12   S    
C27   C28   S    
C40   H27   S    
C10   C36   S    
H25   O18   S    
C18   N2    T    
C6    O23   A    
C44   H38   S    
C17   N1    T    
C16   C38   S    
C3    H9    S    
