data_mof_unit_63086.cif
_audit_creation_date              2012-12-10T17:56:31-0500
_audit_creation_method            fapswitch 2.2
_symmetry_space_group_name_H-M    P1
_symmetry_Int_Tables_number       1
_space_group_crystal_system       triclinic
_cell_length_a                    21.674758
_cell_length_b                    21.654002
_cell_length_c                    29.152911
_cell_angle_alpha                 90.003222
_cell_angle_beta                  90.012511
_cell_angle_gamma                 89.994495
_cell_volume                      13682.7799804

loop_
_atom_site_label
_atom_site_type_symbol
_atom_type_description
_atom_site_fract_x
_atom_site_fract_y
_atom_site_fract_z
_atom_type_partial_charge
C1    C     C_R   0.379850 0.999981 0.000097 0.897041
C2    C     C_R   0.121325 0.998019 0.999996 0.854289
C3    C     C_3   0.131221 0.783130 0.916618 -0.791749
C4    C     C_3   0.788319 0.164327 0.029575 -0.805544
C5    C     C_3   0.157546 0.215545 0.049637 -0.798601
C6    C     C_3   0.211158 0.835693 0.029722 -0.803653
C7    C     C_3   0.869601 0.782801 0.084262 -0.791214
C8    C     C_3   0.709950 0.665885 0.478921 -0.805781
C9    C     C_3   0.374379 0.717367 0.411833 -0.792186
C10   C     C_3   0.290035 0.334122 0.478872 -0.805538
C11   C     C_3   0.625599 0.282619 0.411855 -0.792173
C12   C     C_3   0.290024 0.665878 0.521065 -0.805811
C13   C     C_R   0.001913 0.121412 0.999991 0.855240
C14   C     C_3   0.625613 0.717356 0.588179 -0.792361
C15   C     C_3   0.709993 0.334131 0.521096 -0.805838
C16   C     C_3   0.374397 0.282659 0.588143 -0.793109
C17   C     C_R   0.878661 0.000143 0.000017 0.852988
C18   C     C_R   0.499999 0.378492 0.499999 0.859135
C19   C     C_R   0.621306 0.499999 0.500005 0.853102
C20   C     C_R   0.500001 0.621508 0.500001 0.859131
C21   C     C_R   0.378694 0.499995 0.499995 0.853095
C22   C     C_R   0.500000 0.000001 0.085770 0.882519
C23   C     C_R   0.000006 0.500005 0.085756 0.879649
C24   C     C_R   0.499997 0.999999 0.914230 0.882777
C25   C     C_R   0.000025 0.379960 0.000134 0.895523
C26   C     C_R   0.999994 0.500000 0.914244 0.880020
C27   C     C_R   1.000000 0.500001 0.585770 0.883350
C28   C     C_R   0.500006 0.000000 0.585756 0.878749
C29   C     C_R   1.000000 0.499999 0.414230 0.883434
C30   C     C_R   0.499994 0.000000 0.414244 0.878800
C31   C     C_1   0.499995 0.000004 0.136589 -0.201701
C32   C     C_1   0.000015 0.500009 0.136575 -0.202235
C33   C     C_1   0.499998 0.999997 0.863411 -0.202655
C34   C     C_1   0.999984 0.500002 0.863425 -0.203307
C35   C     C_1   0.999996 0.500004 0.636589 -0.201765
C36   C     C_R   0.620149 0.999991 0.999978 0.898353
C37   C     C_1   0.500015 1.000000 0.636575 -0.203202
C38   C     C_1   0.000003 0.499997 0.363411 -0.201482
C39   C     C_1   0.499983 0.000001 0.363426 -0.202951
C40   C     C_1   0.499991 0.000004 0.178891 0.002979
C41   C     C_1   0.000017 0.500010 0.178876 0.002309
C42   C     C_1   0.500000 0.999997 0.821109 0.002112
C43   C     C_1   0.999982 0.500004 0.821124 0.001322
C44   C     C_1   0.999992 0.500005 0.678891 0.002769
C45   C     C_1   0.500015 0.999999 0.678876 0.001192
C46   C     C_1   0.000007 0.500000 0.321109 0.003185
C47   C     C_R   0.000002 0.620028 0.999973 0.894463
C48   C     C_1   0.499981 0.000002 0.321124 0.001564
C49   C     C_1   0.499986 0.000004 0.228857 0.006769
C50   C     C_1   0.000014 0.500008 0.228842 0.006746
C51   C     C_1   0.500006 0.999998 0.771143 0.006060
C52   C     C_1   0.999984 0.500005 0.771158 0.005945
C53   C     C_1   0.999987 0.500005 0.728857 0.006411
C54   C     C_1   0.500011 0.999998 0.728842 0.005762
C55   C     C_1   0.000011 0.500005 0.271143 0.007008
C56   C     C_1   0.499983 0.000003 0.271159 0.006298
C57   C     C_R   0.282143 0.047832 0.979014 -0.208701
C58   C     C_R   0.879820 0.500003 0.500002 0.898842
C59   C     C_R   0.955875 0.282566 0.975109 -0.211903
C60   C     C_R   0.717475 0.950168 0.980893 -0.186000
C61   C     C_R   0.043319 0.717001 0.973493 -0.209008
C62   C     C_R   0.717383 0.049657 0.019392 -0.186959
C63   C     C_R   0.045901 0.283403 0.024826 -0.187047
C64   C     C_R   0.283017 0.950743 0.020882 -0.181954
C65   C     C_R   0.956822 0.716935 0.026658 -0.208988
C66   C     C_R   0.782419 0.550837 0.482377 -0.185334
C67   C     C_R   0.458269 0.783191 0.472112 -0.209625
C68   C     C_R   0.217568 0.449168 0.482353 -0.185268
C69   C     C_R   0.500002 0.880009 0.499999 0.893942
C70   C     C_R   0.541724 0.216804 0.472117 -0.209569
C71   C     C_R   0.217572 0.550826 0.517632 -0.185365
C72   C     C_R   0.541741 0.783188 0.527887 -0.209647
C73   C     C_R   0.782441 0.449180 0.517649 -0.185308
C74   C     C_R   0.458261 0.216817 0.527873 -0.209662
C75   C     C_R   0.217956 0.048172 0.978717 0.206115
C76   C     C_R   0.955915 0.218389 0.974421 0.205732
C77   C     C_R   0.781430 0.948476 0.981500 0.199615
C78   C     C_R   0.044041 0.781192 0.972954 0.203516
C79   C     C_R   0.781341 0.051331 0.019011 0.199550
C80   C     C_R   0.120180 0.499998 0.500000 0.898850
C81   C     C_R   0.048445 0.219384 0.024576 0.198727
C82   C     C_R   0.219121 0.948415 0.020429 0.194111
C83   C     C_R   0.956155 0.781119 0.027364 0.201746
C84   C     C_R   0.718476 0.552476 0.482984 0.198333
C85   C     C_R   0.457655 0.719010 0.471401 0.202868
C86   C     C_R   0.281512 0.447532 0.482952 0.198284
C87   C     C_R   0.542336 0.280985 0.471405 0.202894
C88   C     C_R   0.281513 0.552468 0.517020 0.198325
C89   C     C_R   0.542348 0.719006 0.528603 0.202873
C90   C     C_R   0.718499 0.447541 0.517046 0.198310
C91   C     C_R   0.499997 0.119991 0.499999 0.893944
C92   C     C_R   0.457652 0.280998 0.528587 0.202961
C93   C     C_R   0.187083 0.998327 0.000056 -0.172504
C94   C     C_R   0.001985 0.187332 0.999974 -0.178773
C95   C     C_R   0.812980 0.000014 0.000118 -0.172341
C96   C     C_R   1.000000 0.812552 0.000087 -0.179300
C97   C     C_R   0.686930 0.500007 0.500015 -0.169526
C98   C     C_R   0.500000 0.687552 0.500003 -0.181548
C99   C     C_R   0.313070 0.500000 0.499986 -0.169540
C100  C     C_R   0.499995 0.312448 0.499996 -0.181585
C101  C     C_R   0.313851 0.999703 0.000140 -0.133527
C102  C     C_R   0.999904 0.878531 0.000015 0.859042
C103  C     C_R   0.000336 0.314114 0.000213 -0.127366
C104  C     C_R   0.686140 0.999963 0.000039 -0.140831
C105  C     C_R   0.000015 0.685854 0.000005 -0.119246
C106  C     C_R   0.813772 0.500007 0.500010 -0.142460
C107  C     C_R   0.500006 0.814251 0.499998 -0.116960
C108  C     C_R   0.186228 0.499995 0.499997 -0.142496
C109  C     C_R   0.499993 0.185749 0.499995 -0.116959
C110  C     C_3   0.215194 0.147517 0.934692 -0.788409
C111  C     C_3   0.867049 0.215790 0.919465 -0.790741
C112  C     C_3   0.789185 0.835302 0.973540 -0.805468
H1    H     H_    0.308112 0.084620 0.962997 0.168966
H2    H     H_    0.426784 0.809753 0.451122 0.162803
H3    H     H_    0.191852 0.411120 0.467762 0.169906
H4    H     H_    0.573205 0.190239 0.451135 0.162805
H5    H     H_    0.191860 0.588874 0.532227 0.169827
H6    H     H_    0.573227 0.809747 0.548875 0.162794
H7    H     H_    0.808163 0.411133 0.532240 0.169832
H8    H     H_    0.426780 0.190261 0.548855 0.162762
H9    H     H_    0.143577 0.110255 0.973961 0.225604
H10   H     H_    0.180733 0.179130 0.919077 0.244666
H11   H     H_    0.244891 0.129389 0.906721 0.248921
H12   H     H_    0.921690 0.308694 0.956274 0.166257
H13   H     H_    0.243184 0.174155 0.959735 0.232608
H14   H     H_    0.893207 0.145448 0.964767 0.232973
H15   H     H_    0.839215 0.181233 0.900386 0.244691
H16   H     H_    0.891868 0.244699 0.893977 0.250480
H17   H     H_    0.835269 0.244641 0.940296 0.232345
H18   H     H_    0.860860 0.897137 0.962980 0.232074
H19   H     H_    0.823344 0.799353 0.963768 0.245257
H20   H     H_    0.746458 0.826240 0.953719 0.248713
H21   H     H_    0.779791 0.831239 0.010879 0.248370
H22   H     H_    0.106905 0.853532 0.962322 0.229988
H23   H     H_    0.691699 0.912987 0.965166 0.168782
H24   H     H_    0.158847 0.817426 0.897129 0.244675
H25   H     H_    0.105637 0.754314 0.891482 0.250667
H26   H     H_    0.163277 0.754148 0.937128 0.232761
H27   H     H_    0.860711 0.102538 0.038162 0.233203
H28   H     H_    0.822763 0.200073 0.039197 0.245222
H29   H     H_    0.746517 0.172386 0.050680 0.248681
H30   H     H_    0.777139 0.169725 0.992603 0.248588
H31   H     H_    0.098595 0.140460 0.046041 0.234715
H32   H     H_    0.191900 0.181612 0.062517 0.243233
H33   H     H_    0.158410 0.255742 0.073218 0.247715
H34   H     H_    0.075977 0.690528 0.953466 0.164069
H35   H     H_    0.171309 0.229944 0.014529 0.246754
H36   H     H_    0.140310 0.898031 0.041377 0.233278
H37   H     H_    0.177720 0.800025 0.041255 0.244914
H38   H     H_    0.255262 0.826990 0.047893 0.248770
H39   H     H_    0.217900 0.830797 0.992125 0.247842
H40   H     H_    0.893822 0.853756 0.039012 0.232702
H41   H     H_    0.842268 0.817000 0.104080 0.244484
H42   H     H_    0.895347 0.753680 0.109112 0.250545
H43   H     H_    0.837258 0.754103 0.063784 0.232996
H44   H     H_    0.639068 0.604191 0.465059 0.231126
H45   H     H_    0.691501 0.086740 0.035145 0.169264
H46   H     H_    0.675935 0.702210 0.469648 0.245688
H47   H     H_    0.753339 0.676377 0.460342 0.248808
H48   H     H_    0.717955 0.667713 0.516540 0.248175
H49   H     H_    0.395549 0.646728 0.458177 0.234074
H50   H     H_    0.348189 0.683162 0.391183 0.244406
H51   H     H_    0.401645 0.746352 0.387817 0.250880
H52   H     H_    0.340897 0.746190 0.431166 0.233278
H53   H     H_    0.360908 0.395819 0.465012 0.231132
H54   H     H_    0.324047 0.297799 0.469596 0.245734
H55   H     H_    0.246637 0.323630 0.460289 0.248907
H56   H     H_    0.078947 0.309922 0.044468 0.164080
H57   H     H_    0.282049 0.332292 0.516489 0.248057
H58   H     H_    0.604442 0.353264 0.458196 0.234063
H59   H     H_    0.651785 0.316821 0.391210 0.244393
H60   H     H_    0.598327 0.253631 0.387833 0.250906
H61   H     H_    0.659085 0.253798 0.431194 0.233263
H62   H     H_    0.360909 0.604185 0.534951 0.231130
H63   H     H_    0.324027 0.702205 0.530344 0.245664
H64   H     H_    0.246621 0.676380 0.539628 0.248789
H65   H     H_    0.282042 0.667689 0.483443 0.248213
H66   H     H_    0.604448 0.646711 0.541835 0.234077
H67   H     H_    0.309125 0.914759 0.037823 0.166667
H68   H     H_    0.651798 0.683149 0.608833 0.244369
H69   H     H_    0.598344 0.746354 0.612190 0.250866
H70   H     H_    0.659101 0.746166 0.568848 0.233288
H71   H     H_    0.639115 0.395826 0.534982 0.231124
H72   H     H_    0.675992 0.297806 0.530372 0.245658
H73   H     H_    0.753402 0.323633 0.539663 0.248803
H74   H     H_    0.717959 0.332313 0.483475 0.248213
H75   H     H_    0.395551 0.353293 0.541801 0.234092
H76   H     H_    0.348215 0.316870 0.608790 0.244255
H77   H     H_    0.401672 0.253668 0.612162 0.250754
H78   H     H_    0.924247 0.690406 0.046711 0.164114
H79   H     H_    0.340908 0.253842 0.568807 0.233340
H80   H     H_    0.808124 0.588884 0.467785 0.169834
N1    N     N_2   0.183593 0.097278 0.957528 -0.284480
N2    N     N_2   0.414967 0.685228 0.443242 -0.283998
N3    N     N_2   0.313484 0.394251 0.465674 -0.300735
N4    N     N_2   0.585020 0.314763 0.443256 -0.283981
N5    N     N_2   0.313485 0.605756 0.534288 -0.300857
N6    N     N_2   0.585030 0.685220 0.556766 -0.283994
N7    N     N_2   0.686539 0.394256 0.534316 -0.300855
N8    N     N_2   0.414973 0.314789 0.556738 -0.283882
N9    N     N_2   0.910635 0.184197 0.948896 -0.283894
N10   N     N_2   0.813425 0.896022 0.962856 -0.300330
N11   N     N_2   0.088525 0.815132 0.946510 -0.284206
N12   N     N_2   0.813275 0.103348 0.038389 -0.300439
N13   N     N_2   0.096706 0.187727 0.048995 -0.297513
N14   N     N_2   0.187732 0.896673 0.040596 -0.301448
N15   N     N_2   0.912095 0.814938 0.054298 -0.284274
N16   N     N_2   0.686492 0.605759 0.465715 -0.300807
O1    O     O_R   0.408380 0.948270 0.000000 -0.620405
O2    O     O_R   0.551730 0.908380 0.500000 -0.618201
O3    O     O_R   0.091620 0.551730 0.500000 -0.621195
O4    O     O_R   0.448270 0.091620 0.500000 -0.618188
O5    O     O_R   0.091620 0.448270 0.500000 -0.621214
O6    O     O_R   0.448270 0.908380 0.500000 -0.618206
O7    O     O_R   0.908380 0.551730 0.500000 -0.621214
O8    O     O_R   0.551730 0.091620 0.500000 -0.618222
O9    O     O_R   0.499990 0.948270 0.063150 -0.600037
O10   O     O_R   0.051730 0.499990 0.063150 -0.599926
O11   O     O_R   0.500010 0.051730 0.063150 -0.599784
O12   O     O_R   0.051730 0.408380 0.000000 -0.619275
O13   O     O_R   0.948270 0.500010 0.063150 -0.600205
O14   O     O_R   0.500010 0.948270 0.936850 -0.599566
O15   O     O_R   0.948270 0.499990 0.936850 -0.599806
O16   O     O_R   0.499990 0.051730 0.936850 -0.600221
O17   O     O_R   0.051730 0.500010 0.936850 -0.600221
O18   O     O_R   0.999990 0.448270 0.563150 -0.599803
O19   O     O_R   0.551730 0.999990 0.563150 -0.600036
O20   O     O_R   0.000010 0.551730 0.563150 -0.599715
O21   O     O_R   0.448270 0.000010 0.563150 -0.600151
O22   O     O_R   0.000010 0.448270 0.436850 -0.599583
O23   O     O_R   0.591620 0.051730 0.000000 -0.620816
O24   O     O_R   0.448270 0.999990 0.436850 -0.599970
O25   O     O_R   0.999990 0.551730 0.436850 -0.599757
O26   O     O_R   0.551730 0.000010 0.436850 -0.600070
O27   O     O_R   0.000010 0.908280 0.964370 -0.613634
O28   O     O_R   0.091720 0.000010 0.964370 -0.605699
O29   O     O_R   0.999990 0.091720 0.964370 -0.602330
O30   O     O_R   0.908280 0.999990 0.964370 -0.621453
O31   O     O_R   0.999990 0.908280 0.035630 -0.613417
O32   O     O_R   0.908280 0.000010 0.035630 -0.620683
O33   O     O_R   0.000010 0.091720 0.035630 -0.629076
O34   O     O_R   0.948270 0.591620 0.000000 -0.618719
O35   O     O_R   0.091720 0.999990 0.035630 -0.632347
O36   O     O_R   0.500010 0.408280 0.464370 -0.612313
O37   O     O_R   0.591720 0.500010 0.464370 -0.622127
O38   O     O_R   0.499990 0.591720 0.464370 -0.612346
O39   O     O_R   0.408280 0.499990 0.464370 -0.622096
O40   O     O_R   0.499990 0.408280 0.535630 -0.612426
O41   O     O_R   0.408280 0.500010 0.535630 -0.622229
O42   O     O_R   0.500010 0.591720 0.535630 -0.612392
O43   O     O_R   0.591720 0.499990 0.535630 -0.622207
O44   O     O_R   0.591620 0.948270 0.000000 -0.620715
O45   O     O_R   0.948270 0.408380 0.000000 -0.619030
O46   O     O_R   0.408380 0.051730 0.000000 -0.620486
O47   O     O_R   0.051730 0.591620 0.000000 -0.618689
O48   O     O_R   0.908380 0.448270 0.500000 -0.621194
Zn1   Zn    Zn3+2 0.500000 0.930930 0.000000 0.957781
Zn2   Zn    Zn3+2 0.000000 0.000000 0.047590 0.969154
Zn3   Zn    Zn3+2 0.500000 0.500000 0.452410 0.977535
Zn4   Zn    Zn3+2 0.500000 0.500000 0.547590 0.977174
Zn5   Zn    Zn3+2 0.069070 0.500000 0.000000 0.958043
Zn6   Zn    Zn3+2 0.500000 0.069070 0.000000 0.957128
Zn7   Zn    Zn3+2 0.930930 0.500000 0.000000 0.958214
Zn8   Zn    Zn3+2 0.000000 0.430930 0.500000 0.957762
Zn9   Zn    Zn3+2 0.569070 0.000000 0.500000 0.959027
Zn10  Zn    Zn3+2 0.000000 0.569070 0.500000 0.957673
Zn11  Zn    Zn3+2 0.430930 0.000000 0.500000 0.959033
Zn12  Zn    Zn3+2 0.000000 0.000000 0.952410 0.985942

loop_
_geom_bond_atom_site_label_1
_geom_bond_atom_site_label_2
_ccdc_geom_bond_type
H58   N4    S    
C22   O11   A    
C11   H59   S    
C73   H7    S    
C96   C102  S    
C68   C86   A    
H40   N15   S    
O12   Zn5   S    
O17   Zn5   S    
C112  H21   S    
C8    H46   S    
C77   N10   S    
C111  N9    S    
C74   C109  A    
O15   Zn7   S    
C69   C107  S    
H22   N11   S    
C21   O39   A    
C1    O46   A    
C10   H57   S    
C47   O47   A    
C89   N6    S    
C14   N6    S    
C92   C100  A    
C102  O31   A    
O6    Zn11  S    
C63   C81   A    
O29   Zn12  S    
C5    H35   S    
C33   C42   T    
C81   N13   S    
C70   C109  A    
C67   H2    S    
C87   N4    S    
H27   N12   S    
C36   O23   A    
C21   O41   A    
C21   C99   S    
C85   N2    S    
C4    N12   S    
C26   O17   A    
C30   O24   A    
C40   C49   S    
O36   Zn3   S    
C59   H12   S    
O9    Zn1   S    
C31   C40   T    
C9    H51   S    
C3    H24   S    
C74   C92   A    
C8    N16   S    
C83   N15   S    
C85   C98   A    
O31   Zn2   S    
C76   C94   A    
O25   Zn10  S    
O40   Zn4   S    
C6    H37   S    
C20   O42   A    
C44   C53   S    
C26   C34   S    
C69   O6    A    
C13   O33   A    
C13   O29   A    
C23   O13   A    
O4    Zn11  S    
C78   C96   A    
C10   H55   S    
C47   C105  S    
C66   H80   S    
C46   C55   S    
O38   Zn3   S    
C32   C41   T    
C58   O48   A    
C3    H25   S    
C112  N10   S    
C61   C105  A    
C2    O35   A    
C90   C97   A    
C16   N8    S    
H36   N14   S    
C42   C51   S    
C12   H64   S    
C17   O30   A    
O45   Zn7   S    
C20   O38   A    
C12   H65   S    
H66   N6    S    
C23   O10   A    
C102  O27   A    
C19   O43   A    
C82   C93   A    
C71   C108  A    
C15   H72   S    
C12   N5    S    
C18   C100  S    
C58   O7    A    
C66   C106  A    
H44   N16   S    
C70   C87   A    
H53   N3    S    
C28   O19   A    
O42   Zn4   S    
C14   H70   S    
C111  H17   S    
O44   Zn1   S    
C62   C104  A    
C24   O16   A    
H14   N9    S    
C19   C97   S    
C64   C101  A    
O26   Zn9   S    
C15   H74   S    
O22   Zn8   S    
C60   C77   A    
C11   H61   S    
C67   C85   A    
O33   Zn2   S    
C71   H5    S    
O5    Zn8   S    
C1    O1    A    
C88   C99   A    
O47   Zn5   S    
C62   C79   A    
C5    H33   S    
C78   N11   S    
C63   C103  A    
C27   O20   A    
C16   H76   S    
C4    H29   S    
C64   H67   S    
C25   O45   A    
C9    N2    S    
C25   C103  S    
C5    H32   S    
C57   H1    S    
C90   N7    S    
C110  H13   S    
C70   H4    S    
C66   C84   A    
C77   C95   A    
O3    Zn10  S    
C112  H20   S    
C91   C109  S    
C58   C106  S    
O35   Zn2   S    
C88   N5    S    
C29   C38   S    
C9    H52   S    
C61   H34   S    
C13   C94   S    
C79   C95   A    
C91   O8    A    
C35   C44   T    
C16   H79   S    
C110  H11   S    
C4    H28   S    
C15   H73   S    
C84   N16   S    
O1    Zn1   S    
C7    H41   S    
C72   C107  A    
C61   C78   A    
O34   Zn7   S    
C64   C82   A    
C22   C31   S    
C110  N1    S    
C62   H45   S    
C7    H43   S    
C3    H26   S    
C11   N4    S    
C86   C99   A    
C60   H23   S    
C29   O25   A    
O20   Zn10  S    
O43   Zn4   S    
C17   C95   S    
C6    H39   S    
C75   N1    S    
C65   C105  A    
C7    N15   S    
C63   H56   S    
C59   C76   A    
C22   O9    A    
C45   C54   S    
C26   O15   A    
O2    Zn9   S    
C12   H63   S    
C111  H15   S    
C2    O28   A    
C84   C97   A    
O7    Zn10  S    
C37   C45   T    
H9    N1    S    
O18   Zn8   S    
C41   C50   S    
C82   N14   S    
C14   H69   S    
C57   C101  A    
C52   C53   T    
C19   O37   A    
C30   O26   A    
C87   C100  A    
H75   N8    S    
C15   N7    S    
C18   O36   A    
O27   Zn12  S    
C48   C56   S    
C86   N3    S    
H62   N5    S    
O19   Zn9   S    
C76   N9    S    
O23   Zn6   S    
C2    C93   S    
O11   Zn6   S    
C34   C43   T    
C24   C33   S    
C43   C52   S    
C91   O4    A    
O13   Zn7   S    
H18   N10   S    
C29   O22   A    
C47   O34   A    
O16   Zn6   S    
O21   Zn11  S    
C27   O18   A    
C80   O5    A    
O46   Zn6   S    
C24   O14   A    
C10   H54   S    
C49   C56   T    
C74   H8    S    
C80   C108  S    
C80   O3    A    
C50   C55   T    
O24   Zn11  S    
C89   C98   A    
C36   C104  S    
C51   C54   T    
C27   C35   S    
C23   C32   S    
C57   C75   A    
O48   Zn8   S    
C59   C103  A    
C60   C104  A    
C10   N3    S    
C110  H10   S    
C4    H30   S    
C81   C94   A    
C67   C107  A    
C73   C106  A    
H31   N13   S    
C7    H42   S    
C1    C101  S    
C28   C37   S    
C75   C93   A    
O39   Zn3   S    
C83   C96   A    
C6    N14   S    
O30   Zn12  S    
C36   O44   A    
H49   N2    S    
C112  H19   S    
C9    H50   S    
O37   Zn3   S    
H71   N7    S    
O8    Zn9   S    
C38   C46   T    
O14   Zn1   S    
C65   C83   A    
C16   H77   S    
C68   H3    S    
C5    N13   S    
C71   C88   A    
C6    H38   S    
C17   O32   A    
C18   O40   A    
C11   H60   S    
C20   C98   S    
C65   H78   S    
C73   C90   A    
C79   N12   S    
C72   H6    S    
C111  H16   S    
O28   Zn12  S    
O10   Zn5   S    
C3    N11   S    
C25   O12   A    
C72   C89   A    
C69   O2    A    
O41   Zn4   S    
O32   Zn2   S    
C92   N8    S    
C8    H47   S    
C68   C108  A    
C28   O21   A    
C14   H68   S    
C30   C39   S    
C39   C48   T    
C8    H48   S    
