data_mof_unit_12475.cif
_audit_creation_date              2012-12-10T17:59:50-0500
_audit_creation_method            fapswitch 2.2
_symmetry_space_group_name_H-M    P1
_symmetry_Int_Tables_number       1
_space_group_crystal_system       triclinic
_cell_length_a                    10.868144
_cell_length_b                    9.565054
_cell_length_c                    15.876638
_cell_angle_alpha                 90.146932
_cell_angle_beta                  91.6062
_cell_angle_gamma                 90.259111
_cell_volume                      1649.77479702

loop_
_atom_site_label
_atom_site_type_symbol
_atom_type_description
_atom_site_fract_x
_atom_site_fract_y
_atom_site_fract_z
_atom_type_partial_charge
Br1   Br    Br    0.317760 0.166914 0.364247 -0.486013
Br2   Br    Br    0.311858 0.829799 0.367995 -0.454377
C1    C     C_R   0.262231 0.499530 0.504640 0.851693
C2    C     C_R   0.935554 0.625293 0.518191 -0.253251
C3    C     C_R   0.870862 0.500351 0.505373 -0.089081
C4    C     C_R   0.127808 0.498251 0.512762 -0.113723
C5    C     C_R   0.424467 0.073552 0.445061 0.339944
C6    C     C_R   0.423657 0.925151 0.445572 0.343574
C7    C     C_R   0.499789 0.499815 0.340311 0.867105
C8    C     C_R   0.575514 0.926413 0.554185 -0.105779
C9    C     C_R   0.575257 0.074808 0.554352 -0.106231
C10   C     C_R   0.737524 0.500287 0.501114 0.805272
C11   C     C_R   0.499767 0.500155 0.659751 0.790054
C12   C     C_3   0.628264 0.530944 0.953587 -0.395560
C13   C     C_3   0.402669 0.603755 0.047746 0.081905
C14   C     C_3   0.459838 0.348026 0.046979 0.082352
C15   C     C_3   0.456454 0.352911 0.948841 -0.418593
C16   C     C_3   0.407644 0.610092 0.949875 -0.434570
C17   C     C_1   0.498682 0.500391 0.749404 -0.187375
C18   C     C_3   0.498685 0.495457 0.082953 0.213255
C19   C     C_3   0.497448 0.498517 0.917124 0.256065
C20   C     C_3   0.520202 0.170467 0.156142 -0.636555
C21   C     C_3   0.314582 0.831287 0.086009 -0.639824
C22   C     C_3   0.149999 0.184943 0.590062 -0.653099
C23   C     C_3   0.628318 0.534082 0.051041 -0.400624
C24   C     C_3   0.163609 0.765110 0.632471 -0.671675
C25   C     C_1   0.497869 0.499941 0.824951 -0.082853
C26   C     C_1   0.499123 0.497052 0.175217 -0.027154
C27   C     C_1   0.499356 0.499038 0.250736 -0.134851
C28   C     C_R   0.060811 0.370628 0.506668 0.230034
C29   C     C_R   0.063403 0.625400 0.524175 0.241506
C30   C     C_R   0.933403 0.373793 0.501220 -0.258153
Cu1   Cu    Cu3+1 0.500020 0.640660 0.500000 0.991333
Cu2   Cu    Cu3+1 0.500020 0.359340 0.500000 0.982572
H1    H     H_    0.313678 0.591810 0.922202 0.147115
H2    H     H_    0.699010 0.461099 0.076850 0.167853
H3    H     H_    0.660907 0.633666 0.929876 0.166804
H4    H     H_    0.693951 0.450087 0.932309 0.166285
H5    H     H_    0.883426 0.275839 0.494813 0.161939
H6    H     H_    0.886894 0.722986 0.525772 0.155659
H7    H     H_    0.631502 0.239347 0.057756 0.256322
H8    H     H_    0.553350 0.060932 0.154559 0.228200
H9    H     H_    0.420818 0.168689 0.170571 0.250557
H10   H     H_    0.572665 0.226606 0.206800 0.236301
H11   H     H_    0.500112 0.793625 0.067223 0.257255
H12   H     H_    0.361291 0.329744 0.924788 0.143128
H13   H     H_    0.284454 0.858027 0.020603 0.206222
H14   H     H_    0.337617 0.929251 0.120670 0.245915
H15   H     H_    0.238174 0.778689 0.118713 0.242346
H16   H     H_    0.075471 0.163860 0.469513 0.269479
H17   H     H_    0.064611 0.156817 0.623149 0.197570
H18   H     H_    0.202908 0.263759 0.627951 0.226616
H19   H     H_    0.207854 0.090400 0.584192 0.229456
H20   H     H_    0.081361 0.841479 0.522819 0.258518
H21   H     H_    0.081581 0.774352 0.672338 0.202333
H22   H     H_    0.222136 0.859503 0.641649 0.221805
H23   H     H_    0.636334 0.871288 0.597629 0.142369
H24   H     H_    0.218425 0.672835 0.652945 0.222912
H25   H     H_    0.635854 0.130905 0.597950 0.144659
H26   H     H_    0.309635 0.564768 0.064575 0.127081
H27   H     H_    0.364501 0.324168 0.066917 0.125588
H28   H     H_    0.516778 0.270848 0.922391 0.181297
H29   H     H_    0.437553 0.715447 0.928649 0.181008
H30   H     H_    0.656964 0.639413 0.074012 0.168944
N1    N     N_R   0.500030 0.852070 0.500020 -0.195876
N2    N     N_R   0.500030 0.147930 0.500020 -0.195220
N3    N     N_2   0.541051 0.235335 0.075455 -0.437374
N4    N     N_2   0.421663 0.741982 0.085193 -0.405365
N5    N     N_2   0.119738 0.238066 0.506847 -0.366548
N6    N     N_2   0.125723 0.752938 0.544602 -0.377795
O1    O     O_R   0.319660 0.618740 0.500000 -0.517486
O2    O     O_R   0.319660 0.381260 0.500000 -0.521786
O3    O     O_R   0.500020 0.618840 0.379440 -0.538119
O4    O     O_R   0.500020 0.381160 0.379440 -0.548573
O5    O     O_R   0.680370 0.618830 0.500010 -0.591876
O6    O     O_R   0.680370 0.381170 0.500010 -0.593381
O7    O     O_R   0.500010 0.618730 0.620560 -0.584056
O8    O     O_R   0.500010 0.381270 0.620560 -0.585407

loop_
_geom_bond_atom_site_label_1
_geom_bond_atom_site_label_2
_ccdc_geom_bond_type
C22   H18   S    
C13   C16   S    
C16   C19   S    
C13   H26   S    
C1    C4    S    
C24   H21   S    
Cu2   N2    S    
Cu1   N1    S    
C5    C6    A    
H7    N3    S    
C12   C19   S    
C26   C27   T    
H16   N5    S    
C16   H29   S    
C21   H15   S    
C18   C23   S    
C30   H5    S    
Cu1   O5    S    
C29   N6    S    
C20   H10   S    
C2    H6    S    
C14   C15   S    
C17   C25   T    
C16   H1    S    
C9    N2    A    
C7    C27   S    
C3    C30   A    
C22   H17   S    
C4    C29   A    
C19   C25   S    
C6    N1    A    
C7    O3    A    
C9    H25   S    
C22   N5    S    
C13   C18   S    
C11   O7    A    
C21   H13   S    
C11   C17   S    
C8    H23   S    
C15   H12   S    
C3    C10   S    
C18   C26   S    
C22   H19   S    
C15   C19   S    
C23   H30   S    
C21   N4    S    
C1    O1    A    
C15   H28   S    
C12   H4    S    
C20   H9    S    
H20   N6    S    
C14   C18   S    
H11   N4    S    
Cu1   Cu2   S    
C14   N3    S    
C24   H24   S    
Cu2   O4    S    
Cu1   O3    S    
C4    C28   A    
C10   O6    A    
C24   N6    S    
C14   H27   S    
Cu2   O2    S    
C28   N5    S    
C8    N1    A    
C11   O8    A    
C21   H14   S    
Br1   C5    S    
Br2   C6    S    
C2    C3    A    
C24   H22   S    
C1    O2    A    
Cu2   O8    S    
C5    N2    A    
C28   C30   A    
Cu1   O7    S    
C20   H8    S    
C13   N4    S    
C12   C23   S    
C20   N3    S    
C2    C29   A    
C8    C9    A    
Cu1   O1    S    
C23   H2    S    
C7    O4    A    
C10   O5    A    
Cu2   O6    S    
C12   H3    S    
