data_mof_unit_21817.cif
_audit_creation_date              2012-12-10T21:25:18-0500
_audit_creation_method            fapswitch 2.2
_symmetry_space_group_name_H-M    P1
_symmetry_Int_Tables_number       1
_space_group_crystal_system       triclinic
_cell_length_a                    10.819002
_cell_length_b                    17.576148
_cell_length_c                    16.739892
_cell_angle_alpha                 90.19416
_cell_angle_beta                  89.782619
_cell_angle_gamma                 90.564487
_cell_volume                      3183.00199683

loop_
_atom_site_label
_atom_site_type_symbol
_atom_type_description
_atom_site_fract_x
_atom_site_fract_y
_atom_site_fract_z
_atom_type_partial_charge
C1    C     C_R   0.500688 0.353252 0.499804 0.903370
C2    C     C_R   0.529906 0.232664 0.426989 -0.324833
C3    C     C_R   0.507075 0.729239 0.498662 -0.080263
C4    C     C_R   0.503648 0.270834 0.498694 -0.121431
C5    C     C_R   0.484104 0.768063 0.427370 -0.129698
C6    C     C_R   0.480800 0.229825 0.568855 -0.189931
C7    C     C_R   0.486029 0.846710 0.426380 -0.280789
C8    C     C_R   0.481918 0.151099 0.566936 -0.242798
C9    C     C_R   0.516474 0.886434 0.495663 0.032541
C10   C     C_R   0.506498 0.113540 0.495195 0.035800
C11   C     C_1   0.509313 0.966256 0.494903 -0.022223
C12   C     C_R   0.500691 0.646774 0.499923 0.900695
C13   C     C_1   0.505943 0.033569 0.494865 -0.023788
C14   C     C_R   0.434908 0.438558 0.829893 -0.349062
C15   C     C_R   0.563335 0.552270 0.165765 -0.369393
C16   C     C_R   0.260270 0.507838 0.500200 0.988200
C17   C     C_R   0.741269 0.501674 0.500040 0.912465
C18   C     C_R   0.438285 0.442461 0.745878 0.698961
C19   C     C_R   0.563039 0.553655 0.249865 0.692197
C20   C     C_R   0.557181 0.557046 0.750420 0.544102
C21   C     C_R   0.429932 0.445575 0.254642 0.550366
C22   C     C_R   0.553206 0.554249 0.835888 -0.417701
C23   C     C_R   0.874346 0.512212 0.501072 -0.234191
C24   C     C_R   0.426812 0.443769 0.169426 -0.395770
C25   C     C_R   0.493404 0.494769 0.875810 0.015837
C26   C     C_R   0.495589 0.496387 0.124547 0.022008
C27   C     C_1   0.491885 0.493362 0.963643 0.005045
C28   C     C_1   0.493095 0.494409 0.036759 0.002315
C29   C     C_R   0.264037 0.642707 0.273936 -0.216967
C30   C     C_R   0.824134 0.340883 0.708954 -0.260684
C31   C     C_R   0.210452 0.625304 0.348201 0.523912
C32   C     C_R   0.867200 0.378401 0.639108 0.529796
C33   C     C_R   0.128271 0.562117 0.354289 0.086116
C34   C     C_R   0.129130 0.524016 0.501418 -0.249436
C35   C     C_R   0.887029 0.457885 0.642301 0.167013
C36   C     C_R   0.099462 0.519831 0.285187 -0.116472
C37   C     C_R   0.860656 0.498232 0.712616 -0.151545
C38   C     C_R   0.151094 0.539386 0.211473 -0.166513
C39   C     C_R   0.817286 0.460443 0.780362 -0.165088
C40   C     C_R   0.233067 0.600815 0.205835 -0.212199
C41   C     C_R   0.798462 0.382012 0.778423 -0.169217
C42   C     C_R   0.935042 0.543014 0.433343 0.403119
C43   C     C_R   0.065137 0.516641 0.574267 0.443948
C44   C     C_3   0.688746 0.666420 0.752523 0.032577
C45   C     C_R   0.940475 0.498664 0.572196 -0.132538
C46   C     C_3   0.614702 0.730641 0.792654 -0.372991
C47   C     C_3   0.687249 0.767223 0.860955 -0.947190
C48   C     C_3   0.332794 0.325969 0.271442 0.084748
C49   C     C_3   0.201205 0.318621 0.238665 -0.365599
C50   C     C_3   0.177527 0.239548 0.203775 -0.948768
C51   C     C_3   0.172655 0.719232 0.442453 0.013765
C52   C     C_3   0.164490 0.786990 0.384781 -0.361536
C53   C     C_3   0.118133 0.858123 0.427507 -0.938040
C54   C     C_3   0.831453 0.273773 0.553677 0.063648
C55   C     C_3   0.907175 0.203054 0.573487 -0.306185
C56   C     C_R   0.064621 0.542643 0.430835 -0.166514
C57   C     C_3   0.827583 0.131029 0.571172 -0.999406
C58   C     C_3   0.874983 0.643486 0.352526 0.177439
C59   C     C_3   0.810229 0.690410 0.417381 -0.356949
C60   C     C_3   0.791858 0.772393 0.390487 -0.940288
C61   C     C_3   0.120571 0.592310 0.680211 0.047100
C62   C     C_3   0.241580 0.635955 0.665485 -0.283938
C63   C     C_3   0.240718 0.714172 0.705143 -0.990573
C64   C     C_3   0.709741 0.917483 0.623193 0.083765
C65   C     C_3   0.808363 0.857475 0.639413 -0.400290
C66   C     C_3   0.938101 0.891875 0.633576 -0.957365
C67   C     C_R   0.552219 0.848329 0.565355 0.512508
C68   C     C_3   0.674206 0.089392 0.347111 0.073906
C69   C     C_3   0.766226 0.152504 0.323519 -0.380798
C70   C     C_3   0.897153 0.121789 0.315955 -0.946540
C71   C     C_R   0.533920 0.153784 0.424953 0.521794
C72   C     C_R   0.541741 0.769484 0.567241 -0.332514
F1    F     F_    0.376635 0.388791 0.703148 -0.645648
F2    F     F_    0.621482 0.610974 0.288502 -0.686163
H1    H     H_    0.274443 0.615177 0.148813 0.165532
H2    H     H_    0.811936 0.279846 0.711093 0.142321
H3    H     H_    0.036387 0.471693 0.288470 0.159590
H4    H     H_    0.874550 0.559039 0.714939 0.113723
H5    H     H_    0.128231 0.506481 0.158709 0.143268
H6    H     H_    0.798857 0.491996 0.834648 0.143681
H7    H     H_    0.563951 0.739540 0.621198 0.203917
H8    H     H_    0.548827 0.263844 0.372521 0.167647
H9    H     H_    0.462553 0.737790 0.372769 0.198375
H10   H     H_    0.461083 0.258435 0.624789 0.215036
H11   H     H_    0.755543 0.693119 0.710336 0.141787
H12   H     H_    0.765347 0.352796 0.831270 0.156414
H13   H     H_    0.747471 0.635210 0.795582 0.129663
H14   H     H_    0.593251 0.775311 0.748452 0.245126
H15   H     H_    0.524972 0.708998 0.816121 0.232733
H16   H     H_    0.703411 0.725009 0.908929 0.258293
H17   H     H_    0.633837 0.815233 0.886413 0.272776
H18   H     H_    0.777670 0.789355 0.839094 0.260524
H19   H     H_    0.340259 0.285928 0.322263 0.180527
H20   H     H_    0.403499 0.307251 0.227135 0.118230
H21   H     H_    0.133972 0.329088 0.287791 0.231161
H22   H     H_    0.185377 0.361758 0.191653 0.213501
H23   H     H_    0.462993 0.876495 0.371909 0.165550
H24   H     H_    0.241823 0.228628 0.153219 0.268539
H25   H     H_    0.081210 0.235685 0.181353 0.263929
H26   H     H_    0.190381 0.195397 0.250276 0.272504
H27   H     H_    0.209688 0.740353 0.500303 0.192613
H28   H     H_    0.080005 0.695441 0.456371 0.123851
H29   H     H_    0.256427 0.799821 0.358482 0.231613
H30   H     H_    0.101087 0.772587 0.334900 0.193213
H31   H     H_    0.029433 0.845908 0.458590 0.267248
H32   H     H_    0.103667 0.904218 0.383427 0.263448
H33   H     H_    0.187224 0.877966 0.472081 0.276987
H34   H     H_    0.463080 0.119472 0.621191 0.169580
H35   H     H_    0.810945 0.272676 0.488771 0.154236
H36   H     H_    0.739422 0.272964 0.583668 0.135209
H37   H     H_    0.983844 0.197677 0.529482 0.230721
H38   H     H_    0.948868 0.208726 0.633744 0.227708
H39   H     H_    0.754040 0.133625 0.617552 0.270182
H40   H     H_    0.885795 0.080581 0.582682 0.266296
H41   H     H_    0.784386 0.124629 0.511683 0.265206
H42   H     H_    0.830816 0.654520 0.294128 0.218040
H43   H     H_    0.970402 0.664185 0.344291 0.072030
H44   H     H_    0.719500 0.664273 0.430401 0.263230
H45   H     H_    0.385819 0.392157 0.858764 0.180252
H46   H     H_    0.865127 0.690202 0.473282 0.168421
H47   H     H_    0.879854 0.797362 0.368288 0.261306
H48   H     H_    0.758451 0.807210 0.441441 0.263794
H49   H     H_    0.722707 0.774323 0.341698 0.286050
H50   H     H_    0.107088 0.586325 0.745726 0.166385
H51   H     H_    0.041534 0.626751 0.657976 0.094548
H52   H     H_    0.319583 0.603022 0.689878 0.247465
H53   H     H_    0.255831 0.643547 0.600350 0.212443
H54   H     H_    0.164806 0.748990 0.680564 0.259057
H55   H     H_    0.330017 0.743814 0.693298 0.282041
H56   H     H_    0.614556 0.595424 0.133127 0.173271
H57   H     H_    0.228493 0.708462 0.770767 0.265009
H58   H     H_    0.721575 0.964651 0.666933 0.177626
H59   H     H_    0.725284 0.942948 0.563094 0.127867
H60   H     H_    0.794695 0.833880 0.700184 0.234854
H61   H     H_    0.800013 0.810303 0.595353 0.213258
H62   H     H_    0.952789 0.918357 0.574124 0.265815
H63   H     H_    0.007647 0.846595 0.641772 0.262420
H64   H     H_    0.951627 0.935798 0.680685 0.270394
H65   H     H_    0.675239 0.045022 0.299702 0.173862
H66   H     H_    0.704321 0.060570 0.402686 0.120707
H67   H     H_    0.595213 0.597643 0.872905 0.175676
H68   H     H_    0.738061 0.177628 0.265614 0.231898
H69   H     H_    0.766529 0.198148 0.369430 0.209422
H70   H     H_    0.927317 0.097116 0.373630 0.268065
H71   H     H_    0.961516 0.168907 0.299929 0.272301
H72   H     H_    0.901345 0.077456 0.268605 0.264629
H73   H     H_    0.369446 0.403217 0.137634 0.164133
H74   H     H_    0.330649 0.688748 0.268977 0.144306
N1    N     N_R   0.500030 0.500030 0.707230 -0.184159
N2    N     N_R   0.499970 0.499970 0.292770 -0.167495
O1    O     O_R   0.500000 0.389130 0.566570 -0.578090
O2    O     O_3   0.353067 0.400233 0.301921 -0.603880
O3    O     O_3   0.254817 0.662669 0.415273 -0.683910
O4    O     O_3   0.902042 0.340340 0.569365 -0.660794
O5    O     O_3   0.866900 0.563963 0.366688 -0.607934
O6    O     O_3   0.126076 0.517874 0.647041 -0.587752
O7    O     O_3   0.588846 0.887064 0.633647 -0.660193
O8    O     O_3   0.552053 0.117283 0.352355 -0.653577
O9    O     O_R   0.500000 0.610870 0.433430 -0.568242
O10   O     O_R   0.499990 0.389100 0.433480 -0.607458
O11   O     O_R   0.500010 0.610900 0.566520 -0.608997
O12   O     O_R   0.316760 0.500020 0.566540 -0.560073
O13   O     O_R   0.683240 0.499980 0.433460 -0.556968
O14   O     O_R   0.316760 0.499990 0.433460 -0.581226
O15   O     O_R   0.683240 0.500010 0.566540 -0.631332
O16   O     O_3   0.611216 0.616970 0.707530 -0.618525
Zn1   Zn    Zn3+2 0.500010 0.500020 0.588860 1.028591
Zn2   Zn    Zn3+2 0.499990 0.499980 0.411140 1.049745

loop_
_geom_bond_atom_site_label_1
_geom_bond_atom_site_label_2
_ccdc_geom_bond_type
C38   C40   A    
C8    C10   A    
C52   H29   S    
C34   C56   A    
C59   H46   S    
C23   C45   A    
C55   H38   S    
C22   H67   S    
C47   H18   S    
C14   C18   A    
N1    Zn1   S    
C19   N2    A    
C29   H74   S    
C57   H41   S    
C46   H15   S    
C16   O14   A    
C51   H28   S    
C15   C19   A    
C41   H12   S    
C15   H56   S    
C50   H25   S    
C17   C23   S    
C23   C42   A    
C48   H20   S    
C61   H50   S    
C35   C37   A    
C24   C26   A    
C36   H3    S    
C62   H53   S    
C5    H9    S    
C70   H70   S    
C38   H5    S    
C33   C36   A    
O9    Zn2   S    
C54   H36   S    
C67   C72   A    
C21   O2    S    
C3    C12   S    
C17   O13   A    
C16   C34   S    
C12   O11   A    
C46   C47   S    
C53   H32   S    
C52   H30   S    
C64   H58   S    
C68   C69   S    
C22   C25   A    
C64   O7    S    
C31   C33   A    
C30   C41   A    
C1    O1    A    
C70   H72   S    
C63   H57   S    
C44   H13   S    
C72   H7    S    
C42   C56   A    
C10   C71   A    
C33   C56   S    
O10   Zn2   S    
C59   C60   S    
O15   Zn1   S    
C58   H42   S    
C60   H47   S    
C68   O8    S    
C8    H34   S    
C31   O3    S    
C44   C46   S    
C46   H14   S    
C19   F2    S    
C50   H24   S    
C6    H10   S    
C48   H19   S    
C51   C52   S    
C14   H45   S    
C32   C35   A    
O14   Zn2   S    
C12   O9    A    
C39   C41   A    
C62   H52   S    
C15   C26   A    
C57   H39   S    
C16   O12   A    
C58   C59   S    
C10   C13   S    
C58   H43   S    
C54   H35   S    
C60   H49   S    
C2    C4    A    
C9    C67   A    
C62   C63   S    
C30   H2    S    
C53   H33   S    
C66   H64   S    
N2    Zn2   S    
C67   O7    S    
C70   H71   S    
C44   O16   S    
C21   N2    A    
C49   H21   S    
C60   H48   S    
C43   C45   A    
C65   H61   S    
C2    C71   A    
C66   H62   S    
C4    C6    A    
C48   C49   S    
C20   C22   A    
C65   C66   S    
C59   H44   S    
C9    C11   S    
C48   O2    S    
C47   H16   S    
C32   O4    S    
C68   H66   S    
C69   H69   S    
C20   N1    A    
C44   H11   S    
C18   N1    A    
C61   O6    S    
C52   C53   S    
C5    C7    A    
C64   H59   S    
C7    C9    A    
C71   O8    S    
C54   C55   S    
C51   O3    S    
C7    H23   S    
C55   H37   S    
C47   H17   S    
C1    O10   A    
C34   C43   A    
C63   H54   S    
C3    C5    A    
C24   H73   S    
C54   O4    S    
C6    C8    A    
C57   H40   S    
C25   C27   S    
C20   O16   S    
C37   H4    S    
C26   C28   S    
C40   H1    S    
C1    C4    S    
C18   F1    S    
C55   C57   S    
C42   O5    S    
C69   H68   S    
O13   Zn2   S    
C29   C31   A    
C17   O15   A    
C14   C25   A    
C39   H6    S    
C30   C32   A    
C11   C13   T    
C66   H63   S    
O1    Zn1   S    
C64   C65   S    
C36   C38   A    
C3    C72   A    
C65   H60   S    
C63   H55   S    
C49   H22   S    
C61   C62   S    
C69   C70   S    
C50   H26   S    
C2    H8    S    
C58   O5    S    
O12   Zn1   S    
C53   H31   S    
C37   C39   A    
C49   C50   S    
C21   C24   A    
C27   C28   T    
O11   Zn1   S    
C68   H65   S    
C61   H51   S    
C29   C40   A    
C51   H27   S    
C43   O6    S    
C35   C45   S    
