data_mof_unit_58161.cif
_audit_creation_date              2012-10-26T19:45:11-0400
_audit_creation_method            fapswitch 2.2
_symmetry_space_group_name_H-M    P1
_symmetry_Int_Tables_number       1
_space_group_crystal_system       triclinic
_cell_length_a                    9.626923
_cell_length_b                    10.924016
_cell_length_c                    13.908421
_cell_angle_alpha                 92.746145
_cell_angle_beta                  84.709493
_cell_angle_gamma                 89.029828
_cell_volume                      1454.4356118

loop_
_atom_site_label
_atom_site_type_symbol
_atom_type_description
_atom_site_fract_x
_atom_site_fract_y
_atom_site_fract_z
_atom_type_partial_charge
C1    C     C_R   0.498172 0.737587 0.499310 0.541121
C2    C     C_R   0.936244 0.434563 0.429524 0.105456
C3    C     C_1   0.536865 0.498626 0.214685 0.052596
C4    C     C_1   0.463135 0.501361 0.785315 0.052601
C5    C     C_2   0.558422 0.496813 0.024236 0.025016
C6    C     C_2   0.441577 0.503134 0.975762 0.025019
C7    C     C_1   0.452613 0.502163 0.871961 -0.000412
C8    C     C_1   0.547386 0.497809 0.128038 -0.000406
C9    C     C_R   0.618389 0.931699 0.514255 -0.082354
C10   C     C_R   0.381611 0.068301 0.485745 -0.082352
C11   C     C_R   0.626706 0.058501 0.515966 -0.010512
C12   C     C_R   0.501828 0.262413 0.500690 0.541125
C13   C     C_R   0.373294 0.941499 0.484034 -0.010512
C14   C     C_2   0.831153 0.645361 0.642744 0.342644
C15   C     C_2   0.168846 0.354633 0.357260 0.342648
C16   C     C_2   0.126171 0.633739 0.650046 0.293162
C17   C     C_2   0.873829 0.366261 0.349953 0.293167
C18   C     C_2   0.295757 0.511543 0.022903 0.257840
C19   C     C_2   0.704242 0.488393 0.977094 0.257831
C20   C     C_2   0.763572 0.110890 0.535270 0.285748
C21   C     C_2   0.236428 0.889110 0.464730 0.285736
C22   C     C_R   0.505800 0.128291 0.500402 -0.036769
C23   C     C_R   0.494200 0.871709 0.499598 -0.036771
C24   C     C_R   0.477160 0.500507 0.682555 0.556224
C25   C     C_R   0.522840 0.499493 0.317445 0.556218
C26   C     C_R   0.915381 0.566607 0.569568 0.129684
C27   C     C_R   0.084619 0.433391 0.430432 0.129673
C28   C     C_R   0.063755 0.565437 0.570476 0.105459
Cu1   Cu    Cu3+1 0.359340 0.499980 0.500000 0.987460
Cu2   Cu    Cu3+1 0.640660 0.500020 0.500000 0.987468
H1    H     H_    0.712145 0.879272 0.522815 0.228511
H2    H     H_    0.192664 0.814124 0.504296 0.127360
H3    H     H_    0.287855 0.120728 0.477185 0.228513
H4    H     H_    0.781875 0.606623 0.707180 0.175578
H5    H     H_    0.218133 0.393367 0.292825 0.175617
H6    H     H_    0.215440 0.690515 0.635973 0.132670
H7    H     H_    0.784559 0.309486 0.364026 0.132669
H8    H     H_    0.209541 0.515441 0.977885 0.146041
H9    H     H_    0.790461 0.484582 0.022114 0.146040
H10   H     H_    0.807337 0.185874 0.495702 0.127360
N1    N     N_R   0.147930 0.499970 0.499980 -0.297933
N2    N     N_R   0.852070 0.500030 0.500020 -0.297931
O1    O     O_R   0.381260 0.680340 0.500000 -0.554944
O2    O     O_2   0.171375 0.243744 0.363628 -0.491018
O3    O     O_2   0.078970 0.625222 0.733973 -0.494651
O4    O     O_2   0.921032 0.374777 0.266027 -0.494625
O5    O     O_2   0.268869 0.514423 0.110477 -0.488456
O6    O     O_2   0.731126 0.485391 0.889517 -0.488430
O7    O     O_2   0.832786 0.066280 0.594631 -0.438570
O8    O     O_2   0.167212 0.933722 0.405371 -0.438580
O9    O     O_R   0.618740 0.319660 0.500000 -0.554940
O10   O     O_R   0.618830 0.680370 0.500010 -0.478789
O11   O     O_R   0.381170 0.319630 0.499990 -0.478793
O12   O     O_R   0.364420 0.499960 0.637840 -0.501149
O13   O     O_R   0.635580 0.500040 0.362160 -0.501154
O14   O     O_R   0.601990 0.499990 0.637850 -0.511584
O15   O     O_R   0.398010 0.500010 0.362150 -0.511593
O16   O     O_2   0.828612 0.756250 0.636376 -0.491027

loop_
_geom_bond_atom_site_label_1
_geom_bond_atom_site_label_2
_ccdc_geom_bond_type
C16   O3    D    
C14   H4    S    
C5    C8    S    
Cu2   O9    S    
C16   C28   S    
C6    C7    S    
C5    C19   S    
C24   O14   A    
C20   O7    D    
Cu2   O13   S    
C27   N1    A    
C11   C22   A    
C15   C27   S    
C12   O11   A    
C4    C24   S    
C2    C27   A    
C10   C22   A    
C18   O5    D    
C18   H8    S    
C13   C21   S    
C17   H7    S    
C14   C26   S    
C2    C17   S    
C9    C11   A    
C13   C23   A    
Cu1   Cu2   S    
C25   O15   A    
C2    N2    A    
C4    C7    T    
C6    C18   S    
C16   H6    S    
C19   H9    S    
C15   H5    S    
C21   O8    D    
C21   H2    S    
Cu1   O15   S    
C15   O2    D    
C1    C23   S    
C10   H3    S    
C5    C6    D    
C20   H10   S    
C1    O10   A    
C11   C20   S    
Cu1   O12   S    
C9    H1    S    
C24   O12   A    
Cu2   O14   S    
C12   C22   S    
C28   N1    A    
C3    C25   S    
C12   O9    A    
C17   O4    D    
C26   N2    A    
C3    C8    T    
Cu2   O10   S    
C19   O6    D    
Cu2   N2    S    
C9    C23   A    
Cu1   N1    S    
C26   C28   A    
C1    O1    A    
Cu1   O1    S    
C25   O13   A    
C14   O16   D    
Cu1   O11   S    
C10   C13   A    
