data_mof_unit_15984.cif
_audit_creation_date              2012-10-26T20:34:00-0400
_audit_creation_method            fapswitch 2.2
_symmetry_space_group_name_H-M    P1
_symmetry_Int_Tables_number       1
_space_group_crystal_system       triclinic
_cell_length_a                    15.902379
_cell_length_b                    9.081317
_cell_length_c                    7.78401
_cell_angle_alpha                 90.005113
_cell_angle_beta                  89.847108
_cell_angle_gamma                 89.981937
_cell_volume                      1124.12019779

loop_
_atom_site_label
_atom_site_type_symbol
_atom_type_description
_atom_site_fract_x
_atom_site_fract_y
_atom_site_fract_z
_atom_type_partial_charge
C1    C     C_R   0.500025 0.220031 0.499995 0.549192
C2    C     C_3   0.048573 0.456817 0.330055 -0.262563
C3    C     C_3   0.949949 0.431639 0.649552 -0.247665
C4    C     C_3   0.951487 0.455932 0.330585 -0.252506
C5    C     C_1   0.749681 0.506807 0.499025 -0.050274
C6    C     C_1   0.250243 0.505011 0.500921 -0.029007
C7    C     C_3   0.082813 0.521798 0.501884 0.073030
C8    C     C_3   0.917150 0.527118 0.498322 0.066143
C9    C     C_3   0.950228 0.693606 0.513696 0.364306
C10   C     C_3   0.052810 0.688300 0.527474 0.363073
C11   C     C_3   0.063720 0.708183 0.865502 -0.320001
C12   C     C_1   0.824987 0.515573 0.498050 -0.076820
C13   C     C_3   0.092609 0.937596 0.398827 -0.302949
C14   C     C_3   0.921582 0.922869 0.690104 -0.282753
C15   C     C_3   0.836219 0.809466 0.325836 -0.311016
C16   C     C_1   0.174891 0.511426 0.501571 -0.048195
C17   C     C_R   0.339751 0.500125 0.500239 0.543482
C18   C     C_R   0.660240 0.500170 0.499759 0.539427
C19   C     C_1   0.500059 0.934605 0.500003 -0.053755
C20   C     C_1   0.500052 0.065393 0.499990 -0.053611
C21   C     C_R   0.500041 0.779973 0.500004 0.548877
C22   C     C_3   0.046749 0.419974 0.644372 -0.240487
Cu1   Cu    Cu3+1 0.500000 0.500010 0.669080 1.017052
Cu2   Cu    Cu3+1 0.500000 0.500010 0.330920 1.017725
H1    H     H_    0.072421 0.514478 0.214584 0.097946
H2    H     H_    0.133482 0.981692 0.294990 0.128181
H3    H     H_    0.118735 0.977477 0.522192 0.149048
H4    H     H_    0.028712 0.983380 0.380079 0.159979
H5    H     H_    0.855516 0.726336 0.706192 0.233752
H6    H     H_    0.899387 0.952704 0.820932 0.116236
H7    H     H_    0.883032 0.984271 0.595814 0.142675
H8    H     H_    0.987577 0.959285 0.679292 0.177023
H9    H     H_    0.955025 0.751723 0.246391 0.231018
H10   H     H_    0.808129 0.722140 0.244262 0.143049
H11   H     H_    0.832154 0.914992 0.254413 0.133566
H12   H     H_    0.074341 0.440523 0.772077 0.123953
H13   H     H_    0.798753 0.820566 0.445319 0.159973
H14   H     H_    0.923368 0.318346 0.640539 0.111902
H15   H     H_    0.929244 0.339868 0.321311 0.120017
H16   H     H_    0.064222 0.303607 0.615943 0.106151
H17   H     H_    0.071189 0.341408 0.314611 0.117017
H18   H     H_    0.927064 0.512159 0.214247 0.113800
H19   H     H_    0.927552 0.475277 0.774490 0.112515
H20   H     H_    0.150501 0.773401 0.684175 0.258291
H21   H     H_    0.113268 0.638728 0.924764 0.116524
H22   H     H_    0.003009 0.651605 0.875713 0.165981
H23   H     H_    0.059396 0.810712 0.942612 0.138382
H24   H     H_    0.091872 0.738646 0.265954 0.223700
N1    N     N_1   0.500000 0.499970 0.076820 -0.080158
N2    N     N_1   0.500000 0.499970 0.923180 -0.080103
N3    N     N_2   0.087498 0.746422 0.690733 -0.485713
N4    N     N_2   0.091974 0.777576 0.389761 -0.511566
N5    N     N_2   0.913387 0.764607 0.666535 -0.492931
N6    N     N_2   0.924081 0.776332 0.359034 -0.505990
O1    O     O_R   0.500000 0.288400 0.642760 -0.495391
O2    O     O_R   0.500000 0.288400 0.357240 -0.495504
O3    O     O_R   0.379440 0.500020 0.642850 -0.498072
O4    O     O_R   0.379440 0.500020 0.357150 -0.495724
O5    O     O_R   0.620560 0.500020 0.642850 -0.499059
O6    O     O_R   0.620560 0.500020 0.357150 -0.499879
O7    O     O_R   0.500000 0.711620 0.642810 -0.495819
O8    O     O_R   0.500000 0.711620 0.357190 -0.495474

loop_
_geom_bond_atom_site_label_1
_geom_bond_atom_site_label_2
_ccdc_geom_bond_type
C7    C10   S    
C2    C4    S    
Cu1   Cu2   S    
C13   H4    S    
Cu1   O1    S    
C5    C18   S    
Cu2   O2    S    
C13   N4    S    
C22   H12   S    
C9    C10   S    
C14   H7    S    
C15   H10   S    
C11   H23   S    
C19   C20   T    
C1    C20   S    
C4    H15   S    
C8    C12   S    
C17   O4    A    
C4    C8    S    
C10   N4    S    
C17   O3    A    
C1    O1    A    
C22   H16   S    
Cu1   O5    S    
C3    H19   S    
C21   O8    A    
C4    H18   S    
C14   H6    S    
C10   N3    S    
Cu2   N1    S    
H20   N3    S    
C18   O6    A    
C7    C16   S    
C19   C21   S    
C1    O2    A    
C3    C8    S    
C2    H1    S    
C13   H2    S    
C11   H21   S    
C9    N5    S    
C2    H17   S    
C6    C16   T    
Cu2   O6    S    
C7    C22   S    
C15   N6    S    
C18   O5    A    
H24   N4    S    
C14   N5    S    
C11   N3    S    
C5    C12   T    
Cu2   O4    S    
N1    N2    T    
Cu1   N2    S    
Cu1   O7    S    
C15   H11   S    
H9    N6    S    
Cu1   O3    S    
C6    C17   S    
C13   H3    S    
C11   H22   S    
Cu2   O8    S    
C9    N6    S    
C3    C22   S    
C21   O7    A    
C15   H13   S    
C2    C7    S    
C3    H14   S    
C14   H8    S    
C8    C9    S    
H5    N5    S    
