data_mof_unit_42891.cif
_audit_creation_date              2012-12-11T17:14:05-0500
_audit_creation_method            fapswitch 2.2
_symmetry_space_group_name_H-M    P1
_symmetry_Int_Tables_number       1
_space_group_crystal_system       triclinic
_cell_length_a                    18.221905
_cell_length_b                    7.091171
_cell_length_c                    13.027529
_cell_angle_alpha                 90.238847
_cell_angle_beta                  71.942139
_cell_angle_gamma                 89.930702
_cell_volume                      1600.41305642

loop_
_atom_site_label
_atom_site_type_symbol
_atom_type_description
_atom_site_fract_x
_atom_site_fract_y
_atom_site_fract_z
_atom_type_partial_charge
O1    O     O_R   0.453880 0.506200 0.150010 -0.535816
O2    O     O_R   0.546120 0.006200 0.849990 -0.538946
O3    O     O_R   0.604080 0.177770 0.007280 -0.535005
O4    O     O_R   0.395920 0.677770 0.992720 -0.529001
C1    C     C_R   0.635952 0.344456 0.001896 0.741542
C2    C     C_R   0.364040 0.844600 0.998129 0.742830
O5    O     O_R   0.458010 0.176640 0.159130 -0.538380
O6    O     O_R   0.541990 0.676640 0.840870 -0.535226
O7    O     O_R   0.399010 0.004010 0.002930 -0.536460
O8    O     O_R   0.600990 0.504010 0.997070 -0.530449
C3    C     C_R   0.443329 0.345771 0.201700 0.698524
C4    C     C_R   0.556639 0.844649 0.798215 0.699184
O9    O     O_3   0.480810 0.338440 0.948570 -0.361287
O10   O     O_3   0.519190 0.838440 0.051430 -0.360236
V1    V     V_3+5 0.503560 0.064490 0.009540 1.499880
V2    V     V_3+5 0.496440 0.564490 0.990460 1.508148
C5    C     C_R   0.581510 0.817665 0.502091 -0.135747
C6    C     C_R   0.418535 0.395016 0.496993 -0.135365
H1    H     H_    0.484779 0.811623 0.646598 0.138366
H2    H     H_    0.515325 0.391653 0.352428 0.137422
H3    H     H_    0.544185 0.799323 0.452573 0.157462
H4    H     H_    0.455995 0.414725 0.546199 0.157079
C7    C     C_R   0.591985 0.849641 0.681296 -0.026412
C8    C     C_R   0.407751 0.356343 0.318410 -0.025647
C9    C     C_R   0.953326 0.883609 0.384473 -0.169742
C10   C     C_R   0.046460 0.332373 0.616306 -0.170371
C11   C     C_R   0.921358 0.890074 0.495937 -0.124238
C12   C     C_R   0.078384 0.317363 0.505077 -0.123822
C13   C     C_R   0.841683 0.879258 0.543528 -0.150829
C14   C     C_R   0.158087 0.326217 0.457156 -0.150759
C15   C     C_R   0.791350 0.861117 0.479916 0.078668
C16   C     C_R   0.208511 0.350411 0.520206 0.078543
C17   C     C_R   0.824750 0.851460 0.365729 0.030189
C18   C     C_R   0.175233 0.365888 0.634189 0.030158
C19   C     C_R   0.709263 0.852597 0.525762 0.047459
C20   C     C_R   0.290566 0.359429 0.474028 0.047502
C21   C     C_R   0.662327 0.830603 0.456761 0.093463
C22   C     C_R   0.337669 0.384026 0.542599 0.093371
C23   C     C_R   0.696984 0.820912 0.344166 0.112143
C24   C     C_R   0.303153 0.397443 0.655073 0.111655
C25   C     C_R   0.776736 0.832071 0.300173 -0.211763
C26   C     C_R   0.223370 0.388739 0.699322 -0.210489
C27   C     C_R   0.672029 0.864194 0.638374 -0.204453
C28   C     C_R   0.327632 0.345118 0.361519 -0.204143
C29   C     C_R   0.546876 0.825424 0.613360 -0.159744
C30   C     C_R   0.453102 0.381816 0.385874 -0.159943
C31   C     C_R   0.905946 0.863679 0.318943 -0.057927
C32   C     C_R   0.093997 0.356896 0.681242 -0.057361
H5    H     H_    0.703304 0.881123 0.695665 0.092831
H6    H     H_    0.296242 0.326345 0.304503 0.092162
H7    H     H_    0.015361 0.895119 0.348981 0.102249
H8    H     H_    0.984351 0.324259 0.652067 0.102258
H9    H     H_    0.821777 0.885596 0.630322 0.105458
H10   H     H_    0.177943 0.313213 0.370588 0.105412
H11   H     H_    0.958618 0.905048 0.546052 0.126991
H12   H     H_    0.041046 0.298160 0.455392 0.126876
H13   H     H_    0.800880 0.824622 0.213171 0.147281
H14   H     H_    0.199314 0.399959 0.786218 0.146165
C33   C     C_1   0.216351 0.858663 0.000144 -0.163680
C34   C     C_1   0.783642 0.358867 0.999878 -0.163026
C35   C     C_1   0.283642 0.852703 0.998958 -0.144028
C36   C     C_1   0.716351 0.352510 0.001079 -0.143526
O11   O     O_R   0.899030 0.205490 0.002790 -0.534604
O12   O     O_R   0.100970 0.705490 0.997210 -0.534325
O13   O     O_R   0.042000 0.536370 0.840840 -0.540850
O14   O     O_R   0.958000 0.036370 0.159160 -0.540258
C37   C     C_R   0.057550 0.367670 0.798298 0.678044
C38   C     C_R   0.942289 0.868842 0.201740 0.678334
O15   O     O_R   0.895930 0.535070 0.992690 -0.538195
O16   O     O_R   0.104070 0.035070 0.007310 -0.538496
O17   O     O_R   0.953870 0.707520 0.150040 -0.538826
O18   O     O_R   0.046130 0.207520 0.849960 -0.537763
C39   C     C_R   0.864102 0.366829 0.998800 0.728463
C40   C     C_R   0.135897 0.866671 0.001212 0.728952
O19   O     O_3   0.019200 0.374340 0.051340 -0.374506
O20   O     O_3   0.980800 0.874340 0.948660 -0.374615
V3    V     V_3+5 0.996440 0.648350 0.990470 1.439742
V4    V     V_3+5 0.003560 0.148350 0.009530 1.440943
I1    I     I_    0.633897 0.789735 0.232165 -0.449670
I2    I     I_    0.366569 0.429649 0.766503 -0.449823

loop_
_geom_bond_atom_site_label_1
_geom_bond_atom_site_label_2
_ccdc_geom_bond_type
O14   C38   A    
C7    C29   A    
O16   V4    S    
O12   V3    S    
C34   C39   S    
O15   V3    S    
C18   C26   A    
O2    C4    A    
C26   H14   S    
C2    O7    A    
C12   H12   S    
C23   C25   A    
O5    C3    A    
C14   H10   S    
C4    C7    S    
C16   C20   A    
C2    C35   S    
C19   C21   A    
C5    C29   A    
C11   H11   S    
C11   C13   A    
C3    C8    S    
C7    C27   A    
C34   C36   T    
C37   O18   A    
O18   V4    S    
O13   C37   A    
O1    C3    A    
O16   C40   A    
C24   I2    S    
O15   C39   A    
C14   C16   A    
C19   C27   A    
C9    C31   A    
C10   C32   A    
C24   C26   A    
O6    V2    S    
C6    C30   A    
O14   V4    S    
C33   C35   T    
O13   V3    S    
O20   V3    S    
O4    C2    A    
C27   H5    S    
O5    V1    S    
O11   C39   A    
C5    H3    S    
C23   I1    S    
O4    V2    S    
C9    H7    S    
C10   H8    S    
O6    C4    A    
C15   C17   A    
O1    V2    S    
C5    C21   A    
O2    V1    S    
O19   V3    S    
C33   C40   S    
C17   C31   A    
C15   C19   A    
C20   C28   A    
C18   C32   A    
C31   C38   S    
O17   V3    S    
O3    V1    S    
C28   H6    S    
C6    H4    S    
O20   V4    S    
O3    C1    A    
H1    C29   S    
C9    C11   A    
C10   C12   A    
C17   C25   A    
C12   C14   A    
C6    C22   A    
C25   H13   S    
C1    O8    A    
C21   C23   A    
O8    V2    S    
C22   C24   A    
C13   H9    S    
C38   O17   A    
C8    C28   A    
C20   C22   A    
C1    C36   S    
C32   C37   S    
O7    V1    S    
O19   V4    S    
C13   C15   A    
O9    V2    S    
O12   C40   A    
O10   V1    S    
H2    C30   S    
C16   C18   A    
C8    C30   A    
O11   V4    S    
