data_mof_unit_18409.cif
_audit_creation_date              2012-12-10T20:28:42-0500
_audit_creation_method            fapswitch 2.2
_symmetry_space_group_name_H-M    P1
_symmetry_Int_Tables_number       1
_space_group_crystal_system       triclinic
_cell_length_a                    10.632388
_cell_length_b                    10.663982
_cell_length_c                    9.866907
_cell_angle_alpha                 89.947816
_cell_angle_beta                  89.89968
_cell_angle_gamma                 89.873672
_cell_volume                      1118.74048554

loop_
_atom_site_label
_atom_site_type_symbol
_atom_type_description
_atom_site_fract_x
_atom_site_fract_y
_atom_site_fract_z
_atom_type_partial_charge
C1    C     C_R   0.504535 0.259896 0.500045 0.879441
C2    C     C_R   0.547330 0.935137 0.377742 -0.220757
C3    C     C_R   0.527471 0.871195 0.500191 -0.100679
C4    C     C_R   0.260469 0.503607 0.500111 0.874105
C5    C     C_R   0.533786 0.935817 0.622617 0.115593
C6    C     C_3   0.451655 0.928638 0.745566 -0.479769
C7    C     C_3   0.450488 0.070782 0.745016 -0.487299
C8    C     C_R   0.438539 0.408141 0.071428 0.212879
C9    C     C_R   0.569767 0.583948 0.071738 -0.126296
C10   C     C_R   0.569790 0.583958 0.927747 -0.127981
C11   C     C_R   0.438459 0.408213 0.928903 0.212965
C12   C     C_R   0.065412 0.611773 0.565740 0.097174
C13   C     C_3   0.301151 0.380625 0.923654 -0.503042
C14   C     C_3   0.301328 0.380275 0.077549 -0.509810
C15   C     C_R   0.504703 0.740066 0.499953 0.852896
C16   C     C_R   0.739494 0.503572 0.499866 0.863053
C17   C     C_R   0.130153 0.712238 0.627792 -0.192166
C18   C     C_R   0.064110 0.809879 0.689620 -0.140314
C19   C     C_R   0.933240 0.809996 0.689290 -0.135421
C20   C     C_R   0.867986 0.712495 0.627158 -0.189321
C21   C     C_R   0.933573 0.611900 0.565406 0.097715
C22   C     C_R   0.128192 0.512234 0.499888 -0.102429
C23   C     C_R   0.064549 0.418478 0.430412 -0.221056
C24   C     C_R   0.936082 0.418528 0.430196 -0.206452
C25   C     C_R   0.871658 0.512413 0.499324 -0.095589
C26   C     C_R   0.533184 0.063778 0.622546 0.141929
C27   C     C_R   0.526931 0.128587 0.500182 -0.106126
C28   C     C_R   0.547049 0.064777 0.377731 -0.232874
H1    H     H_    0.114688 0.343695 0.378807 0.149669
H2    H     H_    0.282367 0.286331 0.121897 0.197231
H3    H     H_    0.231600 0.717434 0.627193 0.144784
H4    H     H_    0.114570 0.886355 0.736647 0.131060
H5    H     H_    0.882070 0.886502 0.736038 0.134172
H6    H     H_    0.766491 0.718054 0.626282 0.142369
H7    H     H_    0.886546 0.343674 0.378617 0.152478
H8    H     H_    0.552778 0.113752 0.281673 0.170544
H9    H     H_    0.553191 0.886284 0.281703 0.167427
H10   H     H_    0.358096 0.887000 0.724372 0.198521
H11   H     H_    0.501937 0.888029 0.834082 0.199679
H12   H     H_    0.356319 0.111305 0.722550 0.197550
H13   H     H_    0.499623 0.112468 0.833494 0.202844
H14   H     H_    0.624136 0.653295 0.125879 0.144020
H15   H     H_    0.624206 0.653276 0.873236 0.143217
H16   H     H_    0.245453 0.458992 0.879537 0.227945
H17   H     H_    0.281661 0.286956 0.879319 0.195354
H18   H     H_    0.245527 0.458292 0.122246 0.227884
N1    N     N_R   0.499160 0.499140 0.142800 -0.106421
N2    N     N_R   0.499160 0.499180 0.857150 -0.105522
O1    O     O_R   0.500020 0.316790 0.614690 -0.612058
O2    O     O_R   0.500000 0.316760 0.385350 -0.624257
O3    O     O_R   0.316770 0.500020 0.614690 -0.623364
O4    O     O_R   0.316760 0.499980 0.385350 -0.613458
O5    O     O_R   0.500000 0.683240 0.614650 -0.632655
O6    O     O_R   0.499980 0.683210 0.385310 -0.621863
O7    O     O_R   0.683240 0.500020 0.614650 -0.619816
O8    O     O_R   0.683230 0.499980 0.385310 -0.616410
Zn1   Zn    Zn3+2 0.500010 0.500020 0.653130 0.936947
Zn2   Zn    Zn3+2 0.499990 0.499980 0.346870 0.941758

loop_
_geom_bond_atom_site_label_1
_geom_bond_atom_site_label_2
_ccdc_geom_bond_type
C12   C17   A    
C2    C28   A    
C23   C24   A    
C16   O8    A    
C6    C7    S    
O3    Zn1   S    
C1    O2    A    
C12   C22   A    
C4    C22   S    
C9    C10   A    
C19   C20   A    
C7    H12   S    
C20   H6    S    
C6    H10   S    
C17   C18   A    
C9    H14   S    
C16   O7    A    
O1    Zn1   S    
N2    Zn1   S    
C14   H18   S    
C13   C14   S    
C24   C25   A    
N1    Zn2   S    
C13   H17   S    
C11   C13   S    
C2    H9    S    
C11   N2    A    
C7    C26   S    
O4    Zn2   S    
C14   H2    S    
C8    C11   A    
C23   H1    S    
O8    Zn2   S    
C9    N1    A    
C10   N2    A    
C2    C3    A    
C4    O4    A    
O7    Zn1   S    
C26   C27   A    
C5    C6    S    
C17   H3    S    
C8    N1    A    
C24   H7    S    
C18   H4    S    
C4    O3    A    
C5    C26   A    
O2    Zn2   S    
C15   O6    A    
C15   O5    A    
C27   C28   A    
C3    C15   S    
C20   C21   A    
C28   H8    S    
C18   C19   A    
O6    Zn2   S    
C16   C25   S    
C1    C27   S    
C21   C25   A    
C22   C23   A    
C8    C14   S    
C10   H15   S    
C6    H11   S    
C1    O1    A    
C12   C21   A    
C13   H16   S    
C7    H13   S    
C19   H5    S    
C3    C5    A    
O5    Zn1   S    
