data_mof_unit_65602.cif
_audit_creation_date              2013-03-05T16:25:14-0500
_audit_creation_method            fapswitch 2.2
_symmetry_space_group_name_H-M    P1
_symmetry_Int_Tables_number       1
_space_group_crystal_system       triclinic
_cell_length_a                    15.13533
_cell_length_b                    13.859267
_cell_length_c                    17.701599
_cell_angle_alpha                 89.979336
_cell_angle_beta                  90.145988
_cell_angle_gamma                 90.046956
_cell_volume                      3713.15493365

loop_
_atom_site_label
_atom_site_type_symbol
_atom_site_description
_atom_site_fract_x
_atom_site_fract_y
_atom_site_fract_z
_atom_type_partial_charge
O1    O     O_R   0.371460 0.581430 0.500010 -0.567409
O2    O     O_R   0.628540 0.418570 0.499990 -0.579592
O3    O     O_R   0.628540 0.581430 0.499990 -0.596000
O4    O     O_R   0.371460 0.418570 0.500010 -0.604894
C1    C     C_R   0.329877 0.499972 0.499876 0.833351
C2    C     C_R   0.670121 0.500015 0.499950 0.832123
O5    O     O_R   0.500000 0.581470 0.391250 -0.574488
O6    O     O_R   0.500000 0.418530 0.608750 -0.558360
O7    O     O_R   0.500000 0.581470 0.608750 -0.572747
O8    O     O_R   0.500000 0.418530 0.391250 -0.557154
C3    C     C_R   0.499928 0.499996 0.355747 0.928307
C4    C     C_R   0.500084 0.499986 0.644185 0.933403
Cu1   Cu    Cu3+1 0.500000 0.596430 0.500000 0.998185
Cu2   Cu    Cu3+1 0.500000 0.403570 0.500000 1.005584
C5    C     C_R   0.428898 0.541067 0.845422 0.280462
C6    C     C_R   0.568997 0.453457 0.154475 0.278410
C7    C     C_R   0.431420 0.546043 0.153925 0.285243
C8    C     C_R   0.571880 0.458613 0.845580 0.285125
C9    C     C_R   0.429010 0.541314 0.766117 0.149026
C10   C     C_R   0.569027 0.453915 0.233788 0.148639
C11   C     C_R   0.431015 0.545549 0.233236 0.138115
C12   C     C_R   0.571550 0.458508 0.766263 0.145599
C13   C     C_R   0.500221 0.499947 0.726730 -0.257390
C14   C     C_R   0.500026 0.499911 0.273086 -0.258573
C15   C     C_R   0.500442 0.499818 0.884846 -0.225317
C16   C     C_R   0.500331 0.499808 0.114879 -0.222646
C17   C     C_1   0.500508 0.499766 0.965970 0.202411
C18   C     C_1   0.500474 0.499770 0.033755 0.203368
C19   C     C_R   0.095291 0.582351 0.522513 -0.130785
C20   C     C_R   0.904811 0.417480 0.522637 -0.127868
C21   C     C_R   0.904746 0.582276 0.476320 -0.130567
C22   C     C_R   0.095136 0.417521 0.476365 -0.127780
H1    H     H_    0.060920 0.646219 0.541796 0.145470
H2    H     H_    0.939281 0.353603 0.541959 0.144071
H3    H     H_    0.939157 0.646125 0.456890 0.145510
H4    H     H_    0.060625 0.353633 0.457027 0.143963
C23   C     C_R   0.187109 0.582595 0.522104 -0.108708
C24   C     C_R   0.812982 0.417309 0.522292 -0.108524
C25   C     C_R   0.812921 0.582547 0.477005 -0.152155
C26   C     C_R   0.186973 0.417323 0.476987 -0.149699
H5    H     H_    0.221805 0.646901 0.540399 0.177593
H6    H     H_    0.778364 0.353045 0.540672 0.163205
H7    H     H_    0.778247 0.646833 0.458741 0.162217
H8    H     H_    0.221567 0.353047 0.458771 0.148811
C27   C     C_R   0.233430 0.499948 0.499661 -0.018757
C28   C     C_R   0.766565 0.499979 0.499778 -0.018659
C29   C     C_R   0.048558 0.499915 0.499409 0.095382
C30   C     C_R   0.951434 0.499869 0.499421 0.095397
C31   C     C_R   0.568073 0.107991 0.535287 -0.248258
C32   C     C_R   0.458878 0.892136 0.441842 -0.249721
C33   C     C_R   0.431941 0.107862 0.464838 -0.249037
C34   C     C_R   0.541139 0.892088 0.558285 -0.249654
H9    H     H_    0.623236 0.072072 0.562145 0.144485
H10   H     H_    0.427550 0.928110 0.394647 0.154315
H11   H     H_    0.376765 0.071843 0.438022 0.142368
H12   H     H_    0.572482 0.928045 0.605487 0.150341
C35   C     C_R   0.566445 0.209470 0.535079 0.126036
C36   C     C_R   0.459068 0.790668 0.443205 0.106278
C37   C     C_R   0.433562 0.209339 0.464966 0.110157
C38   C     C_R   0.540930 0.790597 0.556860 0.110276
H13   H     H_    0.618936 0.248793 0.562965 0.145751
H14   H     H_    0.426534 0.751495 0.398284 0.169308
H15   H     H_    0.381055 0.248562 0.437078 0.124743
H16   H     H_    0.573483 0.751320 0.601773 0.140474
N1    N     N_R   0.500000 0.258690 0.500000 -0.181272
N2    N     N_R   0.500000 0.741310 0.500000 -0.187267
C39   C     C_R   0.500011 0.054701 0.500076 0.125445
C40   C     C_R   0.500013 0.945341 0.500075 0.118433
N3    N     N_R   0.355688 0.581609 0.885868 0.179521
O9    O     O_R   0.333471 0.671316 0.875533 -0.235246
O10   O     O_R   0.312108 0.529478 0.934269 -0.264330
N4    N     N_R   0.638465 0.405603 0.114137 0.178174
O11   O     O_R   0.619893 0.336949 0.066543 -0.270163
O12   O     O_R   0.720120 0.432925 0.122741 -0.230767
N5    N     N_R   0.362021 0.593703 0.113019 0.178357
O13   O     O_R   0.280403 0.566070 0.120938 -0.228416
O14   O     O_R   0.380664 0.662293 0.065444 -0.272281
N6    N     N_R   0.645142 0.417879 0.886191 0.180124
O15   O     O_R   0.667377 0.328236 0.875691 -0.235653
O16   O     O_R   0.688634 0.469690 0.935021 -0.265826
Br1   Br    Br    0.327972 0.590935 0.711809 -0.401259
Br2   Br    Br    0.663778 0.391082 0.288056 -0.378630
Br3   Br    Br    0.335317 0.607046 0.286719 -0.424737
Br4   Br    Br    0.672405 0.408936 0.712132 -0.432964

loop_
_geom_bond_atom_site_label_1
_geom_bond_atom_site_label_2
_geom_bond_distance
_ccdc_geom_bond_type
C36   H14   1.080451 S    
C10   Br2   1.931880 S    
C6    N4    1.435455 S    
O3    C2    1.292451 A    
C5    C9    1.403834 A    
C4    C13   1.461175 S    
C32   H10   1.081387 S    
C19   C29   1.403709 A    
O1    C1    1.292078 A    
C7    C16   1.407563 A    
C22   H4    1.082848 S    
C20   C30   1.403737 A    
C6    C10   1.403984 A    
C24   H6    1.083302 S    
N6    O16   1.301082 A    
C5    C15   1.408285 A    
C19   H1    1.082840 S    
C3    C14   1.463241 S    
C31   C35   1.406670 A    
C20   C24   1.389866 A    
N3    O10   1.301071 A    
O7    Cu1   1.936108 S    
C34   C38   1.406831 A    
C36   N2    1.363648 A    
C10   C14   1.409276 A    
C2    C28   1.459722 S    
C34   C40   1.410974 A    
O6    C4    1.291673 A    
C38   N2    1.363847 A    
Cu1   Cu2   2.672900 S    
O4    Cu2   1.956742 S    
O2    C2    1.291912 A    
C8    C15   1.408359 A    
O5    C3    1.292482 A    
Cu1   N2    2.007929 S    
C6    C16   1.407518 A    
C26   C27   1.401565 A    
C5    N3    1.435779 S    
C20   H2    1.082834 S    
C39   C40   1.515641 S    
C32   C36   1.406482 A    
C11   Br3   1.931380 S    
N4    O12   1.300881 A    
O8    Cu2   1.936108 S    
N6    O15   1.300963 A    
N4    O11   1.301186 A    
C25   H7    1.083264 S    
C1    C27   1.459754 S    
C7    C11   1.403980 A    
C12   Br4   1.931302 S    
C9    C13   1.407695 A    
N5    O13   1.300925 A    
C29   C30   1.470001 S    
O5    Cu1   1.936256 S    
C8    N6    1.435865 S    
C33   C39   1.411027 A    
N5    O14   1.301038 A    
C25   C28   1.401443 A    
C21   C30   1.403727 A    
C22   C29   1.403754 A    
C21   H3    1.082845 S    
O1    Cu1   1.956403 S    
C23   C27   1.401567 A    
O6    Cu2   1.936256 S    
C31   C39   1.411020 A    
C8    C12   1.404032 A    
C37   H15   1.081336 S    
C35   N1    1.363787 A    
O4    C1    1.292301 A    
O3    Cu1   1.956739 S    
C35   H13   1.081363 S    
C15   C17   1.436010 S    
C16   C18   1.436023 S    
C38   H16   1.081327 S    
C37   N1    1.363656 A    
C31   H9    1.081388 S    
Cu2   N1    2.007929 S    
C21   C25   1.389879 A    
C33   H11   1.081381 S    
C22   C26   1.389999 A    
C23   H5    1.083285 S    
N3    O9    1.300956 A    
O2    Cu2   1.956400 S    
O7    C4    1.291622 A    
C24   C28   1.401668 A    
O8    C3    1.291980 A    
C26   H8    1.083288 S    
C33   C37   1.406596 A    
C11   C14   1.409137 A    
C19   C23   1.389743 A    
C17   C18   1.199922 T    
C7    N5    1.435550 S    
C12   C13   1.407809 A    
C9    Br1   1.931176 S    
C32   C40   1.410831 A    
C34   H12   1.081394 S    
