data_mof_unit_10309.cif
_audit_creation_date              2012-12-11T14:08:21-0500
_audit_creation_method            fapswitch 2.2
_symmetry_space_group_name_H-M    P1
_symmetry_Int_Tables_number       1
_space_group_crystal_system       triclinic
_cell_length_a                    10.91569
_cell_length_b                    10.981932
_cell_length_c                    18.708469
_cell_angle_alpha                 90.147878
_cell_angle_beta                  89.507045
_cell_angle_gamma                 60.06086
_cell_volume                      1943.27870865

loop_
_atom_site_label
_atom_site_type_symbol
_atom_type_description
_atom_site_fract_x
_atom_site_fract_y
_atom_site_fract_z
_atom_type_partial_charge
C1    C     C_R   0.237931 0.644760 0.609421 0.548431
C2    C     C_3   0.822653 0.523571 0.787016 -0.231801
C3    C     C_3   0.695285 0.664205 0.815265 0.059046
C4    C     C_3   0.656937 0.621947 0.682447 0.042986
C5    C     C_3   0.630060 0.775457 0.691141 -0.111487
C6    C     C_3   0.810222 0.508787 0.707538 -0.096010
C7    C     C_2   0.667882 0.170640 0.674169 -0.138177
C8    C     C_2   0.685148 0.176091 0.830539 -0.118821
C9    C     C_2   0.796061 0.138263 0.786215 -0.182245
C10   C     C_2   0.776161 0.168234 0.709120 -0.186962
C11   C     C_2   0.190249 0.657098 0.683784 -0.118984
C12   C     C_R   0.630896 0.590761 0.609631 0.578680
C13   C     C_2   0.205632 0.658357 0.841684 -0.048619
C14   C     C_2   0.227217 0.544726 0.803267 0.003502
C15   C     C_2   0.248309 0.541315 0.725097 -0.194647
C16   C     C_2   0.650862 0.646609 0.317402 -0.092236
C17   C     C_2   0.632807 0.666579 0.159995 -0.109500
C18   C     C_2   0.706305 0.546735 0.195586 -0.159916
C19   C     C_2   0.687903 0.537864 0.272112 -0.152389
C20   C     C_2   0.674260 0.139560 0.332931 -0.105091
C21   C     C_2   0.650870 0.147310 0.178852 -0.096271
C22   C     C_2   0.608348 0.077195 0.221848 -0.153233
C23   C     C_R   0.626553 0.230813 0.602958 0.539256
C24   C     C_2   0.592254 0.101811 0.298173 -0.158915
C25   C     C_2   0.122480 0.681220 0.345076 -0.094095
C26   C     C_2   0.112474 0.691385 0.190777 -0.088927
C27   C     C_2   0.042682 0.804476 0.234230 -0.148734
C28   C     C_2   0.075732 0.799970 0.309251 -0.162984
C29   C     C_R   0.702406 0.104302 0.898331 0.576161
C30   C     C_R   0.721561 0.685716 0.889723 0.585165
C31   C     C_R   0.123181 0.704077 0.908717 0.618909
C32   C     C_R   0.675119 0.105744 0.104961 0.549292
C33   C     C_R   0.691888 0.688966 0.094844 0.541904
C34   C     C_R   0.215777 0.651374 0.404568 0.565907
C35   C     C_R   0.085723 0.713705 0.115416 0.549464
C36   C     C_R   0.641953 0.621338 0.392738 0.578366
C37   C     C_R   0.621389 0.223195 0.397207 0.557437
C38   C     C_3   0.561603 0.650145 0.809980 -0.286241
C39   C     C_3   0.548421 0.609528 0.732522 -0.301602
C40   C     C_3   0.674109 0.792505 0.767898 -0.105202
Cr1   Cr    Cr6+3 0.393010 0.398050 0.501480 1.059815
Cr2   Cr    Cr6+3 0.398820 0.707980 0.501630 1.042344
Cr3   Cr    Cr6+3 0.708140 0.393940 0.496850 1.060355
Cr4   Cr    Cr6+3 0.937950 0.938450 0.008940 1.032244
Cr5   Cr    Cr6+3 0.626180 0.937030 0.994750 1.051944
Cr6   Cr    Cr6+3 0.937790 0.625760 0.001410 1.084794
H1    H     H_    0.466082 0.751371 0.825037 0.125614
H2    H     H_    0.903526 0.074955 0.805215 0.163489
H3    H     H_    0.853500 0.184779 0.680625 0.160962
H4    H     H_    0.577968 0.240945 0.811423 0.118516
H5    H     H_    0.596585 0.143962 0.701798 0.086708
H6    H     H_    0.315096 0.438470 0.700859 0.150364
H7    H     H_    0.224080 0.736734 0.816261 0.068797
H8    H     H_    0.567706 0.568509 0.847283 0.127754
H9    H     H_    0.123686 0.761096 0.706614 0.120892
H10   H     H_    0.792542 0.454546 0.169861 0.154930
H11   H     H_    0.718362 0.433940 0.292423 0.147007
H12   H     H_    0.541229 0.756066 0.184298 0.105086
H13   H     H_    0.619142 0.751904 0.299105 0.090711
H14   H     H_    0.578003 0.004087 0.200285 0.151039
H15   H     H_    0.501698 0.103613 0.323875 0.159917
H16   H     H_    0.682182 0.220507 0.198952 0.084399
H17   H     H_    0.769753 0.128900 0.308289 0.093895
H18   H     H_    0.970910 0.907780 0.212752 0.157688
H19   H     H_    0.567367 0.500025 0.731285 0.118233
H20   H     H_    0.079530 0.889425 0.331639 0.154752
H21   H     H_    0.185576 0.586776 0.210004 0.095286
H22   H     H_    0.109901 0.595725 0.324033 0.115798
H23   H     H_    0.438413 0.679416 0.714184 0.131715
H24   H     H_    0.583676 0.890095 0.790820 0.104524
H25   H     H_    0.513237 0.846159 0.688767 0.100398
H26   H     H_    0.926650 0.514064 0.799403 0.179108
H27   H     H_    0.823128 0.433610 0.814845 0.116183
H28   H     H_    0.823406 0.402838 0.698581 0.137530
O1    O     O_R   0.507110 0.256280 0.580300 -0.514397
O2    O     O_R   0.524640 0.695370 0.425100 -0.485684
O3    O     O_R   0.735890 0.504390 0.415980 -0.496181
O4    O     O_R   0.690560 0.277820 0.422350 -0.510282
O5    O     O_3   0.499990 0.499990 0.499980 -0.289865
O6    O     O_R   0.089190 0.825870 0.932320 -0.530841
O7    O     O_R   0.819070 0.053960 0.931440 -0.492023
O8    O     O_R   0.607070 0.076440 0.916460 -0.488892
O9    O     O_R   0.647110 0.806550 0.917690 -0.506760
O10   O     O_R   0.837080 0.593860 0.915300 -0.507884
O11   O     O_R   0.064770 0.636080 0.932550 -0.417488
O12   O     O_R   0.280830 0.527190 0.577940 -0.476884
O13   O     O_R   0.068250 0.829200 0.092940 -0.520482
O14   O     O_R   0.799650 0.057040 0.080330 -0.510279
O15   O     O_R   0.586130 0.079760 0.077080 -0.502521
O16   O     O_R   0.627700 0.809630 0.066580 -0.510015
O17   O     O_R   0.816140 0.597180 0.075920 -0.514182
O18   O     O_R   0.045360 0.639170 0.081440 -0.492208
O19   O     O_3   0.833980 0.833750 0.001700 -0.257340
O20   O     O_R   0.261360 0.738990 0.584270 -0.525721
O21   O     O_R   0.532590 0.694780 0.574370 -0.484243
O22   O     O_R   0.744470 0.503750 0.577000 -0.447572
O23   O     O_R   0.698520 0.277230 0.571620 -0.512561
O24   O     O_R   0.498530 0.256920 0.419280 -0.505928
O25   O     O_R   0.272880 0.527780 0.428680 -0.490948
O26   O     O_R   0.252780 0.739630 0.423250 -0.512237
C41   C     C_2   0.931917 0.511596 0.669030 0.298271
H29   H     H_    0.947071 0.601385 0.674117 0.166828
O27   O     O_2   0.017637 0.410147 0.634013 -0.496842
C42   C     C_2   0.797817 0.819368 0.768299 0.183609
H30   H     H_    0.792810 0.904251 0.737155 0.112072
O28   O     O_2   0.902890 0.749303 0.803596 -0.535244
C43   C     C_2   0.683950 0.831460 0.631396 0.201931
H31   H     H_    0.647503 0.942788 0.630005 0.100054
O29   O     O_2   0.763048 0.756696 0.583771 -0.472690
C44   C     C_2   0.237487 0.416675 0.835619 0.241544
H32   H     H_    0.217321 0.346790 0.803000 0.099418
O30   O     O_2   0.276328 0.383620 0.897096 -0.499744

loop_
_geom_bond_atom_site_label_1
_geom_bond_atom_site_label_2
_ccdc_geom_bond_type
C7    C10   D    
C24   H15   S    
C31   O11   A    
C43   O29   D    
Cr5   O8    S    
C1    C11   S    
Cr5   O19   S    
C42   O28   D    
C31   O6    A    
Cr5   O9    S    
C19   H11   S    
C25   C28   D    
Cr1   O12   S    
C26   C27   D    
C41   H29   S    
C40   H24   S    
C26   H21   S    
C36   O3    A    
C33   O17   A    
C22   H14   S    
C38   C39   S    
C40   C42   S    
C35   O13   A    
C32   O14   A    
C18   C19   S    
C6    C41   S    
C30   O9    A    
C44   H32   S    
C37   O24   A    
Cr4   O19   S    
C36   O2    A    
C11   C15   D    
C20   C24   D    
C3    C38   S    
C8    C9    D    
C34   O26   A    
C43   H31   S    
Cr1   O25   S    
C12   O21   A    
C4    C12   S    
Cr4   O13   S    
Cr5   O15   S    
C9    C10   S    
C18   H10   S    
C25   C34   S    
Cr6   O11   S    
C35   O18   A    
Cr2   O5    S    
C41   O27   D    
C13   C14   D    
C39   H19   S    
C2    C6    S    
C25   H22   S    
C17   C33   S    
C2    H26   S    
C42   H30   S    
C6    H28   S    
C13   H7    S    
C21   C32   S    
Cr2   O21   S    
Cr4   O6    S    
C4    C6    S    
Cr4   O7    S    
C1    O20   A    
Cr6   O17   S    
Cr3   O4    S    
C16   H13   S    
C3    C30   S    
C28   H20   S    
C29   O7    A    
Cr2   O26   S    
Cr1   O1    S    
Cr3   O22   S    
C32   O15   A    
C38   H8    S    
C4    C39   S    
C14   C15   S    
C17   C18   D    
C39   H23   S    
C15   H6    S    
Cr5   O16   S    
C38   H1    S    
C2    H27   S    
Cr6   O10   S    
C23   O23   A    
C3    C40   S    
C22   C24   S    
C8    C29   S    
C8    H4    S    
C11   H9    S    
C5    C43   S    
C1    O12   A    
C14   C44   S    
Cr2   O20   S    
C13   C31   S    
Cr3   O23   S    
C23   O1    A    
C4    C5    S    
Cr1   O5    S    
Cr3   O3    S    
C34   O25   A    
C37   O4    A    
C17   H12   S    
Cr2   O2    S    
C20   H17   S    
C2    C3    S    
C7    H5    S    
C29   O8    A    
C5    H25   S    
Cr4   O14   S    
C33   O16   A    
C16   C36   S    
C20   C37   S    
Cr6   O19   S    
C16   C19   D    
C7    C23   S    
C30   O10   A    
C44   O30   D    
C27   H18   S    
C26   C35   S    
Cr6   O18   S    
C9    H2    S    
C5    C40   S    
C27   C28   S    
Cr1   O24   S    
C12   O22   A    
C21   H16   S    
C21   C22   D    
C10   H3    S    
Cr3   O5    S    
