data_mof_unit_9955.cif
_audit_creation_date              2013-03-05T15:46:34-0500
_audit_creation_method            fapswitch 2.2
_symmetry_space_group_name_H-M    P1
_symmetry_Int_Tables_number       1
_space_group_crystal_system       triclinic
_cell_length_a                    10.154836
_cell_length_b                    10.635309
_cell_length_c                    10.795925
_cell_angle_alpha                 91.149491
_cell_angle_beta                  95.737712
_cell_angle_gamma                 79.292827
_cell_volume                      1139.91699877

loop_
_atom_site_label
_atom_site_type_symbol
_atom_site_description
_atom_site_fract_x
_atom_site_fract_y
_atom_site_fract_z
_atom_type_partial_charge
O1    O     O_R   0.568940 0.489660 0.307530 -0.637568
O2    O     O_R   0.431060 0.510340 0.692470 -0.633491
O3    O     O_R   0.348880 0.522640 0.340350 -0.560476
O4    O     O_R   0.651120 0.477360 0.659650 -0.560212
C1    C     C_R   0.443688 0.504265 0.267040 0.938849
C2    C     C_R   0.556556 0.487820 0.732846 0.947717
O5    O     O_R   0.610030 0.300280 0.483580 -0.636763
O6    O     O_R   0.389970 0.699720 0.516420 -0.633797
O7    O     O_R   0.389970 0.333270 0.516400 -0.566960
O8    O     O_R   0.610030 0.666730 0.483600 -0.564063
C3    C     C_R   0.507271 0.259173 0.515195 0.884866
C4    C     C_R   0.492919 0.741008 0.485456 0.892891
Zn1   Zn    Zn3+2 0.646940 0.477980 0.478080 0.995938
Zn2   Zn    Zn3+2 0.353060 0.522020 0.521920 0.996956
H1    H     H_    0.134055 0.174079 0.735198 0.147403
H2    H     H_    0.868071 0.826664 0.268587 0.147711
C5    C     C_R   0.753126 0.063229 0.467601 -0.107967
C6    C     C_R   0.248117 0.937053 0.536227 -0.107619
C7    C     C_R   0.841157 0.987263 0.393248 -0.148021
C8    C     C_R   0.160540 0.013089 0.610963 -0.144601
C9    C     C_R   0.801665 0.883714 0.329225 -0.105402
C10   C     C_R   0.200193 0.116866 0.674442 -0.102091
C11   C     C_R   0.678584 0.850586 0.347360 -0.085179
C12   C     C_R   0.322964 0.150118 0.655436 -0.084229
C13   C     C_R   0.592803 0.921774 0.429861 0.101584
C14   C     C_R   0.408374 0.078617 0.572859 0.103377
C15   C     C_R   0.622420 0.037330 0.477822 0.092861
C16   C     C_R   0.378712 0.962918 0.525209 0.092438
C17   C     C_R   0.480439 0.878253 0.468156 -0.253762
C18   C     C_R   0.520391 0.122140 0.534096 -0.251193
H3    H     H_    0.790999 0.138828 0.519968 0.161913
H4    H     H_    0.209698 0.861673 0.484030 0.161099
H5    H     H_    0.939567 0.009568 0.384452 0.153026
H6    H     H_    0.062236 0.990794 0.620296 0.151436
H7    H     H_    0.651107 0.768552 0.297266 0.136184
H8    H     H_    0.350513 0.232516 0.704843 0.130924
H9    H     H_    0.386689 0.459310 0.891696 0.197319
H10   H     H_    0.617062 0.426135 0.106257 0.197729
C19   C     C_2   0.412000 0.493843 0.134540 -0.318839
C20   C     C_2   0.589175 0.467806 0.864796 -0.338797
C21   C     C_2   0.513352 0.452952 0.065530 -0.153575
C22   C     C_2   0.489550 0.456223 0.932874 -0.175256
H11   H     H_    0.691749 0.464875 0.906386 0.187553
H12   H     H_    0.308586 0.520883 0.093395 0.182962
N1    N     N_2   0.157300 0.551390 0.551120 -0.246490
N2    N     N_2   0.842700 0.448610 0.448880 -0.245803
C23   C     C_2   0.072835 0.491065 0.487289 0.233653
C24   C     C_2   0.927857 0.506737 0.514503 0.234680
H13   H     H_    0.876369 0.392096 0.375788 0.188951
H14   H     H_    0.122794 0.610494 0.622190 0.189765
N3    N     N_R   0.883462 0.586535 0.616163 0.225690
O9    O     O_R   0.905780 0.539664 0.728290 -0.412528
O10   O     O_R   0.857013 0.710127 0.601754 -0.406431
N4    N     N_R   0.118128 0.408272 0.387945 0.226255
O11   O     O_R   0.139200 0.285032 0.404164 -0.410069
O12   O     O_R   0.100766 0.453161 0.275130 -0.410549

loop_
_geom_bond_atom_site_label_1
_geom_bond_atom_site_label_2
_geom_bond_distance
_ccdc_geom_bond_type
O7    Zn2   1.973281 S    
N4    O12   1.300572 A    
H2    C9    1.082459 S    
C4    C17   1.455668 S    
C13   C15   1.396280 A    
C21   C22   1.428406 S    
C14   C16   1.396720 A    
C23   C24   1.508276 S    
O6    C4    1.282123 A    
C8    H6    1.082563 S    
C20   H11   1.087451 S    
C20   C22   1.333204 D    
C6    H4    1.080085 S    
C19   C21   1.333219 D    
O2    C2    1.284968 A    
C15   C18   1.418716 A    
O5    C3    1.281885 A    
O7    C3    1.301525 A    
N2    H13   1.029257 S    
C2    C20   1.440795 S    
C12   H8    1.083161 S    
O3    Zn2   1.956544 S    
O8    C4    1.301457 A    
N1    H14   1.029160 S    
C23   N4    1.430885 S    
O1    C1    1.284954 A    
C16   C17   1.420087 A    
C5    C7    1.394747 A    
C5    H3    1.080355 S    
C8    C10   1.389084 A    
C14   C18   1.407810 A    
Zn2   N1    2.009816 S    
C6    C8    1.394965 A    
N1    C23   1.300283 D    
C9    C11   1.392830 A    
C13   C17   1.409034 A    
Zn1   N2    2.009814 S    
O2    Zn2   1.927177 S    
C11   H7    1.082984 S    
C10   C12   1.392615 A    
O1    Zn1   1.927175 S    
C19   H12   1.087420 S    
N3    O9    1.300992 A    
C5    C15   1.419902 A    
N2    C24   1.300180 D    
O3    C1    1.291409 A    
O5    Zn1   1.996967 S    
C11   C13   1.417163 A    
C6    C16   1.420190 A    
H10   C21   1.088405 S    
O4    C2    1.291308 A    
H1    C10   1.082478 S    
H9    C22   1.088465 S    
C1    C19   1.441148 S    
N4    O11   1.300722 A    
O6    Zn2   1.996968 S    
C7    C9    1.389072 A    
O8    Zn1   1.973282 S    
C24   N3    1.430883 S    
O4    Zn1   1.956545 S    
C3    C18   1.455237 S    
C7    H5    1.082554 S    
N3    O10   1.301054 A    
C12   C14   1.416905 A    
