data_mof_unit_11240.cif
_audit_creation_date              2012-12-10T17:55:30-0500
_audit_creation_method            fapswitch 2.2
_symmetry_space_group_name_H-M    P1
_symmetry_Int_Tables_number       1
_space_group_crystal_system       triclinic
_cell_length_a                    10.804895
_cell_length_b                    9.596717
_cell_length_c                    10.924135
_cell_angle_alpha                 90.052475
_cell_angle_beta                  91.281077
_cell_angle_gamma                 90.352215
_cell_volume                      1132.4350008

loop_
_atom_site_label
_atom_site_type_symbol
_atom_type_description
_atom_site_fract_x
_atom_site_fract_y
_atom_site_fract_z
_atom_type_partial_charge
C1    C     C_R   0.262587 0.499505 0.496126 0.802949
C2    C     C_R   0.737441 0.500137 0.496987 0.805272
C3    C     C_R   0.501340 0.499999 0.265528 0.855715
C4    C     C_R   0.498672 0.500073 0.734490 0.858234
C5    C     C_2   0.502730 0.385621 0.932989 -0.141173
C6    C     C_2   0.496976 0.385501 0.066892 -0.121889
C7    C     C_2   0.492469 0.502386 0.866425 -0.308303
C8    C     C_2   0.507731 0.502290 0.133653 -0.302388
C9    C     C_R   0.062302 0.405434 0.412228 -0.058040
C10   C     C_R   0.932469 0.405832 0.412469 -0.070366
C11   C     C_R   0.871359 0.499884 0.489771 -0.079890
C12   C     C_R   0.128601 0.498696 0.489635 -0.050652
C13   C     C_R   0.938854 0.594749 0.562077 -0.162812
C14   C     C_R   0.066503 0.594257 0.562023 -0.163070
C15   C     C_R   0.445087 0.075060 0.406785 -0.032846
C16   C     C_R   0.554574 0.076337 0.593332 -0.042582
C17   C     C_R   0.442669 0.927416 0.406850 0.071390
C18   C     C_R   0.555892 0.928826 0.593979 0.078692
Cu1   Cu    Cu3+1 0.500000 0.640660 0.500000 1.020492
Cu2   Cu    Cu3+1 0.500000 0.359340 0.500000 0.979154
H1    H     H_    0.513799 0.285334 0.888436 0.185943
H2    H     H_    0.485407 0.285112 0.111255 0.190241
H3    H     H_    0.476440 0.603281 0.907141 0.162486
H4    H     H_    0.524253 0.603303 0.093109 0.164251
H5    H     H_    0.893144 0.667131 0.621389 0.207512
H6    H     H_    0.117096 0.666747 0.620895 0.159282
H7    H     H_    0.400739 0.131672 0.332512 0.158076
H8    H     H_    0.599038 0.134002 0.667531 0.144296
N1    N     N_R   0.500000 0.852070 0.500000 -0.240484
N2    N     N_R   0.500000 0.147940 0.500000 -0.180797
O1    O     O_R   0.319640 0.618740 0.499990 -0.549609
O2    O     O_R   0.680360 0.618740 0.500010 -0.544135
O3    O     O_R   0.319620 0.381170 0.499990 -0.583483
O4    O     O_R   0.680380 0.381170 0.500010 -0.580485
O5    O     O_R   0.500000 0.618750 0.321940 -0.577925
O6    O     O_R   0.500000 0.618750 0.678060 -0.573378
O7    O     O_R   0.499970 0.381180 0.321940 -0.583167
O8    O     O_R   0.500030 0.381180 0.678060 -0.589514
C19   C     C_1   0.126424 0.314578 0.328745 0.266331
N3    N     N_1   0.177113 0.242294 0.261708 -0.278956
C20   C     C_1   0.862661 0.314045 0.330387 0.270440
N4    N     N_1   0.806946 0.240979 0.264946 -0.247906
C21   C     C_2   0.375246 0.860966 0.303772 0.878455
O9    O     O_2   0.280116 0.795322 0.321138 -0.573301
O10   O     O_R   0.416504 0.881459 0.184730 -0.772155
H9    H     H_    0.362047 0.832698 0.120968 0.334007
C22   C     C_2   0.617268 0.864639 0.701043 0.862461
O11   O     O_2   0.706984 0.790115 0.688425 -0.604508
O12   O     O_R   0.576345 0.896332 0.818286 -0.778679
H10   H     H_    0.626281 0.847619 0.885077 0.336812

loop_
_geom_bond_atom_site_label_1
_geom_bond_atom_site_label_2
_ccdc_geom_bond_type
C16   H8    S    
C21   O9    D    
C17   C21   S    
C15   C17   A    
Cu2   O8    S    
C9    C10   A    
C15   H7    S    
C22   O11   D    
C3    O5    A    
Cu1   O1    S    
C18   C22   S    
C2    O4    A    
C4    O6    A    
C1    O3    A    
C22   O12   S    
C18   N1    A    
Cu2   N2    S    
C13   C14   A    
C14   H6    S    
C10   C20   S    
Cu2   O7    S    
C11   C13   A    
C13   H5    S    
C1    C12   S    
C4    C7    S    
C7    H3    S    
C2    C11   S    
C16   C18   A    
C8    H4    S    
C12   C14   A    
Cu1   O5    S    
C3    C8    S    
Cu1   O6    S    
C5    C6    S    
C9    C12   A    
C10   C11   A    
Cu2   O3    S    
C16   N2    A    
Cu2   O4    S    
Cu1   N1    S    
C1    O1    A    
C17   N1    A    
C3    O7    A    
C15   N2    A    
C2    O2    A    
O12   H10   S    
C20   N4    T    
C19   N3    T    
C5    C7    D    
C6    C8    D    
O10   H9    S    
Cu1   O2    S    
C21   O10   S    
C9    C19   S    
Cu1   Cu2   S    
C4    O8    A    
C5    H1    S    
C6    H2    S    
