data_mof_unit_8188.cif
_audit_creation_date              2012-12-11T14:43:34-0500
_audit_creation_method            fapswitch 2.2
_symmetry_space_group_name_H-M    P1
_symmetry_Int_Tables_number       1
_space_group_crystal_system       triclinic
_cell_length_a                    20.60375
_cell_length_b                    7.114557
_cell_length_c                    16.548311
_cell_angle_alpha                 90.00048
_cell_angle_beta                  92.395709
_cell_angle_gamma                 90.00026
_cell_volume                      2423.63967761

loop_
_atom_site_label
_atom_site_type_symbol
_atom_type_description
_atom_site_fract_x
_atom_site_fract_y
_atom_site_fract_z
_atom_type_partial_charge
O1    O     O_R   0.564840 0.505290 0.579830 -0.534627
O2    O     O_R   0.435160 0.005290 0.420170 -0.534632
O3    O     O_R   0.556720 0.179930 0.409350 -0.539481
O4    O     O_R   0.443280 0.679930 0.590650 -0.539479
C1    C     C_R   0.569360 0.344842 0.380318 0.725014
C2    C     C_R   0.430641 0.844844 0.619683 0.725026
O5    O     O_R   0.572280 0.175810 0.578530 -0.537519
O6    O     O_R   0.427720 0.675810 0.421470 -0.537519
O7    O     O_R   0.450830 0.001920 0.590540 -0.538622
O8    O     O_R   0.549170 0.501920 0.409460 -0.538622
C3    C     C_R   0.590731 0.343876 0.603698 0.689559
C4    C     C_R   0.409268 0.843874 0.396302 0.689562
O9    O     O_3   0.460130 0.338030 0.503750 -0.373492
O10   O     O_3   0.539870 0.838030 0.496250 -0.373491
V1    V     V_3+5 0.507400 0.064560 0.499310 1.409900
V2    V     V_3+5 0.492600 0.564560 0.500690 1.409907
C5    C     C_R   0.143186 0.915622 0.166930 -0.097736
C6    C     C_R   0.856815 0.415614 0.833067 -0.097693
C7    C     C_R   0.355864 0.848418 0.333393 -0.067494
C8    C     C_R   0.644134 0.348433 0.666609 -0.067474
C9    C     C_R   0.314389 0.756067 0.199258 -0.149444
C10   C     C_R   0.685589 0.256238 0.800770 -0.149458
C11   C     C_R   0.364649 0.760762 0.258716 -0.158012
C12   C     C_R   0.635332 0.260907 0.741308 -0.158022
C13   C     C_R   0.295100 0.928931 0.348710 -0.197827
C14   C     C_R   0.704909 0.428852 0.651276 -0.197841
C15   C     C_R   0.243358 0.922160 0.289562 0.072362
C16   C     C_R   0.756647 0.422113 0.710430 0.072396
C17   C     C_R   0.253676 0.835999 0.213752 0.097332
C18   C     C_R   0.746315 0.336070 0.786258 0.097329
C19   C     C_R   0.203169 0.830381 0.153603 -0.243078
C20   C     C_R   0.796819 0.330473 0.846411 -0.243064
C21   C     C_R   0.133139 0.000376 0.241462 -0.259379
C22   C     C_R   0.866877 0.500263 0.758516 -0.259424
C23   C     C_R   0.181277 0.996333 0.304683 0.410513
C24   C     C_R   0.818737 0.496209 0.695296 0.410503
H1    H     H_    0.211029 0.764494 0.095739 0.115508
H2    H     H_    0.788948 0.264677 0.904289 0.115471
H3    H     H_    0.086770 0.066158 0.250718 0.122667
H4    H     H_    0.913254 0.565982 0.749251 0.122644
H5    H     H_    0.322964 0.688945 0.141884 0.114836
H6    H     H_    0.677002 0.189218 0.858161 0.114837
H7    H     H_    0.410840 0.696356 0.246261 0.105393
H8    H     H_    0.589130 0.196583 0.753775 0.105375
H9    H     H_    0.288088 0.993194 0.407095 0.154161
H10   H     H_    0.711931 0.493019 0.592875 0.154167
C25   C     C_R   0.384826 0.908905 0.835670 0.419593
C26   C     C_R   0.615182 0.408676 0.164323 0.419559
H11   H     H_    0.474113 0.886673 0.773773 0.121180
H12   H     H_    0.525892 0.386483 0.226217 0.121187
H13   H     H_    0.302518 0.895976 0.957413 0.150129
H14   H     H_    0.697496 0.395595 0.042593 0.150087
C27   C     C_R   0.391144 0.856838 0.691454 -0.118355
C28   C     C_R   0.608859 0.356820 0.308551 -0.118393
C29   C     C_R   0.077857 0.934172 0.734037 -0.238888
C30   C     C_R   0.922149 0.434282 0.265963 -0.238907
C31   C     C_R   0.112984 0.960080 0.665197 -0.187757
C32   C     C_R   0.887020 0.460206 0.334801 -0.187767
C33   C     C_R   0.180826 0.960783 0.669345 0.400118
C34   C     C_R   0.819179 0.460845 0.330655 0.400117
C35   C     C_R   0.215193 0.915860 0.743630 -0.017372
C36   C     C_R   0.784813 0.415844 0.256376 -0.017394
C37   C     C_R   0.178709 0.905338 0.815190 0.029985
C38   C     C_R   0.821299 0.405267 0.184818 0.029990
C39   C     C_R   0.284426 0.893424 0.750444 0.030486
C40   C     C_R   0.715580 0.393374 0.249563 0.030517
C41   C     C_R   0.316165 0.900234 0.828297 0.033495
C42   C     C_R   0.683844 0.400054 0.171706 0.033502
C43   C     C_R   0.279220 0.898208 0.897499 -0.201369
C44   C     C_R   0.720791 0.397938 0.102508 -0.201409
C45   C     C_R   0.211791 0.894053 0.891028 -0.177027
C46   C     C_R   0.788220 0.393849 0.108983 -0.177004
C47   C     C_R   0.323308 0.861433 0.683027 -0.240133
C48   C     C_R   0.676696 0.361459 0.316984 -0.240141
C49   C     C_R   0.421550 0.882979 0.767460 -0.242206
C50   C     C_R   0.578456 0.382834 0.232536 -0.242108
C51   C     C_R   0.109765 0.912867 0.809511 -0.077503
C52   C     C_R   0.890242 0.412874 0.190494 -0.077496
H15   H     H_    0.302342 0.835808 0.623396 0.171281
H16   H     H_    0.697657 0.335905 0.376623 0.171287
H17   H     H_    0.025297 0.941427 0.729024 0.121894
H18   H     H_    0.974708 0.441596 0.270973 0.121896
H19   H     H_    0.087178 0.989732 0.608471 0.127021
H20   H     H_    0.912824 0.489923 0.391522 0.127041
H21   H     H_    0.185674 0.888036 0.946395 0.100245
H22   H     H_    0.814340 0.387775 0.053619 0.100240
O11   O     O_R   0.950790 0.256670 0.090520 -0.536095
O12   O     O_R   0.049210 0.756670 0.909480 -0.536092
O13   O     O_R   0.927720 0.590370 0.921470 -0.537988
O14   O     O_R   0.072280 0.090370 0.078530 -0.537995
C53   C     C_R   0.909343 0.421603 0.896587 0.710234
C54   C     C_R   0.090658 0.921604 0.103411 0.710232
O15   O     O_R   0.943270 0.586180 0.090640 -0.538033
O16   O     O_R   0.056730 0.086180 0.909360 -0.538035
O17   O     O_R   0.064850 0.759970 0.079840 -0.535701
O18   O     O_R   0.935150 0.259970 0.920160 -0.535699
C55   C     C_R   0.930387 0.418034 0.118793 0.696574
C56   C     C_R   0.069617 0.918033 0.881209 0.696572
O19   O     O_3   0.039850 0.428050 0.996240 -0.371675
O20   O     O_3   0.960150 0.928050 0.003760 -0.371670
V3    V     V_3+5 0.992610 0.701540 0.000700 1.423391
V4    V     V_3+5 0.007390 0.201540 0.999300 1.423380
O21   O     O_3   0.211754 0.015143 0.600495 -0.590496
C57   C     C_3   0.235641 0.201183 0.609485 0.083073
H23   H     H_    0.283491 0.207795 0.581008 0.143080
H24   H     H_    0.244363 0.246313 0.673696 0.114461
C58   C     C_3   0.189431 0.338635 0.565515 -0.338623
H25   H     H_    0.186225 0.303083 0.500290 0.241944
H26   H     H_    0.140376 0.327556 0.590471 0.192191
C59   C     C_3   0.213179 0.540236 0.574507 -0.795923
H27   H     H_    0.216765 0.579057 0.639469 0.236231
H28   H     H_    0.178280 0.636367 0.542546 0.240042
H29   H     H_    0.261463 0.556002 0.547835 0.227372
O22   O     O_3   0.788248 0.515220 0.399501 -0.590478
C60   C     C_3   0.764365 0.701262 0.390503 0.083123
H30   H     H_    0.716499 0.707867 0.418946 0.143055
H31   H     H_    0.755673 0.746412 0.326287 0.114423
C61   C     C_3   0.810559 0.838698 0.434517 -0.338505
H32   H     H_    0.813739 0.803118 0.499745 0.241913
H33   H     H_    0.859630 0.827631 0.409591 0.192157
C62   C     C_3   0.786812 0.040302 0.425520 -0.795866
H34   H     H_    0.783246 0.079139 0.360553 0.236219
H35   H     H_    0.821704 0.136426 0.457503 0.240016
H36   H     H_    0.738515 0.056062 0.452170 0.227346
O23   O     O_3   0.169295 0.072307 0.379971 -0.580740
C63   C     C_3   0.112733 0.992905 0.412573 0.072728
H37   H     H_    0.126032 0.942038 0.474392 0.162685
H38   H     H_    0.093372 0.867081 0.379119 0.107885
C64   C     C_3   0.059600 0.142883 0.418642 -0.316349
H39   H     H_    0.075589 0.251076 0.463298 0.190939
H40   H     H_    0.050914 0.214588 0.359715 0.194030
C65   C     C_3   0.995751 0.057961 0.444638 -0.859258
H41   H     H_    0.978677 0.947978 0.401106 0.237799
H42   H     H_    0.958062 0.169129 0.446599 0.233528
H43   H     H_    0.002162 0.995682 0.505821 0.229125
O24   O     O_3   0.830717 0.572137 0.619999 -0.580740
C66   C     C_3   0.887293 0.492791 0.587410 0.072800
H44   H     H_    0.874007 0.441890 0.525594 0.162649
H45   H     H_    0.906667 0.367001 0.620875 0.107860
C67   C     C_3   0.940404 0.642828 0.581337 -0.316343
H46   H     H_    0.924398 0.751010 0.536686 0.190942
H47   H     H_    0.949086 0.714532 0.640266 0.194014
C68   C     C_3   0.004260 0.557978 0.555329 -0.859280
H48   H     H_    0.021351 0.448013 0.598858 0.237805
H49   H     H_    0.041935 0.669182 0.553361 0.233520
H50   H     H_    0.997850 0.495695 0.494146 0.229126
O25   O     O_3   0.417145 0.941787 0.909374 -0.581016
C69   C     C_3   0.413915 0.136029 0.928204 0.053021
H51   H     H_    0.421026 0.150499 0.994800 0.150998
H52   H     H_    0.365497 0.199369 0.912415 0.114680
C70   C     C_3   0.467573 0.247120 0.887705 -0.343291
H53   H     H_    0.515883 0.189334 0.906896 0.202847
H54   H     H_    0.461668 0.235025 0.820913 0.186580
C71   C     C_3   0.464874 0.454852 0.910045 -0.753836
H55   H     H_    0.417786 0.516530 0.888415 0.235453
H56   H     H_    0.504761 0.531578 0.881285 0.226707
H57   H     H_    0.470342 0.472160 0.976582 0.245937
O26   O     O_3   0.582863 0.441403 0.090607 -0.580996
C72   C     C_3   0.586094 0.635594 0.071699 0.053117
H58   H     H_    0.578978 0.649907 0.005091 0.150995
H59   H     H_    0.634520 0.698958 0.087461 0.114603
C73   C     C_3   0.532439 0.746791 0.112170 -0.343327
H60   H     H_    0.484120 0.688844 0.093090 0.202789
H61   H     H_    0.538407 0.735029 0.178972 0.186553
C74   C     C_3   0.535076 0.954406 0.089632 -0.753573
H62   H     H_    0.582183 0.016262 0.111152 0.235450
H63   H     H_    0.495185 0.031211 0.118379 0.226750
H64   H     H_    0.529544 0.971359 0.023068 0.246032

loop_
_geom_bond_atom_site_label_1
_geom_bond_atom_site_label_2
_ccdc_geom_bond_type
C68   H50   S    
C40   C42   A    
C74   H62   S    
O18   V4    S    
C15   C17   A    
C26   C50   A    
C34   O22   S    
O25   C69   S    
O1    C3    A    
C69   C70   S    
O2    C4    A    
C2    O7    A    
C57   H24   S    
O12   V3    S    
C30   C52   A    
C10   H6    S    
O5    C3    A    
C66   H45   S    
C21   H3    S    
C8    C14   A    
C22   H4    S    
C6    C53   S    
C67   H47   S    
C73   H60   S    
C32   H20   S    
C65   H43   S    
C29   C51   A    
C31   C33   A    
C29   H17   S    
O16   C56   A    
C32   C34   A    
C68   H48   S    
C40   C48   A    
C39   C47   A    
C34   C36   A    
C70   C71   S    
C43   C45   A    
C61   H32   S    
O14   V4    S    
C62   H36   S    
C36   C38   A    
C23   O23   S    
C53   O18   A    
C28   C48   A    
C8    C12   A    
C65   H41   S    
C39   C41   A    
O17   V3    S    
C58   H25   S    
C31   H19   S    
C20   H2    S    
O13   C53   A    
C71   H56   S    
C64   C65   S    
H11   C49   S    
O5    V1    S    
C70   H53   S    
O6    V2    S    
C48   H16   S    
C70   H54   S    
C58   H26   S    
C27   C49   A    
C5    C54   S    
C5    C21   A    
C24   O24   S    
C25   C41   A    
C57   H23   S    
O22   C60   S    
C73   H61   S    
C67   H46   S    
C66   C67   S    
C25   O25   S    
C3    C8    S    
C33   C35   A    
C36   C40   A    
C1    C28   S    
C69   H51   S    
C71   H57   S    
O4    C2    A    
O15   V3    S    
C63   C64   S    
C60   H31   S    
C26   O26   S    
C54   O17   A    
C59   H27   S    
C41   C43   A    
C61   C62   S    
O4    V2    S    
C7    C11   A    
H12   C50   S    
C73   C74   S    
O15   C55   A    
O14   C54   A    
C72   H58   S    
O6    C4    A    
C60   C61   S    
C52   C55   S    
O20   V4    S    
C47   H15   S    
C72   C73   S    
C51   C56   S    
O1    V2    S    
C26   C42   A    
C67   C68   S    
O2    V1    S    
C6    C22   A    
C59   H29   S    
C71   H55   S    
C62   H34   S    
C65   H42   S    
C9    H5    S    
C61   H33   S    
C42   C44   A    
O19   V3    S    
C12   H8    S    
C37   C45   A    
C74   H64   S    
C9    C11   A    
O23   C63   S    
C5    C19   A    
C58   C59   S    
C28   C50   A    
C6    C20   A    
C2    C27   S    
C13   H9    S    
O3    V1    S    
C64   H39   S    
C37   C51   A    
C68   H49   S    
C63   H38   S    
C10   C18   A    
O13   V3    S    
C11   H7    S    
C38   C52   A    
C35   C37   A    
C27   C47   A    
C69   H52   S    
O24   C66   S    
O3    C1    A    
C46   H22   S    
C30   H18   S    
C13   C15   A    
C66   H44   S    
C14   C16   A    
C15   C23   A    
C29   C31   A    
C72   H59   S    
O7    V1    S    
O11   V4    S    
C33   O21   S    
C1    O8    A    
C17   C19   A    
O8    V2    S    
C18   C20   A    
O26   C72   S    
C9    C17   A    
C63   H37   S    
C45   H21   S    
C4    C7    S    
C16   C18   A    
O20   V3    S    
C21   C23   A    
C22   C24   A    
C30   C32   A    
C10   C12   A    
C38   C46   A    
C35   C39   A    
C7    C13   A    
C59   H28   S    
C62   H35   S    
H14   C44   S    
C14   H10   S    
C25   C49   A    
C19   H1    S    
O19   V4    S    
C16   C24   A    
C74   H63   S    
O9    V2    S    
O21   C57   S    
O10   V1    S    
C44   C46   A    
H13   C43   S    
C64   H40   S    
C57   C58   S    
O12   C56   A    
C60   H30   S    
O16   V4    S    
O11   C55   A    
