data_mof_unit_50757.cif
_audit_creation_date              2012-12-10T16:37:28-0500
_audit_creation_method            fapswitch 2.2
_symmetry_space_group_name_H-M    P1
_symmetry_Int_Tables_number       1
_space_group_crystal_system       triclinic
_cell_length_a                    16.864461
_cell_length_b                    16.86598
_cell_length_c                    16.7061
_cell_angle_alpha                 65.384256
_cell_angle_beta                  65.714673
_cell_angle_gamma                 65.903501
_cell_volume                      3773.26673022

loop_
_atom_site_label
_atom_site_type_symbol
_atom_type_description
_atom_site_fract_x
_atom_site_fract_y
_atom_site_fract_z
_atom_type_partial_charge
Br1   Br    Br    0.392368 0.199187 0.744297 -0.337733
Br2   Br    Br    0.515298 0.844531 0.836447 -0.394391
Br3   Br    Br    0.859004 0.645366 0.224937 -0.274789
Br4   Br    Br    0.140996 0.354634 0.775062 -0.274788
Br5   Br    Br    0.607632 0.800813 0.255703 -0.337734
Br6   Br    Br    0.149305 0.779309 0.353688 -0.352511
Br7   Br    Br    0.850695 0.220691 0.646312 -0.352510
Br8   Br    Br    0.744287 0.394573 0.198840 -0.380016
Br9   Br    Br    0.255714 0.605425 0.801160 -0.380015
Br10  Br    Br    0.161913 0.162908 0.473258 -0.402761
Br11  Br    Br    0.838087 0.837091 0.526744 -0.402762
Br12  Br    Br    0.484702 0.155468 0.163553 -0.394393
C1    C     C_R   0.410010 0.114995 0.615675 0.396271
C2    C     C_R   0.450885 0.691772 0.941925 0.395643
C3    C     C_R   0.991462 0.579860 0.317011 0.383538
C4    C     C_R   0.008537 0.420140 0.682989 0.383539
C5    C     C_R   0.959992 0.179681 0.438801 0.921973
C6    C     C_R   0.040008 0.820319 0.561199 0.921974
C7    C     C_R   0.179464 0.437902 0.961948 0.916361
C8    C     C_R   0.820536 0.562098 0.038052 0.916361
C9    C     C_R   0.439051 0.959139 0.179758 0.934957
C10   C     C_R   0.560949 0.040861 0.820241 0.934959
C11   C     C_R   0.571836 0.826620 0.012463 0.933899
C12   C     C_R   0.589990 0.885004 0.384325 0.396272
C13   C     C_R   0.428163 0.173379 0.987538 0.933900
C14   C     C_R   0.038113 0.562184 0.820354 0.903991
C15   C     C_R   0.961886 0.437816 0.179646 0.903990
C16   C     C_R   0.825355 0.014850 0.571665 0.930630
C17   C     C_R   0.174645 0.985150 0.428335 0.930630
C18   C     C_R   0.452403 0.113426 0.673996 0.228530
C19   C     C_R   0.547596 0.886573 0.326004 0.228530
C20   C     C_R   0.067561 0.707832 0.442187 0.237948
C21   C     C_R   0.932438 0.292168 0.557813 0.237950
C22   C     C_R   0.675334 0.453829 0.110937 0.223420
C23   C     C_R   0.028838 0.675830 0.406481 0.401023
C24   C     C_R   0.324666 0.546170 0.889064 0.223419
C25   C     C_R   0.265992 0.060881 0.489954 0.222964
C26   C     C_R   0.734008 0.939118 0.510047 0.222963
C27   C     C_R   0.493006 0.264050 0.062366 0.218677
C28   C     C_R   0.506995 0.735949 0.937634 0.218677
C29   C     C_R   0.944319 0.550962 0.288645 0.246163
C30   C     C_R   0.055681 0.449038 0.711355 0.246163
C31   C     C_R   0.545741 0.010048 0.548191 -0.039771
C32   C     C_R   0.454259 0.989952 0.451809 -0.039772
C33   C     C_R   0.028750 0.540535 0.538981 -0.051753
C34   C     C_R   0.971162 0.324170 0.593519 0.401022
C35   C     C_R   0.971250 0.459465 0.461019 -0.051753
C36   C     C_R   0.548355 0.546596 0.008296 -0.055385
C37   C     C_R   0.451645 0.453403 0.991705 -0.055386
C38   C     C_R   0.595599 0.965007 0.478935 -0.017051
C39   C     C_R   0.404401 0.034993 0.521065 -0.017051
C40   C     C_R   0.007655 0.456107 0.590546 -0.005536
C41   C     C_R   0.992344 0.543893 0.409453 -0.005536
C42   C     C_R   0.477877 0.595948 0.964830 -0.017034
C43   C     C_R   0.522123 0.404051 0.035170 -0.017035
C44   C     C_R   0.548796 0.949034 0.435232 -0.011502
C45   C     C_R   0.617378 0.410695 0.113841 0.396907
C46   C     C_R   0.451203 0.050965 0.564768 -0.011502
C47   C     C_R   0.434134 0.548375 0.950196 -0.019805
C48   C     C_R   0.565866 0.451624 0.049805 -0.019805
C49   C     C_R   0.982549 0.413220 0.550189 -0.021594
C50   C     C_R   0.017450 0.586780 0.449811 -0.021594
C51   C     C_R   0.543808 0.062071 0.667275 -0.004139
C52   C     C_R   0.456192 0.937929 0.332725 -0.004138
C53   C     C_R   0.063508 0.671408 0.536067 -0.005111
C54   C     C_R   0.936491 0.328592 0.463933 -0.005111
C55   C     C_R   0.668744 0.545515 0.057391 -0.022894
C56   C     C_R   0.382622 0.589304 0.886160 0.396907
C57   C     C_R   0.331256 0.454485 0.942610 -0.022894
C58   C     C_R   0.312744 0.010730 0.426593 -0.033341
C59   C     C_R   0.687256 0.989270 0.573407 -0.033340
C60   C     C_R   0.427092 0.310689 0.014600 -0.038048
C61   C     C_R   0.572908 0.689310 0.985401 -0.038049
C62   C     C_R   0.940242 0.460478 0.328660 -0.034390
C63   C     C_R   0.059757 0.539522 0.671340 -0.034390
C64   C     C_R   0.593266 0.059567 0.720659 -0.060888
C65   C     C_R   0.406734 0.940433 0.279340 -0.060887
C66   C     C_R   0.065685 0.720387 0.587949 -0.075705
C67   C     C_R   0.308742 0.058381 0.546810 0.401993
C68   C     C_R   0.934315 0.279613 0.412050 -0.075705
C69   C     C_R   0.722558 0.595558 0.052605 -0.059671
C70   C     C_R   0.277442 0.404441 0.947396 -0.059670
C71   C     C_R   0.268276 0.984856 0.388947 -0.081477
C72   C     C_R   0.731724 0.015144 0.611053 -0.081477
C73   C     C_R   0.388101 0.266059 0.990503 -0.087371
C74   C     C_R   0.611899 0.733940 0.009499 -0.087371
C75   C     C_R   0.936223 0.410228 0.279935 -0.069120
C76   C     C_R   0.063776 0.589772 0.720065 -0.069121
C77   C     C_R   0.684258 0.049312 0.684165 -0.252422
C78   C     C_R   0.691258 0.941617 0.453191 0.401992
C79   C     C_R   0.315741 0.950688 0.315835 -0.252423
C80   C     C_R   0.072885 0.676298 0.675814 -0.226615
C81   C     C_R   0.927114 0.323702 0.324185 -0.226615
C82   C     C_R   0.687395 0.687053 0.039619 -0.233270
C83   C     C_R   0.312605 0.312946 0.960383 -0.233271
C84   C     C_R   0.592075 0.020699 0.595963 0.004042
C85   C     C_R   0.407925 0.979301 0.404036 0.004042
C86   C     C_R   0.050876 0.583893 0.581858 -0.010503
C87   C     C_R   0.949124 0.416107 0.418142 -0.010503
C88   C     C_R   0.596598 0.593635 0.016949 -0.010308
C89   C     C_R   0.549115 0.308228 0.058076 0.395643
C90   C     C_R   0.403402 0.406364 0.983052 -0.010308
Cl1   Cl    Cl    0.322501 0.214946 0.584903 -0.407761
Cl2   Cl    Cl    0.337436 0.758052 0.944453 -0.415561
Cl3   Cl    Cl    0.083477 0.617254 0.228522 -0.460817
Cl4   Cl    Cl    0.916522 0.382747 0.771478 -0.460817
Cl5   Cl    Cl    0.677496 0.785052 0.415101 -0.407761
Cl6   Cl    Cl    0.971078 0.761770 0.326574 -0.352350
Cl7   Cl    Cl    0.028921 0.238230 0.673426 -0.352351
Cl8   Cl    Cl    0.587985 0.322409 0.215642 -0.426530
Cl9   Cl    Cl    0.412015 0.677590 0.784358 -0.426528
Cl10  Cl    Cl    0.240889 0.056186 0.661060 -0.375557
Cl11  Cl    Cl    0.759113 0.943809 0.338942 -0.375556
Cl12  Cl    Cl    0.662565 0.241947 0.055548 -0.415561
H1    H     H_    0.719583 0.061312 0.717746 0.212322
H2    H     H_    0.280417 0.938689 0.282254 0.212323
H3    H     H_    0.074378 0.713871 0.714166 0.207656
H4    H     H_    0.925623 0.286129 0.285834 0.207656
H5    H     H_    0.722052 0.722985 0.049034 0.218659
H6    H     H_    0.277947 0.277014 0.950969 0.218658
O1    O     O_R   0.982940 0.138950 0.510160 -0.569429
O2    O     O_R   0.982940 0.510160 0.138950 -0.596372
O3    O     O_R   0.861050 0.017060 0.489840 -0.592383
O4    O     O_R   0.138950 0.982940 0.510160 -0.592383
O5    O     O_R   0.867700 0.025880 0.612340 -0.616345
O6    O     O_R   0.132300 0.974120 0.387660 -0.616345
O7    O     O_R   0.025880 0.612340 0.867700 -0.611231
O8    O     O_R   0.974120 0.387660 0.132300 -0.611231
O9    O     O_R   0.612340 0.867700 0.025880 -0.615558
O10   O     O_R   0.387660 0.132300 0.974120 -0.615559
O11   O     O_R   0.387660 0.974120 0.132300 -0.632765
O12   O     O_R   0.017060 0.861050 0.489840 -0.569428
O13   O     O_R   0.612340 0.025880 0.867700 -0.632763
O14   O     O_R   0.132300 0.387660 0.974120 -0.612627
O15   O     O_R   0.867700 0.612340 0.025880 -0.612626
O16   O     O_R   0.974120 0.132300 0.387660 -0.627731
O17   O     O_R   0.025880 0.867700 0.612340 -0.627731
O18   O     O_R   0.138950 0.510160 0.982940 -0.588312
O19   O     O_R   0.861050 0.489840 0.017060 -0.588312
O20   O     O_R   0.510160 0.982940 0.138950 -0.569508
O21   O     O_R   0.489840 0.017060 0.861050 -0.569508
O22   O     O_R   0.489840 0.861050 0.017060 -0.595437
O23   O     O_R   0.510160 0.138950 0.982940 -0.595437
O24   O     O_R   0.017060 0.489840 0.861050 -0.596372
Zn1   Zn    Zn3+2 0.004880 0.004880 0.583590 1.145076
Zn2   Zn    Zn3+2 0.995120 0.995120 0.416410 1.145075
Zn3   Zn    Zn3+2 0.004880 0.583590 0.004880 1.138143
Zn4   Zn    Zn3+2 0.995120 0.416410 0.995120 1.138143
Zn5   Zn    Zn3+2 0.583590 0.004880 0.004880 1.132392
Zn6   Zn    Zn3+2 0.416410 0.995120 0.995120 1.132392

loop_
_geom_bond_atom_site_label_1
_geom_bond_atom_site_label_2
_ccdc_geom_bond_type
C61   C88   A    
Br6   C20   S    
C77   H1    S    
C89   Cl12  S    
C16   C72   S    
C52   C65   A    
C6    O12   A    
C10   C64   S    
O24   Zn4   S    
C60   C73   A    
O6    Zn2   S    
C16   O3    A    
C57   C90   A    
C28   C61   A    
C7    O14   A    
C36   C42   A    
C25   C67   A    
C30   C63   A    
C60   C90   A    
C67   Cl10  S    
Br10  C25   S    
C3    C41   A    
C8    O19   A    
O17   Zn1   S    
C53   C86   A    
C17   C71   S    
C40   C49   A    
C51   C64   A    
C17   O4    A    
C33   C50   A    
C35   C87   A    
C79   H2    S    
C11   O9    A    
C32   C85   A    
C15   O8    A    
C78   Cl11  S    
C9    O11   A    
C8    C69   S    
C23   Cl6   S    
C74   C82   A    
C31   C46   A    
C29   C62   A    
C38   C78   A    
C65   C79   A    
C76   C80   A    
C11   C74   S    
O10   Zn6   S    
C22   C45   A    
C27   C60   A    
C11   O22   A    
C27   C89   A    
C57   C70   A    
C62   C75   A    
C1    Cl1   S    
C7    C70   S    
C58   C85   A    
C4    Cl4   S    
C64   C77   A    
C35   C41   A    
C43   C48   A    
C21   C34   A    
Br7   C21   S    
C13   O23   A    
C14   O24   A    
C13   O10   A    
C15   O2    A    
O21   Zn6   S    
C36   C48   A    
C42   C47   A    
C36   C88   A    
O19   Zn4   S    
C10   O13   A    
C20   C23   A    
C1    C18   A    
O13   Zn5   S    
C3    C29   A    
C37   C90   A    
C39   C46   A    
O8    Zn4   S    
C45   C48   A    
C59   C84   A    
C34   C49   A    
C33   C40   A    
C66   C80   A    
C37   C43   A    
C51   C84   A    
C5    C68   S    
C38   C44   A    
C56   Cl9   S    
C54   C87   A    
Br11  C26   S    
C80   H3    S    
O9    Zn5   S    
C47   C56   A    
Br9   C24   S    
C82   H5    S    
C32   C44   A    
C2    Cl2   S    
C45   Cl8   S    
O3    Zn2   S    
O18   Zn3   S    
C6    C66   S    
C21   C54   A    
C5    O16   A    
C13   C73   S    
C31   C84   A    
C12   Cl5   S    
Br8   C22   S    
O2    Zn3   S    
C15   C75   S    
C58   C71   A    
C55   C88   A    
C32   C39   A    
C5    O1    A    
C52   C85   A    
C2    C42   A    
C55   C69   A    
O15   Zn3   S    
O1    Zn1   S    
C72   C77   A    
C71   C79   A    
C4    C30   A    
O14   Zn4   S    
C16   O5    A    
C59   C72   A    
C43   C89   A    
C26   C59   A    
Br3   C29   S    
C70   C83   A    
C19   C52   A    
C4    C40   A    
C22   C55   A    
C35   C49   A    
C24   C56   A    
C31   C38   A    
C62   C87   A    
C1    C46   A    
C83   H6    S    
C12   C44   A    
C54   C68   A    
O4    Zn1   S    
C26   C78   A    
C37   C47   A    
C53   C66   A    
O12   Zn2   S    
C3    Cl3   S    
Br12  C27   S    
C33   C86   A    
C12   C19   A    
O5    Zn1   S    
C69   C82   A    
C73   C83   A    
O22   Zn6   S    
Br4   C30   S    
C7    O18   A    
C75   C81   A    
C10   O21   A    
C18   C51   A    
Br1   C18   S    
C23   C50   A    
C14   O7    A    
C63   C86   A    
C8    O15   A    
C24   C57   A    
C6    O17   A    
C39   C67   A    
C61   C74   A    
C2    C28   A    
Br2   C28   S    
C63   C76   A    
O23   Zn5   S    
C41   C50   A    
C14   C76   S    
C81   H4    S    
C34   Cl7   S    
C9    C65   S    
O11   Zn6   S    
C17   O6    A    
C9    O20   A    
C68   C81   A    
C25   C58   A    
O20   Zn5   S    
O16   Zn2   S    
O7    Zn3   S    
C20   C53   A    
Br5   C19   S    
