data_mof_unit_54933.cif
_audit_creation_date              2012-12-11T15:43:09-0500
_audit_creation_method            fapswitch 2.2
_symmetry_space_group_name_H-M    P1
_symmetry_Int_Tables_number       1
_space_group_crystal_system       triclinic
_cell_length_a                    18.983957
_cell_length_b                    11.025705
_cell_length_c                    18.805394
_cell_angle_alpha                 90.163686
_cell_angle_beta                  90.274026
_cell_angle_gamma                 90.057547
_cell_volume                      3936.12228688

loop_
_atom_site_label
_atom_site_type_symbol
_atom_type_description
_atom_site_fract_x
_atom_site_fract_y
_atom_site_fract_z
_atom_type_partial_charge
C1    C     C_R   0.728821 0.375527 0.144902 0.638392
C2    C     C_R   0.953608 0.980709 0.048197 -0.044668
C3    C     C_R   0.768330 0.499039 0.562624 0.006783
C4    C     C_R   0.730534 0.381226 0.351432 0.584428
C5    C     C_R   0.270577 0.376053 0.646935 0.569371
C6    C     C_R   0.230046 0.880292 0.351607 0.585568
C7    C     C_R   0.769866 0.877985 0.647713 0.556095
C8    C     C_R   0.530754 0.156678 0.352419 0.603959
C9    C     C_R   0.462409 0.156704 0.643742 0.571899
C10   C     C_R   0.030238 0.656546 0.351972 0.610543
C11   C     C_R   0.962130 0.656909 0.643754 0.564284
C12   C     C_R   0.742433 0.970745 0.354015 0.573786
C13   C     C_R   0.463334 0.495102 0.975599 -0.029408
C14   C     C_R   0.260240 0.977222 0.643693 0.539569
C15   C     C_R   0.242992 0.469029 0.353170 0.583483
C16   C     C_R   0.772399 0.522029 0.638795 0.532316
C17   C     C_R   0.503244 0.172353 0.922516 0.049204
C18   C     C_R   0.512150 0.160093 0.070998 0.022328
C19   C     C_R   0.003246 0.672361 0.922514 0.048699
C20   C     C_R   0.012152 0.660084 0.070996 0.022741
C21   C     C_R   0.493212 0.279918 0.964027 0.118002
C22   C     C_R   0.490765 0.269721 0.039018 0.088827
C23   C     C_R   0.993196 0.779915 0.964030 0.117806
C24   C     C_R   0.453630 0.480711 0.048176 -0.044476
C25   C     C_R   0.990745 0.769702 0.039021 0.089073
C26   C     C_R   0.531138 0.060734 0.028239 -0.106251
C27   C     C_R   0.526992 0.067038 0.955348 -0.070358
C28   C     C_R   0.031164 0.560743 0.028232 -0.106056
C29   C     C_R   0.027018 0.567056 0.955341 -0.070126
C30   C     C_R   0.745894 0.917365 0.923079 -0.009330
C31   C     C_R   0.241458 0.912816 0.071808 0.069885
C32   C     C_R   0.245889 0.417372 0.923078 -0.008878
C33   C     C_R   0.741473 0.412892 0.071826 0.070103
C34   C     C_R   0.737962 0.830819 0.976461 -0.064116
C35   C     C_R   0.306315 0.899862 0.037787 -0.074096
C36   C     C_R   0.237996 0.330826 0.976465 -0.064222
C37   C     C_R   0.269124 0.377805 0.853421 0.642739
C38   C     C_R   0.806332 0.399985 0.037807 -0.074050
C39   C     C_R   0.730943 0.864722 0.046471 -0.036648
C40   C     C_R   0.310355 0.904550 0.964382 -0.023688
C41   C     C_R   0.230986 0.364729 0.046471 -0.036706
C42   C     C_R   0.810370 0.404647 0.964401 -0.024700
C43   C     C_R   0.718877 0.071615 0.010998 0.380317
C44   C     C_R   0.185282 0.937216 0.955812 0.407033
C45   C     C_R   0.218771 0.571588 0.010994 0.380280
C46   C     C_R   0.685297 0.437232 0.955826 0.406651
C47   C     C_R   0.730343 0.038588 0.939555 0.346042
C48   C     C_R   0.228812 0.875499 0.144892 0.638211
C49   C     C_R   0.181636 0.941743 0.029167 0.454244
C50   C     C_R   0.230240 0.538570 0.939546 0.346197
C51   C     C_R   0.681651 0.441781 0.029181 0.454325
C52   C     C_3   0.781511 0.723762 0.996044 0.265187
C53   C     C_3   0.363555 0.807628 0.043094 0.267807
C54   C     C_3   0.281531 0.223755 0.996038 0.265226
C55   C     C_3   0.863605 0.307814 0.043129 0.267715
C56   C     C_3   0.774983 0.763072 0.073252 0.285549
C57   C     C_3   0.365821 0.808699 0.962459 0.297606
C58   C     C_3   0.275013 0.263071 0.073249 0.285458
C59   C     C_R   0.769130 0.877789 0.853427 0.643772
C60   C     C_3   0.865863 0.308842 0.962494 0.298057
C61   C     C_R   0.728717 0.986171 0.065650 -0.019127
C62   C     C_R   0.249821 0.918122 0.922121 -0.001160
C63   C     C_R   0.228713 0.486172 0.065650 -0.018451
C64   C     C_R   0.749835 0.418159 0.922136 -0.002223
C65   C     C_R   0.533521 0.154341 0.145611 0.517917
C66   C     C_R   0.469500 0.156903 0.852551 0.585972
C67   C     C_R   0.033523 0.654339 0.145610 0.516963
C68   C     C_R   0.969501 0.656905 0.852550 0.587908
C69   C     C_R   0.476074 0.163367 0.568110 0.019177
C70   C     C_R   0.482760 0.396228 0.933774 0.043319
C71   C     C_R   0.493688 0.160983 0.420150 0.027533
C72   C     C_R   0.977153 0.664484 0.568626 0.011562
C73   C     C_R   0.995466 0.658817 0.420845 0.047627
C74   C     C_R   0.478695 0.054488 0.531164 -0.052119
C75   C     C_R   0.487804 0.052802 0.458812 -0.039477
C76   C     C_R   0.991390 0.556658 0.534140 -0.041589
C77   C     C_R   0.000785 0.553607 0.462112 -0.018357
C78   C     C_R   0.477642 0.270552 0.454722 -0.102633
C79   C     C_R   0.469976 0.271790 0.529038 -0.120403
C80   C     C_R   0.969738 0.764842 0.453030 -0.128451
C81   C     C_R   0.466681 0.369175 0.079765 -0.042484
C82   C     C_R   0.960544 0.767410 0.527252 -0.153306
C83   C     C_3   0.526307 0.949571 0.544374 0.760301
C84   C     C_3   0.539110 0.950124 0.465593 0.754354
C85   C     C_3   0.048442 0.468601 0.549831 0.759491
C86   C     C_3   0.062375 0.470252 0.471176 0.756471
C87   C     C_R   0.749475 0.914383 0.576851 0.073153
C88   C     C_R   0.246242 0.927578 0.421599 0.039592
C89   C     C_R   0.251835 0.408527 0.575093 0.079795
C90   C     C_R   0.751036 0.439192 0.418248 0.042205
C91   C     C_R   0.776075 0.018649 0.545312 0.063597
C92   C     C_R   0.982744 0.896236 0.933786 0.043364
C93   C     C_R   0.189304 0.968518 0.462263 0.037597
C94   C     C_R   0.278349 0.512915 0.543698 0.075641
C95   C     C_R   0.697530 0.495670 0.456927 0.034984
C96   C     C_R   0.777532 0.027958 0.473142 0.012960
C97   C     C_R   0.194626 0.982966 0.534181 -0.042120
C98   C     C_R   0.280689 0.521552 0.471636 0.029830
C99   C     C_R   0.706124 0.526267 0.526977 -0.065818
C100  C     C_R   0.716335 0.839345 0.458566 -0.084404
C101  C     C_R   0.316590 0.924285 0.528574 -0.169511
C102  C     C_R   0.218569 0.333785 0.456627 -0.093249
C103  C     C_R   0.966647 0.869144 0.079774 -0.042557
C104  C     C_R   0.825957 0.455751 0.522831 -0.164528
C105  C     C_R   0.713739 0.829748 0.532912 -0.075948
C106  C     C_R   0.312028 0.914734 0.454390 -0.186424
C107  C     C_R   0.217749 0.321635 0.530949 -0.088545
C108  C     C_R   0.817847 0.428561 0.449974 -0.180949
C109  C     C_3   0.839216 0.099684 0.553718 0.254070
C110  C     C_3   0.117587 0.913602 0.469788 0.264701
C111  C     C_3   0.342416 0.591904 0.552200 0.258446
C112  C     C_3   0.623792 0.453086 0.469358 0.251871
C113  C     C_R   0.726683 0.020727 0.140285 0.630850
C114  C     C_R   0.963321 0.995117 0.975622 -0.029159
C115  C     C_R   0.258259 0.967019 0.851341 0.603101
C116  C     C_R   0.226683 0.520727 0.140286 0.629515
C117  C     C_R   0.758263 0.467027 0.851346 0.611203
C118  C     C_3   0.842190 0.104181 0.472877 -0.202051
C119  C     C_3   0.122334 0.937337 0.548523 -0.193508
C120  C     C_3   0.346471 0.594831 0.471460 -0.192475
C121  C     C_3   0.632347 0.491655 0.545764 -0.181754
C122  C     C_R   0.751623 0.937699 0.427843 0.043257
C123  C     C_R   0.255969 0.950412 0.568982 0.015673
C124  C     C_R   0.253800 0.432504 0.426167 0.043541
Cr1   Cr    Cr6+3 0.772010 0.169670 0.250090 1.074241
Cr2   Cr    Cr6+3 0.383290 0.010760 0.749160 1.143840
Cr3   Cr    Cr6+3 0.116710 0.510760 0.250840 1.121809
Cr4   Cr    Cr6+3 0.883290 0.510760 0.749160 1.141233
Cr5   Cr    Cr6+3 0.227990 0.169670 0.749910 1.114193
Cr6   Cr    Cr6+3 0.272010 0.669670 0.250090 1.084331
Cr7   Cr    Cr6+3 0.727990 0.669670 0.749910 1.103678
Cr8   Cr    Cr6+3 0.615000 0.323260 0.249260 1.098747
Cr9   Cr    Cr6+3 0.385000 0.323260 0.750740 1.102947
Cr10  Cr    Cr6+3 0.115000 0.823260 0.249260 1.099608
Cr11  Cr    Cr6+3 0.885000 0.823260 0.750740 1.096926
Cr12  Cr    Cr6+3 0.616710 0.010760 0.250840 1.123735
F1    F     F_    0.023119 0.358825 0.574570 -0.583298
F2    F     F_    0.120075 0.790631 0.455600 -0.588191
F3    F     F_    0.400124 0.534973 0.581774 -0.623413
F4    F     F_    0.619608 0.328177 0.463121 -0.610553
F5    F     F_    0.698577 0.185413 0.026772 -0.642045
F6    F     F_    0.126011 0.959473 0.917563 -0.608576
F7    F     F_    0.198364 0.685330 0.026770 -0.642201
F8    F     F_    0.626028 0.459461 0.917574 -0.608173
F9    F     F_    0.727585 0.123721 0.887668 -0.620866
F10   F     F_    0.117463 0.966179 0.057311 -0.572326
F11   F     F_    0.227376 0.623681 0.887646 -0.621517
F12   F     F_    0.124197 0.528983 0.454628 -0.573903
F13   F     F_    0.617484 0.466218 0.057322 -0.572194
F14   F     F_    0.349138 0.231815 0.970456 -0.690468
F15   F     F_    0.840536 0.198087 0.068950 -0.656011
F16   F     F_    0.849124 0.731843 0.970471 -0.690463
F17   F     F_    0.340441 0.697917 0.068893 -0.656110
F18   F     F_    0.735594 0.682985 0.113242 -0.637131
F19   F     F_    0.428863 0.852775 0.936883 -0.655180
F20   F     F_    0.235619 0.183000 0.113239 -0.637266
F21   F     F_    0.928889 0.352951 0.936902 -0.655139
F22   F     F_    0.491464 0.847202 0.568126 -0.596695
F23   F     F_    0.606160 0.987155 0.449032 -0.588980
F24   F     F_    0.584893 0.979278 0.585064 -0.586620
F25   F     F_    0.517581 0.845670 0.430673 -0.619457
F26   F     F_    0.102276 0.516842 0.591125 -0.593863
F27   F     F_    0.053340 0.359352 0.437617 -0.617210
F28   F     F_    0.897887 0.043933 0.582296 -0.624057
H1    H     H_    0.550712 0.977020 0.050943 0.156197
H2    H     H_    0.357868 0.888583 0.423949 0.158419
H3    H     H_    0.194308 0.240875 0.553313 0.159186
H4    H     H_    0.861524 0.390360 0.420686 0.142244
H5    H     H_    0.826508 0.188315 0.578881 0.157803
H6    H     H_    0.075262 0.964322 0.441768 0.128789
H7    H     H_    0.330349 0.681003 0.576940 0.155638
H8    H     H_    0.583187 0.504303 0.439110 0.136427
H9    H     H_    0.888213 0.055831 0.449898 0.159868
H10   H     H_    0.121656 0.853766 0.581568 0.196257
H11   H     H_    0.391927 0.543674 0.449440 0.157247
H12   H     H_    0.539001 0.986499 0.924592 0.195159
H13   H     H_    0.629396 0.414910 0.583939 0.205470
H14   H     H_    0.478854 0.355581 0.426106 0.136575
H15   H     H_    0.463277 0.357135 0.556029 0.219493
H16   H     H_    0.962549 0.846937 0.422411 0.117326
H17   H     H_    0.942992 0.849851 0.552256 0.216202
H18   H     H_    0.831603 0.194527 0.450503 0.136161
H19   H     H_    0.086588 0.010832 0.566715 0.156079
H20   H     H_    0.337957 0.685130 0.448155 0.146415
H21   H     H_    0.599694 0.571803 0.559787 0.154995
H22   H     H_    0.493057 0.414636 0.878465 0.171232
H23   H     H_    0.050757 0.477041 0.050933 0.156123
H24   H     H_    0.456975 0.361716 0.136175 0.112212
H25   H     H_    0.993046 0.914653 0.878477 0.171152
H26   H     H_    0.956940 0.861666 0.136183 0.111749
H27   H     H_    0.956019 0.083242 0.951565 0.154302
H28   H     H_    0.938125 0.056813 0.080780 0.188162
H29   H     H_    0.456014 0.583203 0.951531 0.154222
H30   H     H_    0.438134 0.556800 0.080745 0.188443
H31   H     H_    0.754811 0.638382 0.982784 0.128552
H32   H     H_    0.411982 0.842621 0.069585 0.149870
H33   H     H_    0.254823 0.138384 0.982781 0.128842
H34   H     H_    0.039047 0.486533 0.924579 0.195424
H35   H     H_    0.912020 0.342880 0.069609 0.149221
H36   H     H_    0.824881 0.792658 0.099043 0.135135
H37   H     H_    0.348286 0.723220 0.936379 0.186912
H38   H     H_    0.324910 0.292636 0.099037 0.135156
H39   H     H_    0.848352 0.223332 0.936435 0.187415
H40   H     H_    0.689513 0.772879 0.425647 0.147297
H41   H     H_    0.366436 0.907913 0.554421 0.199668
H42   H     H_    0.192050 0.267286 0.423491 0.155552
H43   H     H_    0.875193 0.435168 0.548962 0.174050
H44   H     H_    0.687305 0.752825 0.555901 0.152567
O1    O     O_R   0.787520 0.042810 0.170440 -0.473824
O2    O     O_R   0.454050 0.051210 0.669140 -0.460133
O3    O     O_R   0.045950 0.551210 0.330860 -0.464243
O4    O     O_R   0.954050 0.551210 0.669140 -0.471526
O5    O     O_R   0.681390 0.959480 0.325510 -0.427386
O6    O     O_R   0.318610 0.959480 0.674490 -0.506723
O7    O     O_R   0.181390 0.459480 0.325510 -0.423275
O8    O     O_R   0.818610 0.459480 0.674490 -0.493701
O9    O     O_3   0.667900 0.167900 0.250060 -0.297513
O10   O     O_3   0.332100 0.167900 0.749940 -0.305226
O11   O     O_3   0.167900 0.667900 0.250060 -0.293060
O12   O     O_R   0.212480 0.042810 0.829560 -0.453148
O13   O     O_3   0.832100 0.667900 0.749940 -0.320156
O14   O     O_R   0.765640 0.292100 0.175020 -0.470205
O15   O     O_R   0.234360 0.292100 0.824980 -0.493430
O16   O     O_R   0.265640 0.792100 0.175020 -0.470571
O17   O     O_R   0.734360 0.792100 0.824980 -0.493327
O18   O     O_R   0.670190 0.408840 0.168540 -0.427606
O19   O     O_R   0.329810 0.408840 0.831460 -0.482579
O20   O     O_R   0.170190 0.908840 0.168540 -0.427965
O21   O     O_R   0.829810 0.908840 0.831460 -0.480630
O22   O     O_R   0.556620 0.251410 0.175160 -0.495247
O23   O     O_R   0.287520 0.542810 0.170440 -0.475047
O24   O     O_R   0.443380 0.251410 0.824840 -0.514966
O25   O     O_R   0.056620 0.751410 0.175160 -0.496341
O26   O     O_R   0.943380 0.751410 0.824840 -0.513336
O27   O     O_R   0.545960 0.049620 0.170320 -0.537684
O28   O     O_R   0.454040 0.049620 0.829680 -0.448140
O29   O     O_R   0.045960 0.549620 0.170320 -0.539469
O30   O     O_R   0.954040 0.549620 0.829680 -0.446814
O31   O     O_R   0.681390 0.958010 0.176690 -0.489590
O32   O     O_R   0.318610 0.958010 0.823310 -0.464957
O33   O     O_R   0.181390 0.458010 0.176690 -0.491404
O34   O     O_R   0.712480 0.542810 0.829560 -0.449988
O35   O     O_R   0.818610 0.458010 0.823310 -0.461310
O36   O     O_R   0.787510 0.044390 0.330970 -0.540347
O37   O     O_R   0.212490 0.044390 0.669030 -0.512468
O38   O     O_R   0.287510 0.544390 0.330970 -0.538389
O39   O     O_R   0.712490 0.544390 0.669030 -0.509701
O40   O     O_R   0.765630 0.293570 0.323840 -0.513413
O41   O     O_R   0.234370 0.293570 0.676160 -0.501679
O42   O     O_R   0.265630 0.793570 0.323840 -0.504969
O43   O     O_R   0.734370 0.793570 0.676160 -0.518814
O44   O     O_R   0.670190 0.410420 0.329080 -0.492969
O45   O     O_R   0.556610 0.252880 0.323980 -0.483545
O46   O     O_R   0.329810 0.410420 0.670920 -0.449414
O47   O     O_R   0.170190 0.910420 0.329080 -0.500538
O48   O     O_R   0.829810 0.910420 0.670920 -0.449109
O49   O     O_R   0.443390 0.252880 0.676020 -0.506116
O50   O     O_R   0.056610 0.752880 0.323980 -0.475798
O51   O     O_R   0.943390 0.752880 0.676020 -0.506823
O52   O     O_R   0.545950 0.051210 0.330860 -0.450518

loop_
_geom_bond_atom_site_label_1
_geom_bond_atom_site_label_2
_ccdc_geom_bond_type
C50   F11   S    
C44   C49   A    
C47   F9    S    
C26   H1    S    
C53   F17   S    
C3    C16   S    
C87   C91   A    
C7    O48   A    
C35   C53   S    
C2    C114  A    
C112  F4    S    
C20   C67   S    
C18   C26   A    
C59   O21   A    
C74   C83   S    
C72   C76   A    
Cr2   O32   S    
C86   F27   S    
Cr6   O38   S    
C6    C88   S    
C90   C95   A    
C54   F14   S    
Cr5   O37   S    
Cr1   O14   S    
C68   O26   A    
C18   C65   S    
C98   C124  A    
C57   F19   S    
C82   H17   S    
C11   O51   A    
C100  C105  A    
C101  C123  A    
C54   H33   S    
C65   O22   A    
Cr8   O44   S    
C44   F6    S    
C106  H2    S    
C96   C118  S    
C28   C29   A    
C2    H28   S    
C41   C58   S    
C38   C42   A    
Cr5   O12   S    
C9    O49   A    
C95   C112  S    
C119  H10   S    
C115  O32   A    
C48   O20   A    
C10   C73   S    
C95   C99   A    
C75   C84   S    
C16   O39   A    
C83   F22   S    
C20   C25   A    
C94   C98   A    
Cr4   O30   S    
Cr10  O11   S    
C45   C63   A    
Cr12  O27   S    
C66   O24   A    
C94   C111  S    
C40   C62   A    
C14   O6    A    
Cr1   O36   S    
Cr8   O9    S    
C104  H43   S    
C70   H22   S    
C89   C94   A    
C16   O8    A    
C4    O40   A    
Cr2   O6    S    
C91   C96   A    
C88   C93   A    
C52   C56   S    
C6    O47   A    
C73   C80   A    
C7    C87   S    
C38   C55   S    
C83   C84   S    
C118  H9    S    
Cr7   O43   S    
C12   O36   A    
Cr3   O33   S    
Cr12  O52   S    
C10   O50   A    
C40   C57   S    
Cr11  O48   S    
Cr2   O28   S    
C81   H24   S    
C100  C122  A    
Cr5   O15   S    
C93   C110  S    
C99   C121  S    
C14   O37   A    
C117  O34   A    
C66   O28   A    
Cr9   O49   S    
C108  H4    S    
C110  C119  S    
Cr10  O50   S    
C18   C22   A    
C55   C60   S    
C85   F26   S    
C36   C41   A    
C52   H31   S    
C12   O5    A    
C31   C49   A    
C3    C104  A    
C102  C124  A    
C101  H41   S    
C84   F23   S    
C109  H5    S    
C109  C118  S    
C4    C90   S    
C118  H18   S    
C69   C74   A    
C39   C61   A    
C107  H3    S    
C74   C75   A    
C30   C34   A    
C1    C33   S    
C34   C39   A    
C17   C27   A    
C22   C81   A    
C5    O41   A    
C30   C47   A    
C110  F2    S    
C36   C54   S    
C76   C77   A    
C4    O44   A    
C56   F18   S    
Cr2   O2    S    
C28   H23   S    
C42   C60   S    
Cr1   O1    S    
C11   C72   S    
C25   C103  A    
C46   F8    S    
Cr12  O9    S    
C20   C28   A    
C44   C62   A    
C85   C86   S    
C80   C82   A    
C46   C51   A    
C67   O29   A    
C17   C21   A    
C64   C117  S    
C83   F24   S    
C13   C24   A    
C7    O43   A    
C1    O14   A    
C121  H21   S    
Cr10  O20   S    
C5    O46   A    
C27   H12   S    
C19   C23   A    
C24   C81   A    
C19   C68   S    
Cr5   O10   S    
C6    O42   A    
Cr8   O18   S    
C11   O4    A    
C88   C106  A    
Cr7   O17   S    
C60   H39   S    
Cr11  O21   S    
C39   C56   S    
C87   C105  A    
C78   C79   A    
C24   H30   S    
C9    O2    A    
C52   F16   S    
C30   C59   S    
C89   C107  A    
C26   C27   A    
Cr11  O26   S    
C102  C107  A    
Cr7   O13   S    
C103  H26   S    
C119  H19   S    
C32   C37   S    
C60   F21   S    
C111  F3    S    
C55   F15   S    
C102  H42   S    
C32   C50   A    
C1    O18   A    
Cr7   O39   S    
Cr8   O45   S    
Cr4   O8    S    
C63   C116  S    
C110  H6    S    
C15   O7    A    
C15   C124  S    
C77   C86   S    
Cr11  O13   S    
C37   O15   A    
C31   C48   S    
C116  O23   A    
C61   C113  S    
C31   C35   A    
C115  O12   A    
C43   F5    S    
Cr3   O29   S    
C41   C63   A    
Cr6   O42   S    
C57   H37   S    
C19   C29   A    
Cr5   O41   S    
C93   C97   A    
C104  C108  A    
C92   H25   S    
C43   C61   A    
C105  H44   S    
C45   F7    S    
Cr12  O5    S    
C54   C58   S    
C85   F1    S    
Cr3   O3    S    
C101  C106  A    
C53   H32   S    
C116  O33   A    
C67   O25   A    
C120  H11   S    
C15   O38   A    
C14   C123  S    
C112  C121  S    
C78   H14   S    
Cr11  O51   S    
C65   O27   A    
Cr9   O19   S    
C9    C69   S    
C43   C47   A    
Cr1   O40   S    
C109  F28   S    
Cr8   O22   S    
Cr4   O13   S    
Cr10  O47   S    
C42   C64   A    
C121  H13   S    
C32   C36   A    
C98   C120  S    
C114  H27   S    
C33   C51   A    
C48   O16   A    
C34   C52   S    
Cr9   O10   S    
Cr3   O11   S    
C96   C122  A    
C21   C70   A    
C91   C109  S    
Cr6   O16   S    
C35   C40   A    
C56   H36   S    
Cr9   O24   S    
C90   C108  A    
C62   C115  S    
C80   H16   S    
C68   O30   A    
Cr4   O4    S    
C71   C75   A    
C100  H40   S    
Cr3   O7    S    
C112  H8    S    
Cr9   O46   S    
C92   C114  A    
Cr6   O23   S    
C72   C82   A    
C97   C119  S    
C117  O35   A    
Cr10  O25   S    
C53   C57   S    
C49   F10   S    
C111  H7    S    
C23   C25   A    
C17   C66   S    
Cr6   O11   S    
C59   O17   A    
C86   F12   S    
C2    C103  A    
C69   C79   A    
C84   F25   S    
C113  O1    A    
C58   F20   S    
C3    C99   A    
C10   O3    A    
C113  O31   A    
C79   H15   S    
C12   C122  S    
C51   F13   S    
C97   C123  A    
C29   H34   S    
C13   C70   A    
Cr12  O31   S    
C46   C64   A    
C120  H20   S    
Cr4   O35   S    
C73   C77   A    
C23   C92   A    
C111  C120  S    
C33   C38   A    
C13   H29   S    
C45   C50   A    
Cr7   O34   S    
C21   C22   A    
C37   O19   A    
C76   C85   S    
C71   C78   A    
C5    C89   S    
C8    O45   A    
Cr2   O10   S    
C58   H38   S    
C55   H35   S    
C8    O52   A    
C8    C71   S    
Cr1   O9    S    
