data_mof_unit_31895.cif
_audit_creation_date              2012-12-11T15:47:08-0500
_audit_creation_method            fapswitch 2.2
_symmetry_space_group_name_H-M    P1
_symmetry_Int_Tables_number       1
_space_group_crystal_system       triclinic
_cell_length_a                    20.122222
_cell_length_b                    7.26137
_cell_length_c                    13.810469
_cell_angle_alpha                 89.996069
_cell_angle_beta                  103.513183
_cell_angle_gamma                 90.003343
_cell_volume                      1962.05167932

loop_
_atom_site_label
_atom_site_type_symbol
_atom_type_description
_atom_site_fract_x
_atom_site_fract_y
_atom_site_fract_z
_atom_type_partial_charge
O1    O     O_R   0.449560 0.506810 0.599700 -0.538009
O2    O     O_R   0.550440 0.006810 0.400300 -0.537987
O3    O     O_R   0.587960 0.180060 0.595760 -0.544781
O4    O     O_R   0.412040 0.680060 0.404240 -0.544769
C1    C     C_R   0.615537 0.344109 0.615527 0.684765
C2    C     C_R   0.384460 0.844108 0.384483 0.684760
O5    O     O_R   0.452380 0.177430 0.611700 -0.539898
O6    O     O_R   0.547620 0.677430 0.388300 -0.539875
O7    O     O_R   0.413900 0.001890 0.416350 -0.543654
O8    O     O_R   0.586100 0.501890 0.583650 -0.543663
C3    C     C_R   0.436672 0.346033 0.636676 0.685317
C4    C     C_R   0.563327 0.846049 0.363321 0.685341
O9    O     O_3   0.487530 0.337490 0.435890 -0.380559
O10   O     O_3   0.512470 0.837490 0.564110 -0.380579
V1    V     V_3+5 0.502310 0.064660 0.511890 1.398858
V2    V     V_3+5 0.497690 0.564660 0.488110 1.398920
C5    C     C_R   0.602201 0.924642 0.116154 -0.134554
C6    C     C_R   0.397831 0.424072 0.883891 -0.134423
H1    H     H_    0.511563 0.931136 0.171896 0.107959
H2    H     H_    0.488472 0.430552 0.828157 0.107916
H3    H     H_    0.573732 0.960341 0.041884 0.155286
H4    H     H_    0.426315 0.459508 0.958189 0.155363
C7    C     C_R   0.600563 0.857764 0.285588 -0.013929
C8    C     C_R   0.399438 0.357685 0.714406 -0.013893
C9    C     C_R   0.927166 0.840494 0.307205 -0.152290
C10   C     C_R   0.072828 0.340620 0.692799 -0.152267
C11   C     C_R   0.892298 0.828954 0.382180 -0.127574
C12   C     C_R   0.107692 0.329062 0.617823 -0.127609
C13   C     C_R   0.821413 0.833553 0.359577 -0.125652
C14   C     C_R   0.178578 0.333585 0.640424 -0.125646
C15   C     C_R   0.782703 0.847750 0.259880 0.075664
C16   C     C_R   0.217294 0.347744 0.740119 0.075673
C17   C     C_R   0.818263 0.858593 0.181480 -0.065407
C18   C     C_R   0.181736 0.358606 0.818525 -0.065339
C19   C     C_R   0.709783 0.857464 0.236900 0.014848
C20   C     C_R   0.290218 0.357383 0.763095 0.014808
C21   C     C_R   0.673377 0.894874 0.137864 0.008319
C22   C     C_R   0.326640 0.394533 0.862153 0.008395
C23   C     C_R   0.707556 0.898447 0.060716 0.390192
C24   C     C_R   0.292462 0.398117 0.939296 0.390260
C25   C     C_R   0.778903 0.876219 0.081306 -0.147082
C26   C     C_R   0.221102 0.376190 0.918702 -0.147269
C27   C     C_R   0.671286 0.832967 0.309492 -0.183186
C28   C     C_R   0.328705 0.333052 0.690483 -0.183135
C29   C     C_R   0.566258 0.907547 0.189805 -0.189811
C30   C     C_R   0.433767 0.407115 0.810229 -0.189981
C31   C     C_R   0.891794 0.856626 0.207732 -0.041163
C32   C     C_R   0.108205 0.356692 0.792272 -0.041086
H5    H     H_    0.694257 0.794202 0.385225 0.089498
H6    H     H_    0.305726 0.294552 0.614715 0.089450
H7    H     H_    0.982577 0.837732 0.327046 0.095152
H8    H     H_    0.017418 0.337898 0.672959 0.095161
H9    H     H_    0.798696 0.830651 0.422784 0.099865
H10   H     H_    0.201287 0.330618 0.577213 0.099863
H11   H     H_    0.920558 0.818445 0.458998 0.115975
H12   H     H_    0.079430 0.318578 0.541005 0.115976
C33   C     C_R   0.220334 0.022122 0.215553 -0.186591
C34   C     C_R   0.779643 0.522098 0.784514 -0.186529
H13   H     H_    0.201096 0.153169 0.183973 0.139297
H14   H     H_    0.798877 0.653135 0.816105 0.139496
C35   C     C_R   0.285588 0.017451 0.278874 -0.171909
C36   C     C_R   0.714387 0.517426 0.721199 -0.171850
H15   H     H_    0.314098 0.144617 0.294115 0.130932
H16   H     H_    0.685869 0.644574 0.705983 0.130872
C37   C     C_R   0.313958 0.850627 0.320425 -0.043497
C38   C     C_R   0.686031 0.350623 0.679605 -0.043468
C39   C     C_R   0.273328 0.690691 0.302642 -0.128608
C40   C     C_R   0.726668 0.190704 0.697365 -0.128724
H17   H     H_    0.292395 0.560700 0.336510 0.108145
H18   H     H_    0.707608 0.060730 0.663469 0.108107
C41   C     C_R   0.207097 0.696773 0.241693 -0.053667
C42   C     C_R   0.792897 0.196787 0.758319 -0.053626
H19   H     H_    0.176656 0.572258 0.231717 0.135662
H20   H     H_    0.823346 0.072298 0.768264 0.135789
C43   C     C_R   0.181075 0.860445 0.192922 -0.030012
C44   C     C_R   0.818913 0.360441 0.807109 -0.030146
O11   O     O_R   0.913920 0.203370 0.916260 -0.514487
O12   O     O_R   0.086080 0.703370 0.083740 -0.514546
O13   O     O_R   0.047620 0.535540 0.888290 -0.531830
O14   O     O_R   0.952380 0.035540 0.111710 -0.531804
C45   C     C_R   0.065468 0.368100 0.864900 0.656659
C46   C     C_R   0.934532 0.868085 0.135102 0.656816
O15   O     O_R   0.912040 0.532780 0.904220 -0.559154
O16   O     O_R   0.087960 0.032780 0.095780 -0.559195
O17   O     O_R   0.949550 0.708160 0.099720 -0.550552
O18   O     O_R   0.050450 0.208160 0.900280 -0.550523
C47   C     C_R   0.886376 0.364870 0.880444 0.684629
C48   C     C_R   0.113620 0.864871 0.119565 0.684672
O19   O     O_3   0.012480 0.375300 0.064060 -0.381441
O20   O     O_3   0.987520 0.875300 0.935940 -0.381348
V3    V     V_3+5 0.997690 0.648180 0.988110 1.442347
V4    V     V_3+5 0.002310 0.148180 0.011890 1.442311
O21   O     O_3   0.670995 0.930460 0.963764 -0.532650
C49   C     C_3   0.645988 0.761238 0.919091 0.071317
H21   H     H_    0.619164 0.679385 0.966700 0.106001
H22   H     H_    0.688642 0.677406 0.903980 0.130893
C50   C     C_3   0.595122 0.800066 0.820965 -0.638331
H23   H     H_    0.619757 0.883387 0.771634 0.224431
H24   H     H_    0.576803 0.668405 0.783110 0.167132
H25   H     H_    0.550615 0.877287 0.834863 0.206698
O22   O     O_3   0.329054 0.429832 0.036260 -0.532686
C51   C     C_3   0.353891 0.260399 0.080847 0.071280
H26   H     H_    0.380507 0.178200 0.033111 0.106033
H27   H     H_    0.311163 0.177045 0.096101 0.131043
C52   C     C_3   0.404939 0.298794 0.178858 -0.638647
H28   H     H_    0.380548 0.382659 0.228259 0.224610
H29   H     H_    0.423046 0.166982 0.216722 0.167079
H30   H     H_    0.449560 0.375270 0.164791 0.206596
C53   C     C_2   0.809093 0.866480 0.994387 0.402297
H31   H     H_    0.839130 0.748633 0.983545 0.041793
O23   O     O_2   0.798239 0.988244 0.932309 -0.519941
C54   C     C_2   0.190903 0.366925 0.005627 0.402449
H32   H     H_    0.160791 0.249305 0.016587 0.041770
O24   O     O_2   0.201848 0.488854 0.067600 -0.519910

loop_
_geom_bond_atom_site_label_1
_geom_bond_atom_site_label_2
_ccdc_geom_bond_type
C34   C36   A    
O15   C47   A    
O11   V4    S    
O4    V2    S    
O21   C49   S    
C7    C29   A    
C11   C13   A    
C38   C40   A    
O1    C3    A    
C42   C44   A    
O2    C4    A    
C2    O7    A    
C54   O24   D    
C50   H23   S    
O17   V3    S    
C34   C44   A    
C23   C25   A    
O5    C3    A    
C14   H10   S    
C4    C7    S    
O22   C51   S    
C16   C20   A    
C19   C21   A    
C5    C29   A    
C53   O23   D    
C11   H11   S    
C33   H13   S    
C34   H14   S    
C3    C8    S    
C7    C27   A    
C32   C45   S    
C51   C52   S    
C31   C46   S    
C35   H15   S    
C26   C54   S    
C23   O21   S    
C36   H16   S    
C24   O22   S    
C2    C37   S    
C37   C39   A    
C18   C26   A    
C15   C17   A    
C19   C27   A    
C9    C31   A    
O13   V3    S    
C45   O18   A    
C10   C32   A    
C24   C26   A    
O6    V2    S    
C22   C24   A    
C25   C53   S    
C49   H21   S    
C6    C30   A    
C54   H32   S    
C50   H24   S    
C12   H12   S    
C21   C23   A    
C52   H30   S    
C41   C43   A    
C36   C38   A    
C42   H20   S    
O13   C45   A    
C27   H5    S    
O5    V1    S    
C49   C50   S    
C5    H3    S    
C40   C42   A    
C39   H17   S    
C16   C18   A    
O14   V4    S    
C49   H22   S    
C9    H7    S    
C10   H8    S    
C52   H29   S    
O6    C4    A    
O1    V2    S    
C5    C21   A    
O19   V4    S    
C51   H27   S    
O2    V1    S    
C44   C47   S    
O4    C2    A    
C17   C31   A    
C15   C19   A    
C20   C28   A    
C18   C32   A    
C50   H25   S    
O3    V1    S    
C41   H19   S    
O12   C48   A    
C6    H4    S    
O16   C48   A    
C1    C38   S    
O3    C1    A    
H1    C29   S    
C33   C35   A    
O12   V3    S    
C9    C11   A    
C46   O17   A    
O15   V3    S    
C52   H28   S    
C10   C12   A    
C8    C30   A    
C33   C43   A    
C20   C22   A    
C6    C22   A    
C17   C25   A    
C1    O8    A    
C13   C15   A    
O8    V2    S    
C53   H31   S    
C14   C16   A    
O20   V3    S    
C13   H9    S    
C8    C28   A    
C12   C14   A    
O14   C46   A    
C39   C41   A    
O7    V1    S    
C51   H26   S    
C35   C37   A    
C43   C48   S    
O11   C47   A    
C28   H6    S    
C40   H18   S    
O9    V2    S    
O10   V1    S    
O18   V4    S    
O16   V4    S    
H2    C30   S    
