data_mof_unit_64841.cif
_audit_creation_date              2012-12-10T19:53:44-0500
_audit_creation_method            fapswitch 2.2
_symmetry_space_group_name_H-M    P1
_symmetry_Int_Tables_number       1
_space_group_crystal_system       triclinic
_cell_length_a                    18.25303
_cell_length_b                    18.25307
_cell_length_c                    47.187354
_cell_angle_alpha                 90.000452
_cell_angle_beta                  90.000539
_cell_angle_gamma                 89.998052
_cell_volume                      15721.5916525

loop_
_atom_site_label
_atom_site_type_symbol
_atom_type_description
_atom_site_fract_x
_atom_site_fract_y
_atom_site_fract_z
_atom_type_partial_charge
C1    C     C_R   0.999999 0.859021 1.000000 0.917515
C2    C     C_R   0.056508 0.535749 0.868642 0.319686
C3    C     C_R   0.951610 0.543916 0.690222 0.658208
C4    C     C_R   0.456140 0.048441 0.309777 0.658199
C5    C     C_R   0.048524 0.543761 0.309773 0.658227
C6    C     C_R   0.543855 0.951561 0.309777 0.658197
C7    C     C_R   0.951480 0.456233 0.309772 0.658218
C8    C     C_R   0.048220 0.546918 0.220026 -0.214105
C9    C     C_R   0.453008 0.048154 0.220026 -0.214078
C10   C     C_R   0.951786 0.453076 0.220025 -0.214111
C11   C     C_R   0.546990 0.951850 0.220026 -0.214076
C12   C     C_R   0.048084 0.452941 0.779971 -0.214089
C13   C     C_R   0.464295 0.056539 0.868643 0.319711
C14   C     C_R   0.453046 0.951815 0.779973 -0.214107
C15   C     C_R   0.951911 0.547058 0.779971 -0.214090
C16   C     C_R   0.546960 0.048181 0.779974 -0.214116
C17   C     C_R   0.548271 0.046869 0.720024 -0.214105
C18   C     C_R   0.953237 0.548376 0.720020 -0.214095
C19   C     C_R   0.451736 0.953129 0.720023 -0.214107
C20   C     C_R   0.046760 0.451626 0.720020 -0.214094
C21   C     C_R   0.548313 0.953178 0.279978 -0.214082
C22   C     C_R   0.953099 0.451762 0.279975 -0.214103
C23   C     C_R   0.451683 0.046825 0.279978 -0.214083
C24   C     C_R   0.943488 0.464250 0.868642 0.319684
C25   C     C_R   0.046906 0.548231 0.279976 -0.214107
C26   C     C_R   0.000003 0.499997 0.235010 -0.090233
C27   C     C_R   0.499999 0.000002 0.235012 -0.090219
C28   C     C_R   0.999998 0.500000 0.764986 -0.090228
C29   C     C_R   0.500003 0.999998 0.764988 -0.090235
C30   C     C_R   0.500004 0.999999 0.735009 -0.090234
C31   C     C_R   0.999998 0.500000 0.735006 -0.090227
C32   C     C_R   0.499998 0.000001 0.264992 -0.090222
C33   C     C_R   0.000003 0.499997 0.264990 -0.090232
C34   C     C_R   0.097012 0.592695 0.235279 0.447893
C35   C     C_R   0.535939 0.056390 0.131355 0.319743
C36   C     C_R   0.407151 0.096872 0.235280 0.447866
C37   C     C_R   0.902994 0.407299 0.235278 0.447892
C38   C     C_R   0.592846 0.903131 0.235280 0.447864
C39   C     C_R   0.096742 0.407020 0.764717 0.447877
C40   C     C_R   0.407235 0.903057 0.764719 0.447896
C41   C     C_R   0.903254 0.592979 0.764718 0.447877
C42   C     C_R   0.592772 0.096940 0.764721 0.447896
C43   C     C_R   0.597113 0.092592 0.735278 0.447890
C44   C     C_R   0.907618 0.597317 0.735274 0.447875
C45   C     C_R   0.402895 0.907406 0.735276 0.447888
C46   C     C_R   0.056505 0.464233 0.131355 0.319682
C47   C     C_R   0.092378 0.402684 0.735274 0.447874
C48   C     C_R   0.597192 0.907493 0.264724 0.447865
C49   C     C_R   0.907340 0.402954 0.264721 0.447891
C50   C     C_R   0.402805 0.092510 0.264724 0.447865
C51   C     C_R   0.092665 0.597039 0.264723 0.447890
C52   C     C_R   0.464060 0.943612 0.131354 0.319735
C53   C     C_R   0.943502 0.535769 0.131355 0.319722
C54   C     C_R   0.035787 0.443509 0.368645 0.319680
C55   C     C_R   0.556290 0.036094 0.368650 0.319796
C56   C     C_R   0.964211 0.556485 0.368645 0.319710
C57   C     C_R   0.140978 0.000000 0.000000 0.917515
C58   C     C_R   0.443706 0.963909 0.368650 0.319798
C59   C     C_R   0.036054 0.556317 0.631349 0.319789
C60   C     C_R   0.556484 0.964201 0.631354 0.319690
C61   C     C_R   0.963943 0.443686 0.631348 0.319792
C62   C     C_R   0.443524 0.035803 0.631354 0.319712
C63   C     C_R   0.539176 0.945496 0.898571 0.241622
C64   C     C_R   0.054463 0.539222 0.898570 0.241547
C65   C     C_R   0.460821 0.054497 0.898571 0.241549
C66   C     C_R   0.945533 0.460778 0.898570 0.241550
C67   C     C_R   0.539396 0.054338 0.101426 0.241444
C68   C     C_R   0.000000 0.140978 0.000000 0.917515
C69   C     C_R   0.054460 0.460764 0.101427 0.241570
C70   C     C_R   0.460603 0.945664 0.101425 0.241453
C71   C     C_R   0.945546 0.539238 0.101427 0.241529
C72   C     C_R   0.039254 0.445554 0.398573 0.241554
C73   C     C_R   0.554233 0.039536 0.398580 0.241374
C74   C     C_R   0.960744 0.554441 0.398573 0.241521
C75   C     C_R   0.445764 0.960465 0.398579 0.241371
C76   C     C_R   0.039500 0.554261 0.601421 0.241399
C77   C     C_R   0.554438 0.960734 0.601426 0.241546
C78   C     C_R   0.960498 0.445741 0.601420 0.241392
C79   C     C_R   0.859021 0.999999 1.000000 0.917516
C80   C     C_R   0.445568 0.039269 0.601426 0.241520
C81   C     C_R   0.500000 0.999999 0.913357 -0.223643
C82   C     C_R   0.999999 0.500000 0.913356 -0.223607
C83   C     C_R   0.500000 0.000001 0.086641 -0.223479
C84   C     C_R   0.000001 0.500000 0.086642 -0.223607
C85   C     C_R   0.000000 0.499999 0.413358 -0.223576
C86   C     C_R   0.499999 0.000001 0.413362 -0.223386
C87   C     C_R   0.999999 0.500001 0.586638 -0.223416
C88   C     C_R   0.500001 0.000000 0.586641 -0.223575
C89   C     C_R   0.500001 0.999998 0.854102 0.153896
C90   C     C_R   0.499999 0.359021 0.500000 0.917530
C91   C     C_R   0.999998 0.499999 0.854100 0.153948
C92   C     C_R   0.499999 0.000002 0.145896 0.153976
C93   C     C_R   0.000003 0.499999 0.145897 0.153896
C94   C     C_R   0.000000 0.499997 0.354104 0.153908
C95   C     C_R   0.499998 0.000002 0.354108 0.153953
C96   C     C_R   0.999998 0.500001 0.645891 0.153918
C97   C     C_R   0.500003 0.000001 0.645895 0.153892
C98   C     C_1   0.782532 0.999998 1.000000 -0.156398
C99   C     C_1   0.999998 0.782532 1.000000 -0.156403
C100  C     C_1   0.217468 0.000002 0.000000 -0.156403
C101  C     C_R   0.640978 0.500000 0.500000 0.917530
C102  C     C_1   0.000002 0.217468 0.000000 -0.156398
C103  C     C_1   0.282532 0.499998 0.500000 -0.156411
C104  C     C_1   0.499998 0.282532 0.500000 -0.156413
C105  C     C_1   0.717468 0.500002 0.500000 -0.156414
C106  C     C_1   0.500002 0.717468 0.500000 -0.156410
C107  C     C_1   0.717725 0.999997 1.000000 -0.141559
C108  C     C_1   0.999997 0.717725 1.000000 -0.141579
C109  C     C_1   0.282275 0.000003 0.000000 -0.141567
C110  C     C_1   0.000003 0.282275 0.000000 -0.141573
C111  C     C_1   0.217725 0.499997 0.500000 -0.141541
C112  C     C_R   0.500001 0.640978 0.500000 0.917530
C113  C     C_1   0.499997 0.217725 0.500000 -0.141541
C114  C     C_1   0.782275 0.500003 0.500000 -0.141546
C115  C     C_1   0.500003 0.782275 0.500000 -0.141538
C116  C     C_R   0.500000 1.000000 0.944503 1.031533
C117  C     C_R   1.000000 0.500000 0.944503 1.031599
C118  C     C_R   0.500000 0.000000 0.055496 1.031891
C119  C     C_R   0.000000 0.500000 0.055497 1.031641
C120  C     C_R   0.000000 0.500000 0.444503 1.031657
C121  C     C_R   0.500000 0.000000 0.444505 1.032125
C122  C     C_R   1.000000 0.500000 0.555495 1.032076
C123  C     C_R   0.359022 0.499999 0.500000 0.917531
C124  C     C_R   0.500000 1.000000 0.555496 1.031680
C125  C     C_R   0.641240 0.999999 0.000000 0.926250
C126  C     C_R   0.999999 0.641240 1.000000 0.926189
C127  C     C_R   0.358760 0.000001 0.000000 0.926243
C128  C     C_R   0.000001 0.358760 0.000000 0.926196
C129  C     C_R   0.141240 0.499999 0.500000 0.926327
C130  C     C_R   0.499999 0.141240 0.500000 0.926345
C131  C     C_R   0.858760 0.500001 0.500000 0.926322
C132  C     C_R   0.500001 0.858760 0.500000 0.926349
C133  C     C_R   0.956257 0.451460 0.190227 0.658226
C134  C     C_R   0.535701 0.943454 0.868643 0.319648
C135  C     C_R   0.548590 0.956311 0.190227 0.658195
C136  C     C_R   0.043749 0.548535 0.190228 0.658212
C137  C     C_R   0.451408 0.043692 0.190227 0.658197
C138  C     C_R   0.956380 0.548655 0.809769 0.658204
C139  C     C_R   0.548573 0.043708 0.809771 0.658233
C140  C     C_R   0.043616 0.451343 0.809769 0.658208
C141  C     C_R   0.451431 0.956289 0.809770 0.658209
C142  C     C_R   0.456206 0.951508 0.690226 0.658227
C143  C     C_R   0.048387 0.456086 0.690222 0.658209
C144  C     C_R   0.543801 0.048492 0.690227 0.658222
H1    H     H_    0.176432 0.602378 0.208982 0.368292
H2    H     H_    0.898199 0.676777 0.708980 0.368309
H3    H     H_    0.323466 0.897808 0.708977 0.368318
H4    H     H_    0.101797 0.323225 0.708979 0.368309
H5    H     H_    0.676646 0.897971 0.291015 0.368291
H6    H     H_    0.897686 0.323531 0.291019 0.368306
H7    H     H_    0.323350 0.102032 0.291014 0.368291
H8    H     H_    0.102320 0.676462 0.291021 0.368308
H9    H     H_    0.567543 0.842550 0.864521 0.361278
H10   H     H_    0.157368 0.567740 0.864526 0.361302
H11   H     H_    0.432379 0.157425 0.864527 0.361325
H12   H     H_    0.397351 0.176295 0.208991 0.368268
H13   H     H_    0.842626 0.432264 0.864525 0.361301
H14   H     H_    0.568310 0.157131 0.135468 0.361326
H15   H     H_    0.157366 0.432247 0.135475 0.361300
H16   H     H_    0.431698 0.842870 0.135468 0.361318
H17   H     H_    0.842654 0.567803 0.135472 0.361332
H18   H     H_    0.067817 0.342663 0.364525 0.361320
H19   H     H_    0.656936 0.068756 0.364538 0.361355
H20   H     H_    0.932144 0.657321 0.364528 0.361343
H21   H     H_    0.343060 0.931246 0.364537 0.361357
H22   H     H_    0.068633 0.656988 0.635464 0.361361
H23   H     H_    0.823574 0.397616 0.208979 0.368295
H24   H     H_    0.657322 0.932145 0.635473 0.361329
H25   H     H_    0.931360 0.343015 0.635463 0.361363
H26   H     H_    0.342693 0.067888 0.635472 0.361348
H27   H     H_    0.622991 0.880221 0.901814 0.358427
H28   H     H_    0.119604 0.623130 0.901820 0.358397
H29   H     H_    0.376960 0.119702 0.901820 0.358379
H30   H     H_    0.880389 0.376873 0.901819 0.358402
H31   H     H_    0.623530 0.119175 0.098167 0.358379
H32   H     H_    0.119617 0.376861 0.098179 0.358411
H33   H     H_    0.376476 0.880817 0.098167 0.358384
H34   H     H_    0.602647 0.823709 0.208991 0.368267
H35   H     H_    0.880433 0.623169 0.098176 0.358381
H36   H     H_    0.123179 0.380428 0.401823 0.358407
H37   H     H_    0.618841 0.123842 0.401846 0.358359
H38   H     H_    0.876797 0.619533 0.401825 0.358386
H39   H     H_    0.381158 0.876159 0.401845 0.358360
H40   H     H_    0.123754 0.618939 0.598158 0.358363
H41   H     H_    0.619542 0.876793 0.598176 0.358404
H42   H     H_    0.876240 0.381069 0.598155 0.358359
H43   H     H_    0.380489 0.123226 0.598174 0.358386
H44   H     H_    0.176145 0.397108 0.791010 0.368268
H45   H     H_    0.397493 0.823645 0.791018 0.368286
H46   H     H_    0.823851 0.602890 0.791010 0.368269
H47   H     H_    0.602513 0.176351 0.791020 0.368290
H48   H     H_    0.676541 0.102190 0.708979 0.368316
N1    N     N_R   0.000003 0.499998 0.176242 -0.287002
N2    N     N_R   0.499999 0.000002 0.176241 -0.286961
N3    N     N_R   0.999998 0.499999 0.823755 -0.286979
N4    N     N_R   0.500002 0.999998 0.823757 -0.287006
N5    N     N_R   0.500004 0.000000 0.676240 -0.287004
N6    N     N_R   0.999998 0.500001 0.676236 -0.286986
N7    N     N_R   0.499998 0.000001 0.323763 -0.286968
N8    N     N_R   0.000001 0.499997 0.323759 -0.286999
O1    O     O_R   0.999960 0.892740 0.023680 -0.610901
O2    O     O_R   0.607260 0.499960 0.523680 -0.610903
O3    O     O_3   0.896919 0.418172 0.913830 -0.726906
O4    O     O_3   0.582151 0.102814 0.086163 -0.727031
O5    O     O_3   0.103067 0.418147 0.086166 -0.726914
O6    O     O_3   0.417849 0.897187 0.086162 -0.727032
O7    O     O_3   0.896941 0.581858 0.086168 -0.726917
O8    O     O_3   0.081885 0.396962 0.413835 -0.726927
O9    O     O_3   0.602600 0.082407 0.413845 -0.727127
O10   O     O_3   0.918110 0.603031 0.413834 -0.726930
O11   O     O_3   0.397397 0.917594 0.413844 -0.727127
O12   O     O_3   0.082341 0.602655 0.586156 -0.727100
O13   O     O_R   0.500040 0.607260 0.523680 -0.610908
O14   O     O_3   0.603020 0.918092 0.586164 -0.726935
O15   O     O_3   0.917656 0.397347 0.586155 -0.727098
O16   O     O_3   0.396986 0.081912 0.586165 -0.726935
O17   O     O_R   0.392740 0.500040 0.523680 -0.610902
O18   O     O_R   0.499960 0.607260 0.476320 -0.610897
O19   O     O_R   0.607260 0.500040 0.476320 -0.610905
O20   O     O_R   0.500040 0.392740 0.476320 -0.610897
O21   O     O_R   0.392740 0.499960 0.476320 -0.610903
O22   O     O_R   0.500020 0.060670 0.958090 -0.582496
O23   O     O_R   0.939330 0.500020 0.958090 -0.582537
O24   O     O_R   0.499980 0.939330 0.958090 -0.582508
O25   O     O_R   0.107260 0.999960 0.023680 -0.610893
O26   O     O_R   0.060670 0.499980 0.958090 -0.582535
O27   O     O_R   0.500020 0.939330 0.041910 -0.582675
O28   O     O_R   0.939330 0.499980 0.041910 -0.582541
O29   O     O_R   0.499980 0.060670 0.041910 -0.582674
O30   O     O_R   0.060670 0.500020 0.041910 -0.582549
O31   O     O_R   0.000020 0.560670 0.458090 -0.582562
O32   O     O_R   0.439330 0.000020 0.458090 -0.582788
O33   O     O_R   0.999980 0.439330 0.458090 -0.582568
O34   O     O_R   0.560670 0.999980 0.458090 -0.582787
O35   O     O_R   0.000020 0.439330 0.541910 -0.582757
O36   O     O_R   0.000040 0.107260 0.023680 -0.610897
O37   O     O_R   0.439330 0.999980 0.541910 -0.582573
O38   O     O_R   0.999980 0.560670 0.541910 -0.582758
O39   O     O_R   0.560670 0.000020 0.541910 -0.582579
O40   O     O_R   0.607320 0.060650 0.000010 -0.614844
O41   O     O_R   0.939350 0.607320 0.000010 -0.614881
O42   O     O_R   0.392680 0.939350 0.000010 -0.614846
O43   O     O_R   0.060650 0.392680 0.000010 -0.614880
O44   O     O_R   0.607320 0.939350 0.999990 -0.614908
O45   O     O_R   0.939350 0.392680 0.999990 -0.614877
O46   O     O_R   0.392680 0.060650 0.999990 -0.614909
O47   O     O_R   0.892740 0.000040 0.023680 -0.610895
O48   O     O_R   0.060650 0.607320 0.999990 -0.614879
O49   O     O_R   0.107320 0.560650 0.500010 -0.614835
O50   O     O_R   0.439350 0.107320 0.500010 -0.614909
O51   O     O_R   0.892680 0.439350 0.500010 -0.614835
O52   O     O_R   0.560650 0.892680 0.500010 -0.614908
O53   O     O_R   0.107320 0.439350 0.499990 -0.614907
O54   O     O_R   0.439350 0.892680 0.499990 -0.614831
O55   O     O_R   0.892680 0.560650 0.499990 -0.614908
O56   O     O_R   0.560650 0.107320 0.499990 -0.614832
O57   O     O_2   0.918700 0.401147 0.175142 -0.506774
O58   O     O_R   0.999960 0.107260 0.976320 -0.610894
O59   O     O_2   0.598936 0.918799 0.175141 -0.506814
O60   O     O_2   0.081306 0.598849 0.175144 -0.506793
O61   O     O_2   0.401063 0.081204 0.175141 -0.506809
O62   O     O_2   0.918948 0.599062 0.824855 -0.506797
O63   O     O_2   0.598916 0.081225 0.824857 -0.506762
O64   O     O_2   0.081047 0.400936 0.824855 -0.506796
O65   O     O_2   0.401088 0.918772 0.824855 -0.506792
O66   O     O_2   0.418598 0.901233 0.675140 -0.506792
O67   O     O_2   0.098567 0.418350 0.675137 -0.506802
O68   O     O_2   0.581409 0.098767 0.675142 -0.506802
O69   O     O_R   0.107260 0.000040 0.976320 -0.610900
O70   O     O_2   0.901430 0.581653 0.675137 -0.506803
O71   O     O_2   0.418457 0.098660 0.324862 -0.506808
O72   O     O_2   0.098823 0.581335 0.324859 -0.506789
O73   O     O_2   0.581538 0.901342 0.324863 -0.506810
O74   O     O_2   0.901179 0.418659 0.324857 -0.506802
O75   O     O_3   0.149429 0.635018 0.222130 -0.635429
O76   O     O_3   0.364746 0.149225 0.222131 -0.635414
O77   O     O_3   0.850578 0.364975 0.222128 -0.635428
O78   O     O_3   0.635252 0.850778 0.222132 -0.635415
O79   O     O_3   0.149037 0.364542 0.777866 -0.635416
O80   O     O_R   0.000040 0.892740 0.976320 -0.610892
O81   O     O_3   0.364873 0.850670 0.777868 -0.635427
O82   O     O_3   0.850958 0.635456 0.777867 -0.635416
O83   O     O_3   0.635133 0.149326 0.777871 -0.635425
O84   O     O_3   0.649575 0.134859 0.722129 -0.635445
O85   O     O_3   0.865467 0.649875 0.722125 -0.635437
O86   O     O_3   0.350432 0.865139 0.722126 -0.635445
O87   O     O_3   0.134529 0.350125 0.722124 -0.635438
O88   O     O_3   0.649694 0.865272 0.277873 -0.635427
O89   O     O_3   0.865036 0.350522 0.277870 -0.635439
O90   O     O_3   0.350302 0.134731 0.277872 -0.635425
O91   O     O_R   0.892740 0.999960 0.976320 -0.610894
O92   O     O_3   0.134970 0.649471 0.277873 -0.635438
O93   O     O_3   0.566614 0.887693 0.852889 -0.724368
O94   O     O_3   0.112240 0.566708 0.852887 -0.724329
O95   O     O_3   0.433375 0.112295 0.852888 -0.724363
O96   O     O_3   0.887756 0.433290 0.852886 -0.724326
O97   O     O_3   0.567089 0.112015 0.147111 -0.724301
O98   O     O_3   0.112229 0.433253 0.147110 -0.724350
O99   O     O_3   0.432912 0.887988 0.147110 -0.724305
O100  O     O_3   0.887782 0.566754 0.147110 -0.724351
O101  O     O_3   0.066788 0.387798 0.352891 -0.724345
O102  O     O_R   0.499960 0.392740 0.523680 -0.610910
O103  O     O_3   0.611826 0.067399 0.352895 -0.724305
O104  O     O_3   0.933206 0.612192 0.352890 -0.724344
O105  O     O_3   0.388170 0.932604 0.352894 -0.724304
O106  O     O_3   0.067325 0.611873 0.647105 -0.724324
O107  O     O_3   0.612187 0.933186 0.647108 -0.724340
O108  O     O_3   0.932671 0.388130 0.647104 -0.724323
O109  O     O_3   0.387823 0.066822 0.647109 -0.724342
O110  O     O_3   0.581740 0.896842 0.913831 -0.726876
O111  O     O_3   0.103078 0.581829 0.913830 -0.726908
O112  O     O_3   0.418252 0.103148 0.913830 -0.726878
Zn1   Zn    Zn3+2 0.000000 1.000000 0.031620 1.037714
Zn2   Zn    Zn3+2 0.419020 0.000000 0.500000 1.071762
Zn3   Zn    Zn3+2 1.000000 0.419020 0.500000 1.071767
Zn4   Zn    Zn3+2 0.580980 0.000000 0.500000 1.071758
Zn5   Zn    Zn3+2 0.000000 0.000000 0.968380 1.037735
Zn6   Zn    Zn3+2 0.500000 0.500000 0.531620 1.037645
Zn7   Zn    Zn3+2 0.500000 0.500000 0.468380 1.037668
Zn8   Zn    Zn3+2 0.500000 0.080980 0.000000 1.071788
Zn9   Zn    Zn3+2 0.919020 0.500000 0.000000 1.071805
Zn10  Zn    Zn3+2 0.500000 0.919020 0.000000 1.071776
Zn11  Zn    Zn3+2 0.080980 0.500000 0.000000 1.071799
Zn12  Zn    Zn3+2 1.000000 0.580980 0.500000 1.071771

loop_
_geom_bond_atom_site_label_1
_geom_bond_atom_site_label_2
_ccdc_geom_bond_type
C8    C26   A    
O29   Zn8   S    
C103  C123  S    
C1    C99   S    
C80   O16   S    
C138  N3    A    
C62   O109  S    
O25   Zn1   S    
H28   O111  S    
C3    O70   S    
C52   O99   S    
H1    O75   S    
C92   N2    S    
C131  O55   A    
H41   O14   S    
C6    O73   S    
H3    O86   S    
C109  C127  S    
C4    N7    A    
C77   C88   A    
C136  O60   S    
H15   O98   S    
O58   Zn5   S    
C132  O54   A    
C21   C48   A    
C130  O50   A    
C100  C109  T    
C121  O32   A    
O51   Zn3   S    
C17   C30   A    
C127  O42   A    
C77   O14   S    
C5    N8    A    
C40   O81   S    
C129  O49   A    
C4    C23   A    
C6    C21   A    
C53   C93   A    
C45   O86   S    
C141  N4    A    
C17   C43   A    
H14   O97   S    
C18   C44   A    
C66   C82   A    
C91   N3    S    
H34   O78   S    
C75   C86   A    
C11   C27   A    
O30   Zn11  S    
C86   C121  S    
C90   C104  S    
C22   C49   A    
C5    C25   A    
C53   C71   A    
C36   C50   A    
C39   C47   A    
H10   O94   S    
O42   Zn10  S    
C46   O98   S    
C87   C122  S    
C7    C22   A    
O32   Zn2   S    
C34   O75   S    
H27   O110  S    
C106  C115  T    
O44   Zn10  S    
C80   C88   A    
C57   C100  S    
C84   C119  S    
H12   O76   S    
O48   Zn11  S    
O69   Zn5   S    
C121  O34   A    
O52   Zn4   S    
C112  O18   A    
C18   C31   A    
C108  C126  S    
O13   Zn6   S    
C19   C30   A    
C36   O76   S    
C110  C128  S    
C78   C87   A    
O47   Zn1   S    
C67   C83   A    
C139  O63   S    
C88   C124  S    
C72   C85   A    
C61   C96   A    
C72   O8    S    
C96   N6    S    
C99   C108  T    
C123  O21   A    
C34   C51   A    
O102  Zn6   S    
C17   C144  A    
C128  O45   A    
H13   O96   S    
C62   C80   A    
H31   O4    S    
H20   O104  S    
C6    N7    A    
O50   Zn2   S    
H38   O10   S    
H33   O6    S    
C71   O7    S    
O56   Zn4   S    
C9    C36   A    
O1    Zn1   S    
O17   Zn6   S    
H23   O77   S    
O49   Zn12  S    
C90   O20   A    
C57   O25   A    
C76   O12   S    
O55   Zn12  S    
H8    O92   S    
C24   O96   S    
C131  O51   A    
C119  O28   A    
C115  C132  S    
H26   O109  S    
C117  O26   A    
C113  C130  S    
C20   C47   A    
C97   N5    S    
C107  C125  S    
C41   O82   S    
C79   O47   A    
C58   C95   A    
C29   C30   A    
C120  O33   A    
C62   C97   A    
C26   C33   A    
C35   C67   A    
H42   O15   S    
C127  O46   A    
C8    C34   A    
C76   C87   A    
C125  O40   A    
C129  O53   A    
C142  N5    A    
C59   C96   A    
C14   C29   A    
H43   O16   S    
C5    O72   S    
C142  O66   S    
C78   O15   S    
C19   C45   A    
H21   O105  S    
C135  O59   S    
H7    O90   S    
O23   Zn9   S    
H2    O85   S    
C135  N2    A    
C122  O38   A    
C81   C116  S    
C133  O57   S    
C74   C85   A    
C116  O22   A    
C2    C91   A    
C140  N3    A    
O45   Zn9   S    
C104  C113  T    
C55   C73   A    
C69   O5    S    
O36   Zn1   S    
C133  N1    A    
C140  O64   S    
C53   O100  S    
C64   O111  S    
C59   C76   A    
C37   O77   S    
C137  O61   S    
O80   Zn5   S    
C8    C136  A    
H24   O107  S    
C114  C131  S    
C10   C133  A    
C7    O74   S    
C1    O1    A    
C56   C94   A    
C75   O11   S    
C12   C28   A    
H16   O99   S    
C68   C102  S    
C58   O105  S    
C118  O29   A    
C3    N6    A    
C125  O44   A    
C103  C111  T    
C7    N8    A    
O43   Zn11  S    
C137  N2    A    
C9    C137  A    
C111  C129  S    
C144  N5    A    
C138  O62   S    
H45   O81   S    
C12   C140  A    
O20   Zn7   S    
C24   C66   A    
C35   C92   A    
C4    O71   S    
O24   Zn10  S    
C122  O35   A    
C123  O17   A    
C20   C143  A    
C144  O68   S    
C54   O101  S    
C42   O83   S    
H35   O7    S    
C40   C45   A    
O22   Zn8   S    
C13   O95   S    
C56   C74   A    
C63   C134  A    
C15   C41   A    
C60   C97   A    
C23   C50   A    
C13   C65   A    
C98   C107  T    
H11   O95   S    
H32   O5    S    
C116  O24   A    
C11   C38   A    
C44   O85   S    
C11   C135  A    
O40   Zn8   S    
C37   C49   A    
C90   O102  A    
C65   C81   A    
C63   O110  S    
C70   C83   A    
O27   Zn10  S    
C74   O10   S    
C19   C142  A    
H5    O88   S    
C102  C110  T    
C42   C43   A    
O35   Zn3   S    
C139  N4    A    
C9    C27   A    
C73   O9    S    
C124  O39   A    
C143  N6    A    
C27   C32   A    
O41   Zn9   S    
C28   C31   A    
C93   N1    S    
C118  O27   A    
O53   Zn3   S    
C23   C32   A    
C12   C39   A    
C51   O92   S    
C47   O87   S    
C48   O88   S    
C55   O103  S    
C15   C28   A    
C56   O104  S    
C94   N8    S    
O18   Zn7   S    
O34   Zn4   S    
C43   O84   S    
C39   O79   S    
C69   C84   A    
C128  O43   A    
C82   C117  S    
C79   O91   A    
C58   C75   A    
C60   O107  S    
H44   O79   S    
H22   O106  S    
C2    O94   S    
C79   C98   S    
C49   O89   S    
C106  C112  S    
O28   Zn9   S    
C63   C81   A    
C10   C37   A    
C83   C118  S    
C101  O2    A    
O31   Zn12  S    
H39   O11   S    
C3    C18   A    
H37   O9    S    
C101  O19   A    
C46   C69   A    
C67   O4    S    
C68   O36   A    
C119  O30   A    
O46   Zn8   S    
C38   O78   S    
H4    O87   S    
C57   O69   A    
C50   O90   S    
H48   O84   S    
C15   C138  A    
H19   O103  S    
C10   C26   A    
C14   C141  A    
C120  O31   A    
C2    C64   A    
O26   Zn11  S    
H40   O12   S    
O21   Zn7   S    
C101  C105  S    
C35   O97   S    
C21   C32   A    
C60   C77   A    
C126  O48   A    
C105  C114  T    
O54   Zn2   S    
C52   C70   A    
C1    O80   A    
C55   C95   A    
H9    O93   S    
C16   C29   A    
C89   N4    S    
H46   O82   S    
H29   O112  S    
C141  O65   S    
C85   C120  S    
C25   C51   A    
H25   O108  S    
C61   C78   A    
C126  O41   A    
O91   Zn5   S    
C112  O13   A    
C64   C82   A    
O39   Zn4   S    
C66   O3    S    
O38   Zn12  S    
C117  O23   A    
C16   C139  A    
C24   C91   A    
C16   C42   A    
C132  O52   A    
C61   O108  S    
C71   C84   A    
C22   C33   A    
C89   C134  A    
C13   C89   A    
O2    Zn6   S    
C38   C48   A    
C65   O112  S    
O37   Zn2   S    
C70   O6    S    
O33   Zn3   S    
C134  O93   S    
H47   O83   S    
C136  N1    A    
H18   O101  S    
C68   O58   A    
C124  O37   A    
H17   O100  S    
C46   C93   A    
H30   O3    S    
C41   C44   A    
C143  O67   S    
C73   C86   A    
C54   C94   A    
C52   C92   A    
C14   C40   A    
C54   C72   A    
C95   N7    S    
C25   C33   A    
H6    O89   S    
H36   O8    S    
O19   Zn7   S    
C59   O106  S    
C20   C31   A    
C130  O56   A    
