data_mof_unit_20116.cif
_audit_creation_date              2012-10-26T19:35:35-0400
_audit_creation_method            fapswitch 2.2
_symmetry_space_group_name_H-M    P1
_symmetry_Int_Tables_number       1
_space_group_crystal_system       triclinic
_cell_length_a                    15.848554
_cell_length_b                    10.833181
_cell_length_c                    9.627801
_cell_angle_alpha                 89.79413
_cell_angle_beta                  92.58632
_cell_angle_gamma                 91.019552
_cell_volume                      1651.04793251

loop_
_atom_site_label
_atom_site_type_symbol
_atom_type_description
_atom_site_fract_x
_atom_site_fract_y
_atom_site_fract_z
_atom_type_partial_charge
C1    C     C_R   0.500018 0.262821 0.500183 0.543466
C2    C     C_R   0.502271 0.129772 0.499575 -0.035300
C3    C     C_R   0.502233 0.066625 0.372923 -0.165217
C4    C     C_R   0.339877 0.497754 0.496922 0.529054
C5    C     C_R   0.493049 0.938318 0.369457 0.232500
C6    C     C_R   0.494165 0.871083 0.495853 0.030793
C7    C     C_R   0.497919 0.935431 0.621094 0.005834
C8    C     C_3   0.436961 0.931056 0.735548 0.139215
C9    C     C_3   0.443887 0.070976 0.740062 -0.210342
C10   C     C_R   0.572186 0.520439 0.077905 0.111751
C11   C     C_R   0.431998 0.453402 0.067247 0.087933
C12   C     C_3   0.082130 0.480634 0.481537 0.052723
C13   C     C_R   0.430956 0.462809 0.919049 -0.014869
C14   C     C_R   0.572894 0.518990 0.933740 0.192530
C15   C     C_3   0.643807 0.613739 0.932145 0.485717
C16   C     C_R   0.496258 0.737243 0.498920 0.543302
C17   C     C_3   0.640237 0.615481 0.094765 0.163472
C18   C     C_R   0.660100 0.498999 0.502579 0.541239
C19   C     C_3   0.971819 0.375755 0.543032 -0.107248
C20   C     C_3   0.020611 0.388326 0.407408 -0.112856
C21   C     C_1   0.249901 0.490225 0.488721 -0.055391
C22   C     C_1   0.750004 0.494264 0.506815 -0.031757
C23   C     C_3   0.978677 0.577466 0.570597 -0.090033
C24   C     C_3   0.034846 0.467637 0.616786 -0.117701
C25   C     C_3   0.358996 0.383628 0.130547 -0.258924
C26   C     C_3   0.322475 0.275326 0.043303 -0.500100
C27   C     C_3   0.788756 0.557530 0.956823 -0.042677
C28   C     C_3   0.865375 0.551172 0.867576 -0.244426
C29   C     C_3   0.947426 0.554737 0.957113 -0.492727
C30   C     C_3   0.680970 0.794363 0.804438 0.052676
C31   C     C_3   0.673249 0.932354 0.835948 -0.278324
C32   C     C_3   0.714020 0.012758 0.726163 -0.486435
C33   C     C_3   0.674613 0.811212 0.180234 0.051081
C34   C     C_3   0.917001 0.485442 0.496743 0.039788
C35   C     C_3   0.710809 0.793124 0.329037 -0.263863
C36   C     C_3   0.768230 0.901508 0.374136 -0.508984
C37   C     C_3   0.057991 0.708163 0.370312 -0.278892
C38   C     C_3   0.986424 0.798479 0.343277 -0.452692
C39   C     C_3   0.397949 0.903606 0.186355 0.020530
C40   C     C_3   0.340472 0.790674 0.207278 -0.230558
C41   C     C_3   0.248223 0.819319 0.171228 -0.512311
C42   C     C_3   0.324468 0.796537 0.769610 0.008438
C43   C     C_3   0.233961 0.764770 0.720194 -0.249586
C44   C     C_3   0.197088 0.659644 0.805270 -0.491348
C45   C     C_3   0.026307 0.588396 0.435293 0.057747
C46   C     C_3   0.963669 0.497490 0.360671 -0.090182
C47   C     C_1   0.174140 0.484148 0.482739 -0.077972
C48   C     C_1   0.825520 0.489900 0.504211 -0.081533
C49   C     C_R   0.502408 0.062713 0.623316 -0.039629
Cu1   Cu    Cu3+1 0.500000 0.499980 0.640670 0.974279
Cu2   Cu    Cu3+1 0.500000 0.500020 0.359330 0.954565
H1    H     H_    0.038989 0.310999 0.340426 0.098258
H2    H     H_    0.065648 0.450522 0.720576 0.097755
H3    H     H_    0.502845 0.116311 0.275060 0.138362
H4    H     H_    0.282081 0.308630 0.954243 0.138539
H5    H     H_    0.373965 0.217813 0.005301 0.145759
H6    H     H_    0.281964 0.216122 0.108365 0.136306
H7    H     H_    0.381280 0.339347 0.227911 0.214477
H8    H     H_    0.307485 0.448646 0.150366 0.147478
H9    H     H_    0.787731 0.475130 0.026023 0.126737
H10   H     H_    0.796517 0.642951 0.020089 0.096323
H11   H     H_    0.862186 0.465038 0.805114 0.182827
H12   H     H_    0.463793 0.885243 0.831433 0.128426
H13   H     H_    0.864399 0.631664 0.796080 0.154627
H14   H     H_    0.948843 0.634576 0.029334 0.140048
H15   H     H_    0.002049 0.564952 0.890173 0.137985
H16   H     H_    0.954021 0.467672 0.017468 0.141779
H17   H     H_    0.674192 0.778247 0.690463 0.155705
H18   H     H_    0.746002 0.769611 0.839539 0.130693
H19   H     H_    0.606344 0.957372 0.843097 0.181755
H20   H     H_    0.705021 0.954082 0.938049 0.125663
H21   H     H_    0.782029 0.991090 0.720735 0.134215
H22   H     H_    0.708286 0.111638 0.753611 0.160930
H23   H     H_    0.384215 0.118770 0.709884 0.163586
H24   H     H_    0.681848 0.997186 0.622803 0.152075
H25   H     H_    0.647944 0.905168 0.170931 0.175339
H26   H     H_    0.726522 0.807407 0.106605 0.080762
H27   H     H_    0.658898 0.784455 0.402010 0.182416
H28   H     H_    0.748212 0.707551 0.334853 0.142274
H29   H     H_    0.819267 0.915090 0.300001 0.143609
H30   H     H_    0.797295 0.882696 0.478978 0.139849
H31   H     H_    0.731213 0.987421 0.378409 0.148780
H32   H     H_    0.936396 0.756496 0.273011 0.143195
H33   H     H_    0.958694 0.824646 0.442635 0.147592
H34   H     H_    0.476731 0.106214 0.836795 0.088260
H35   H     H_    0.011315 0.883230 0.293154 0.133665
H36   H     H_    0.107394 0.751452 0.440601 0.139865
H37   H     H_    0.085917 0.685752 0.270205 0.138550
H38   H     H_    0.402326 0.920901 0.073219 0.127096
H39   H     H_    0.368378 0.987389 0.229242 0.112322
H40   H     H_    0.360842 0.713877 0.140935 0.177179
H41   H     H_    0.345452 0.760287 0.317564 0.190614
H42   H     H_    0.223239 0.880937 0.251094 0.153260
H43   H     H_    0.210914 0.731833 0.168731 0.135555
H44   H     H_    0.240943 0.864872 0.068135 0.139879
H45   H     H_    0.375360 0.435339 0.857724 0.135016
H46   H     H_    0.324285 0.826806 0.879690 0.113334
H47   H     H_    0.363889 0.713102 0.762410 0.186329
H48   H     H_    0.194271 0.847618 0.729903 0.163357
H49   H     H_    0.232717 0.737641 0.608949 0.170099
H50   H     H_    0.201289 0.681867 0.917652 0.141061
H51   H     H_    0.231172 0.572770 0.787774 0.157023
H52   H     H_    0.129596 0.646315 0.773187 0.142027
H53   H     H_    0.693326 0.576420 0.158879 0.052298
H54   H     H_    0.947866 0.288279 0.588421 0.101621
H55   H     H_    0.932031 0.510868 0.256882 0.091604
H56   H     H_    0.963091 0.657931 0.634700 0.089093
N1    N     N_R   0.500530 0.500930 0.147930 -0.217085
N2    N     N_R   0.500530 0.500890 0.852020 -0.251709
O1    O     O_R   0.500000 0.319640 0.618810 -0.498038
O2    O     O_3   0.615927 0.725663 0.868144 -0.528481
O3    O     O_3   0.608123 0.725793 0.147578 -0.479186
O4    O     O_3   0.480511 0.880179 0.242225 -0.515122
O5    O     O_3   0.355655 0.891774 0.685037 -0.576222
O6    O     O_R   0.500010 0.319680 0.381230 -0.534682
O7    O     O_R   0.379070 0.499970 0.618770 -0.526825
O8    O     O_R   0.379080 0.500010 0.381190 -0.534740
O9    O     O_R   0.499990 0.680320 0.618770 -0.484924
O10   O     O_R   0.500000 0.680360 0.381190 -0.422436
O11   O     O_R   0.620920 0.499990 0.618810 -0.443022
O12   O     O_R   0.620930 0.500030 0.381230 -0.510412
O13   O     O_3   0.714179 0.557963 0.869968 -0.587100

loop_
_geom_bond_atom_site_label_1
_geom_bond_atom_site_label_2
_ccdc_geom_bond_type
C14   N2    A    
C22   C48   T    
C23   C45   S    
C15   O13   S    
C38   H32   S    
C37   H37   S    
C10   N1    A    
C35   C36   S    
C26   H4    S    
C32   H24   S    
C7    C8    S    
C32   H21   S    
C41   H44   S    
C45   C46   S    
C38   H35   S    
Cu1   O11   S    
C28   C29   S    
C17   H53   S    
C43   H48   S    
C27   H9    S    
C42   H47   S    
C30   C31   S    
C3    H3    S    
C11   C25   S    
C10   C17   S    
Cu1   O1    S    
C1    C2    S    
C13   N2    A    
C27   H10   S    
C9    H34   S    
C29   H16   S    
C27   O13   S    
C31   H19   S    
C41   H42   S    
C31   C32   S    
C36   H31   S    
C8    C9    S    
C39   O4    S    
Cu2   O10   S    
C23   C24   S    
C34   C46   S    
C42   C43   S    
C39   H39   S    
C8    O5    S    
C38   H33   S    
C11   N1    A    
C31   H20   S    
C18   C22   S    
C4    O7    A    
C12   C47   S    
C44   H52   S    
C42   O5    S    
C13   H45   S    
C15   O2    S    
C9    C49   S    
C43   H49   S    
C7    C49   A    
C10   C14   A    
C16   O10   A    
C32   H22   S    
C44   H51   S    
Cu2   N1    S    
C8    H12   S    
C25   C26   S    
Cu1   N2    S    
Cu2   O6    S    
C43   C44   S    
C37   C38   S    
C2    C49   A    
C16   O9    A    
C1    O1    A    
C33   H25   S    
C41   H43   S    
C36   H30   S    
C23   C34   S    
C23   H56   S    
C12   C20   S    
Cu1   Cu2   S    
C33   O3    S    
C40   H41   S    
C29   H14   S    
C28   H13   S    
C40   C41   S    
C36   H29   S    
Cu2   O12   S    
C4    O8    A    
C42   H46   S    
C34   C48   S    
C9    H23   S    
C37   C45   S    
C17   O3    S    
C18   O11   A    
C39   C40   S    
C30   H18   S    
C15   C17   S    
C5    O4    S    
Cu1   O9    S    
C37   H36   S    
C12   C45   S    
C3    C5    A    
C19   C34   S    
C26   H5    S    
C44   H50   S    
C6    C7    A    
C1    O6    A    
C12   C24   S    
C35   H27   S    
C30   O2    S    
C19   C20   S    
C2    C3    A    
C24   H2    S    
C20   H1    S    
C4    C21   S    
C11   C13   A    
C33   H26   S    
C5    C6    A    
C46   H55   S    
C35   H28   S    
C33   C35   S    
C19   C24   S    
Cu1   O7    S    
C40   H40   S    
C26   H6    S    
C20   C46   S    
C18   O12   A    
C6    C16   S    
C29   H15   S    
C19   H54   S    
C25   H7    S    
C27   C28   S    
Cu2   O8    S    
C14   C15   S    
C25   H8    S    
C39   H38   S    
C30   H17   S    
C21   C47   T    
C28   H11   S    
