data_mof_unit_60541.cif
_audit_creation_date              2013-03-05T16:15:25-0500
_audit_creation_method            fapswitch 2.2
_symmetry_space_group_name_H-M    P1
_symmetry_Int_Tables_number       1
_space_group_crystal_system       triclinic
_cell_length_a                    23.534452
_cell_length_b                    14.257379
_cell_length_c                    13.366159
_cell_angle_alpha                 90.013035
_cell_angle_beta                  89.99994
_cell_angle_gamma                 90.000042
_cell_volume                      4484.87555134

loop_
_atom_site_label
_atom_site_type_symbol
_atom_site_description
_atom_site_fract_x
_atom_site_fract_y
_atom_site_fract_z
_atom_type_partial_charge
O1    O     O_R   0.500000 0.373710 0.576470 -0.594035
O2    O     O_R   0.500000 0.626290 0.423530 -0.594035
O3    O     O_R   0.500000 0.626290 0.576470 -0.594077
O4    O     O_R   0.500000 0.373710 0.423530 -0.594077
C1    C     C_R   0.500000 0.326541 0.499990 0.936191
C2    C     C_R   0.500000 0.673458 0.500009 0.936192
O5    O     O_R   0.416150 0.500000 0.576470 -0.613060
O6    O     O_R   0.583850 0.500000 0.423530 -0.613060
O7    O     O_R   0.583850 0.500000 0.576470 -0.613060
O8    O     O_R   0.416150 0.500000 0.423530 -0.613060
C3    C     C_R   0.387723 0.500000 0.500000 0.910121
C4    C     C_R   0.612277 0.500000 0.500000 0.910121
Zn1   Zn    Zn3+2 0.500000 0.500000 0.602090 0.987384
Zn2   Zn    Zn3+2 0.500000 0.500000 0.397910 0.987383
C5    C     C_R   0.880381 0.580854 0.477502 0.565339
C6    C     C_R   0.119619 0.419139 0.522494 0.565341
C7    C     C_R   0.880381 0.419139 0.522496 0.565339
C8    C     C_R   0.119619 0.580855 0.477502 0.565340
N1    N     N_R   0.852629 0.499997 0.499999 -0.370528
N2    N     N_R   0.147371 0.499997 0.499999 -0.370529
C9    C     C_R   0.940007 0.418330 0.530530 -0.126266
C10   C     C_R   0.059992 0.581662 0.469465 -0.126266
C11   C     C_R   0.940008 0.581662 0.469466 -0.126267
C12   C     C_R   0.059992 0.418330 0.530529 -0.126266
C13   C     C_R   0.970038 0.499996 0.499997 -0.088319
C14   C     C_R   0.029962 0.499996 0.499997 -0.088318
C15   C     C_R   0.970164 0.339731 0.568375 0.262471
C16   C     C_R   0.029836 0.660259 0.431617 0.262473
C17   C     C_R   0.970164 0.660260 0.431618 0.262473
C18   C     C_R   0.029836 0.339731 0.568375 0.262472
O9    O     O_2   0.849635 0.659734 0.465330 -0.480835
O10   O     O_2   0.150365 0.340259 0.534666 -0.480837
O11   O     O_2   0.849634 0.340260 0.534669 -0.480836
O12   O     O_2   0.150364 0.659735 0.465332 -0.480836
C19   C     C_R   0.237275 0.503978 0.409235 -0.076166
C20   C     C_R   0.762725 0.496020 0.590764 -0.076165
C21   C     C_R   0.237274 0.496018 0.590764 -0.076165
C22   C     C_R   0.762725 0.503975 0.409235 -0.076166
H1    H     H_    0.214308 0.506925 0.339097 0.150563
H2    H     H_    0.785693 0.493075 0.660902 0.150563
H3    H     H_    0.214307 0.493071 0.660902 0.150563
H4    H     H_    0.785692 0.506920 0.339097 0.150563
C23   C     C_R   0.296255 0.503864 0.409124 -0.199904
C24   C     C_R   0.703745 0.496136 0.590875 -0.199904
C25   C     C_R   0.296255 0.496134 0.590875 -0.199905
C26   C     C_R   0.703745 0.503862 0.409124 -0.199904
H5    H     H_    0.318576 0.506908 0.338322 0.165904
H6    H     H_    0.681424 0.493095 0.661678 0.165904
H7    H     H_    0.318576 0.493091 0.661677 0.165904
H8    H     H_    0.681424 0.506903 0.338322 0.165904
C27   C     C_R   0.325953 0.499999 0.500000 -0.066584
C28   C     C_R   0.674047 0.499999 0.500000 -0.066584
C29   C     C_R   0.207888 0.499998 0.499999 0.290127
C30   C     C_R   0.792112 0.499997 0.499999 0.290130
C31   C     C_1   0.500000 0.225899 0.499970 -0.205544
C32   C     C_1   0.500000 0.774101 0.500030 -0.205545
C33   C     C_1   0.500000 0.141332 0.499968 0.017313
C34   C     C_1   0.500000 0.858667 0.500032 0.017313
C35   C     C_1   0.500000 0.042281 0.499988 0.034478
C36   C     C_1   0.500000 0.957719 0.500012 0.034478
N3    N     N_1   0.500000 0.500000 0.261870 -0.064184
N4    N     N_1   0.500000 0.500000 0.738130 -0.064184
C37   C     C_1   0.500000 0.500000 0.169415 0.085508
C38   C     C_1   0.500000 0.500000 0.830585 0.085508
C39   C     C_1   0.500000 0.500000 0.049525 -0.031436
C40   C     C_1   0.500000 0.500000 0.950475 -0.031436
Br1   Br    Br    0.931988 0.233353 0.629955 -0.271254
Br2   Br    Br    0.068012 0.766634 0.370032 -0.271257
Br3   Br    Br    0.931988 0.766635 0.370035 -0.271256
Br4   Br    Br    0.068012 0.233355 0.629956 -0.271256

loop_
_geom_bond_atom_site_label_1
_geom_bond_atom_site_label_2
_geom_bond_distance
_ccdc_geom_bond_type
O1    Zn1   1.832762 S    
C19   H1    1.082961 S    
C37   C39   1.602467 S    
C5    O9    1.347185 S    
C19   C29   1.397620 A    
C8    C10   1.407428 A    
C19   C23   1.388071 A    
C26   H8    1.083255 S    
O7    Zn1   2.002855 S    
C8    N2    1.358727 A    
C22   C30   1.397622 A    
C18   Br4   1.945644 S    
C25   H7    1.083253 S    
O6    C4    1.221590 A    
O3    C2    1.223526 A    
C21   C29   1.397620 A    
C24   C28   1.402486 A    
C5    C11   1.407422 A    
C9    C15   1.419728 A    
C35   C36   1.205623 T    
C6    C12   1.407433 A    
C15   Br1   1.945649 S    
C10   C16   1.419725 A    
C15   C18   1.404334 A    
O5    C3    1.221590 A    
C8    O12   1.347183 S    
C23   C27   1.402486 A    
O2    C2    1.223483 A    
C10   C14   1.421947 A    
C7    O11   1.347185 S    
C21   H3    1.082960 S    
O1    C1    1.223483 A    
O4    C1    1.223526 A    
C11   C17   1.419728 A    
N1    C30   1.424237 S    
C6    N2    1.358727 A    
C4    C28   1.453721 S    
C12   C14   1.421947 A    
C22   H4    1.082961 S    
C34   C36   1.412219 S    
C17   Br3   1.945639 S    
C31   C33   1.205698 T    
O4    Zn2   1.832916 S    
O2    Zn2   1.832761 S    
O7    C4    1.221590 A    
C12   C18   1.419727 A    
C20   C24   1.388071 A    
C33   C35   1.412219 S    
C20   C30   1.397623 A    
O8    C3    1.221590 A    
C25   C27   1.402484 A    
C21   C25   1.388073 A    
C7    N1    1.358733 A    
C26   C28   1.402486 A    
O5    Zn1   2.002858 S    
C11   C13   1.421948 A    
C3    C27   1.453721 S    
C39   C40   1.323914 T    
O8    Zn2   2.002858 S    
C2    C32   1.434898 S    
N3    C37   1.235771 T    
C9    C13   1.421950 A    
C6    O10   1.347180 S    
C16   C17   1.404331 A    
C20   H2    1.082961 S    
N4    C38   1.235771 T    
C38   C40   1.602467 S    
O6    Zn2   2.002856 S    
C22   C26   1.388071 A    
C13   C14   1.410276 A    
C5    N1    1.358731 A    
Zn2   N3    1.818332 S    
C23   H5    1.083252 S    
C1    C31   1.434898 S    
C7    C9    1.407425 A    
Zn1   N4    1.818332 S    
C24   H6    1.083255 S    
C32   C34   1.205698 T    
N2    C29   1.424249 S    
C16   Br2   1.945646 S    
O3    Zn1   1.832914 S    
