data_mof_unit_24958.cif
_audit_creation_date              2013-03-05T15:52:28-0500
_audit_creation_method            fapswitch 2.2
_symmetry_space_group_name_H-M    P1
_symmetry_Int_Tables_number       1
_space_group_crystal_system       triclinic
_cell_length_a                    27.777047
_cell_length_b                    10.818869
_cell_length_c                    9.623106
_cell_angle_alpha                 89.92958
_cell_angle_beta                  90.678078
_cell_angle_gamma                 94.319449
_cell_volume                      2883.48337415

loop_
_atom_site_label
_atom_site_type_symbol
_atom_site_description
_atom_site_fract_x
_atom_site_fract_y
_atom_site_fract_z
_atom_type_partial_charge
O1    O     O_R   0.500000 0.319640 0.618810 -0.589904
O2    O     O_R   0.500000 0.319660 0.381240 -0.583244
C1    C     C_R   0.504441 0.263644 0.500933 0.786103
O3    O     O_R   0.430260 0.500010 0.618770 -0.579590
O4    O     O_R   0.430270 0.500030 0.381200 -0.572511
C2    C     C_R   0.407673 0.499473 0.499267 0.792843
Cu1   Cu    Cu3+1 0.500000 0.499990 0.640660 0.945164
Cu2   Cu    Cu3+1 0.500000 0.500010 0.359340 0.941250
O5    O     O_R   0.500000 0.680340 0.618760 -0.565580
O6    O     O_R   0.500000 0.680360 0.381190 -0.598649
O7    O     O_R   0.569730 0.499970 0.618800 -0.551442
O8    O     O_R   0.569740 0.499990 0.381230 -0.602105
C3    C     C_R   0.496857 0.737223 0.500398 0.793608
C4    C     C_R   0.592160 0.500150 0.500470 0.816031
C5    C     C_R   0.176995 0.450201 0.612456 0.558427
O9    O     O_2   0.201696 0.408677 0.722389 -0.498110
N1    N     N_R   0.201701 0.490920 0.496589 -0.474608
C6    C     C_R   0.177805 0.528809 0.380791 0.531423
C7    C     C_R   0.280985 0.559863 0.599831 -0.094321
C8    C     C_R   0.331216 0.560611 0.601554 -0.219724
C9    C     C_R   0.327790 0.434708 0.392841 -0.215949
C10   C     C_R   0.277498 0.430941 0.393496 -0.091434
C11   C     C_R   0.253681 0.494019 0.496575 0.329134
C12   C     C_R   0.100980 0.483026 0.495048 -0.093853
C13   C     C_R   0.126094 0.449211 0.616198 -0.022060
C14   C     C_R   0.099625 0.418496 0.737343 0.162327
C15   C     C_R   0.127233 0.523287 0.376890 -0.000202
C16   C     C_R   0.354895 0.498558 0.497642 -0.034181
C17   C     C_R   0.644587 0.497226 0.500791 -0.022275
C18   C     C_R   0.971999 0.416953 0.601898 0.048990
C19   C     C_R   0.974211 0.524094 0.374896 0.051219
C20   C     C_R   0.947813 0.471056 0.488651 0.021735
C21   C     C_R   0.943544 0.346728 0.700911 0.130096
C22   C     C_R   0.893366 0.350625 0.700299 -0.199511
C23   C     C_R   0.869799 0.415167 0.597418 -0.049526
C24   C     C_R   0.896701 0.471877 0.488781 -0.049954
C25   C     C_R   0.872360 0.529482 0.380196 -0.010061
C26   C     C_R   0.821896 0.531200 0.383682 0.535539
N2    N     N_R   0.796510 0.478915 0.492808 -0.461201
C27   C     C_R   0.819449 0.421021 0.598493 0.550898
C28   C     C_R   0.714385 0.376062 0.497429 -0.083800
C29   C     C_R   0.664496 0.382149 0.500231 -0.268920
C30   C     C_R   0.674853 0.607631 0.496895 0.108097
C31   C     C_R   0.725096 0.600557 0.496936 -0.121418
C32   C     C_R   0.744984 0.485130 0.496397 0.309831
O10   O     O_2   0.793712 0.370599 0.705288 -0.537532
C33   C     C_R   0.023340 0.433192 0.609408 0.029882
C34   C     C_R   0.049645 0.477755 0.492022 0.054746
C35   C     C_R   0.025121 0.518873 0.372273 0.058106
C36   C     C_R   0.049256 0.413698 0.733306 -0.223309
H1    H     H_    0.641346 0.296991 0.500190 0.133550
H2    H     H_    0.872783 0.299006 0.779124 0.190034
O11   O     O_2   0.202966 0.572976 0.269836 -0.537399
C37   C     C_R   0.102614 0.557468 0.257057 -0.149015
H3    H     H_    0.351617 0.611213 0.682673 0.150934
H4    H     H_    0.263245 0.610251 0.679126 0.156994
C38   C     C_R   0.948665 0.582057 0.268049 -0.209031
C39   C     C_R   0.898772 0.584511 0.270872 -0.145769
O12   O     O_2   0.798340 0.583930 0.278230 -0.539805
C40   C     C_R   0.052595 0.554868 0.254295 -0.217166
H5    H     H_    0.966340 0.629926 0.182273 0.140274
H6    H     H_    0.880985 0.630633 0.186802 0.187298
H7    H     H_    0.036441 0.579454 0.156720 0.134415
H8    H     H_    0.508292 0.113306 0.279310 0.165242
C41   C     C_R   0.528123 0.115360 0.761719 0.135075
C42   C     C_R   0.512549 0.057668 0.885163 -0.155779
H9    H     H_    0.523906 0.098033 0.984352 0.149803
C43   C     C_R   0.483506 0.946821 0.881840 0.166177
C44   C     C_R   0.475070 0.885811 0.754493 -0.198647
H10   H     H_    0.453150 0.798925 0.753828 0.160432
C45   C     C_R   0.493513 0.938772 0.629795 0.029871
C46   C     C_R   0.511474 0.063815 0.631759 0.060514
C47   C     C_R   0.510602 0.130321 0.504238 -0.119166
C48   C     C_R   0.507189 0.065347 0.378255 -0.201745
H11   H     H_    0.502802 0.889511 0.279480 0.197549
C49   C     C_R   0.502134 0.937325 0.378049 -0.208380
C50   C     C_R   0.495043 0.872273 0.502884 -0.103235
H12   H     H_    0.450217 0.344907 0.126776 0.134397
C51   C     C_R   0.558143 0.678227 0.153600 -0.130840
H13   H     H_    0.565827 0.672661 0.260915 0.204683
C52   C     C_R   0.580399 0.781723 0.093274 -0.241560
H14   H     H_    0.600435 0.851442 0.156094 0.159645
C53   C     C_R   0.580480 0.790957 0.952296 -0.189502
H15   H     H_    0.601722 0.868361 0.906314 0.159367
C54   C     C_R   0.560138 0.694092 0.869056 0.184074
C55   C     C_R   0.529016 0.592700 0.927929 0.183153
C56   C     C_R   0.528621 0.589537 0.077829 0.179112
N3    N     N_R   0.500460 0.501210 0.147910 -0.193729
C57   C     C_R   0.472696 0.414924 0.072671 -0.059229
H16   H     H_    0.450450 0.344534 0.869557 0.149009
C58   C     C_R   0.472768 0.414758 0.925174 -0.092281
N4    N     N_R   0.500480 0.501290 0.852040 -0.198158
H17   H     H_    0.345478 0.385542 0.312338 0.151424
H18   H     H_    0.121983 0.586776 0.164191 0.181903
N5    N     N_3   0.654466 0.725758 0.491853 -0.625459
H19   H     H_    0.681641 0.797741 0.500446 0.223296
H20   H     H_    0.638604 0.734228 0.393670 0.210946
H21   H     H_    0.748900 0.684585 0.495833 0.144665
N6    N     N_3   0.566900 0.210866 0.771960 -0.575593
H22   H     H_    0.554215 0.289043 0.818616 0.256066
H23   H     H_    0.580787 0.234736 0.674423 0.216796
H24   H     H_    0.256999 0.378651 0.313934 0.158301
N7    N     N_3   0.466267 0.892522 0.009700 -0.596478
H25   H     H_    0.441480 0.950402 0.050559 0.213503
H26   H     H_    0.447480 0.806597 0.991173 0.220469
N8    N     N_3   0.579886 0.695562 0.733858 -0.488485
H27   H     H_    0.616646 0.681791 0.744549 0.228388
H28   H     H_    0.577798 0.783534 0.689614 0.214965
N9    N     N_3   0.123367 0.395767 0.867003 -0.501622
H29   H     H_    0.112856 0.459917 0.939743 0.207052
H30   H     H_    0.111275 0.307178 0.901318 0.229304
H31   H     H_    0.729308 0.286470 0.495225 0.154023
N10   N     N_3   0.964279 0.260726 0.793368 -0.606521
H32   H     H_    0.954753 0.281954 0.894977 0.215709
H33   H     H_    0.948990 0.171700 0.770293 0.232546
H34   H     H_    0.031235 0.400640 0.831422 0.173163

loop_
_geom_bond_atom_site_label_1
_geom_bond_atom_site_label_2
_geom_bond_distance
_ccdc_geom_bond_type
C7    H4    1.082886 S    
C39   H6    1.083651 S    
C42   C43   1.394197 A    
C56   N3    1.370458 A    
C17   C29   1.399887 A    
N5    H19   1.045568 S    
C47   C48   1.400800 A    
C7    C8    1.394599 A    
C12   C15   1.408888 A    
C30   C31   1.403424 A    
C51   C56   1.412042 A    
C52   H14   1.083540 S    
H16   C58   1.081747 S    
C15   C37   1.397324 A    
Cu1   Cu2   2.707172 S    
C37   C40   1.387510 A    
C54   C55   1.462464 A    
C27   O10   1.349835 S    
N1    C11   1.441731 S    
C35   C40   1.413376 A    
C48   C49   1.381595 A    
C40   H7    1.077569 S    
C20   C24   1.420462 A    
C24   C25   1.408042 A    
N9    H30   1.045852 S    
C26   N2    1.369653 A    
O7    C4    1.304395 A    
C5    C13   1.414009 A    
N8    H27   1.046793 S    
C5    O9    1.349010 S    
Cu1   O5    1.962274 S    
C22   C23   1.395735 A    
C28   C29   1.392854 A    
C44   C45   1.413991 A    
O5    C3    1.299120 A    
C6    O11   1.350160 S    
C31   H21   1.083218 S    
C2    C16   1.465214 S    
C33   C34   1.416870 A    
C43   C44   1.401523 A    
C28   H31   1.082849 S    
C30   N5    1.436846 S    
C43   N7    1.434606 S    
C57   C58   1.419401 A    
C25   C39   1.396569 A    
C29   H1    1.083081 S    
N2    C32   1.438692 S    
N8    H28   1.047475 S    
C42   H9    1.083713 S    
C9    C10   1.394578 A    
C17   C30   1.408642 A    
C19   C35   1.420021 A    
C8    H3    1.083530 S    
C52   C53   1.360219 A    
N1    C6    1.368463 A    
C33   C36   1.409310 A    
H12   C57   1.081784 S    
C3    C50   1.465979 S    
C12   C34   1.422711 A    
C18   C33   1.424683 A    
C49   C50   1.399955 A    
C41   N6    1.437924 S    
O3    C2    1.303267 A    
C58   N4    1.366353 A    
C51   C52   1.369507 A    
C55   C56   1.443018 A    
C8    C16   1.402485 A    
O3    Cu1   1.946130 S    
C13   C14   1.411579 A    
C26   O12   1.349960 S    
O1    C1    1.298160 A    
C23   C24   1.405560 A    
C7    C11   1.404463 A    
H11   C49   1.082008 S    
C25   C26   1.404069 A    
Cu1   O7    1.950773 S    
C53   H15   1.084464 S    
Cu2   O8    1.946124 S    
C21   C22   1.397561 A    
N7    H26   1.045669 S    
C12   C13   1.413430 A    
C14   N9    1.434018 S    
C34   C35   1.419747 A    
C53   C54   1.400464 A    
C9    C16   1.402332 A    
O8    C4    1.299014 A    
C4    C17   1.458944 S    
C54   N8    1.417513 S    
C45   C50   1.420889 A    
C31   C32   1.403105 A    
N10   H32   1.046263 S    
C5    N1    1.370980 A    
C28   C32   1.401437 A    
C18   C21   1.426671 A    
N6    H23   1.043774 S    
O1    Cu1   1.962737 S    
C22   H2    1.084104 S    
C19   C20   1.421018 A    
O2    Cu2   1.962274 S    
C6    C15   1.401573 A    
C46   C47   1.422649 A    
O6    C3    1.309287 A    
O4    Cu2   1.950776 S    
N5    H20   1.044624 S    
C38   H5    1.077413 S    
C41   C46   1.427613 A    
C21   N10   1.433735 S    
C10   H24   1.082890 S    
N6    H22   1.044338 S    
C19   C38   1.414972 A    
C14   C36   1.396234 A    
O2    C1    1.309719 A    
C45   C46   1.406256 A    
C55   N4    1.417621 A    
N9    H29   1.045682 S    
C18   C20   1.421941 A    
C38   C39   1.388705 A    
O4    C2    1.304296 A    
C9    H17   1.083455 S    
Cu1   N4    2.034078 S    
C23   C27   1.404934 A    
C36   H34   1.078073 S    
C44   H10   1.080783 S    
C1    C47   1.465522 S    
C37   H18   1.083335 S    
C51   H13   1.054615 S    
N2    C27   1.369611 A    
N3    C57   1.367641 A    
Cu2   O6    1.962737 S    
C41   C42   1.399108 A    
N7    H25   1.045345 S    
H8    C48   1.083442 S    
C10   C11   1.404454 A    
Cu2   N3    2.034824 S    
N10   H33   1.045952 S    
