data_mof_unit_15333.cif
_audit_creation_date              2012-12-11T15:53:38-0500
_audit_creation_method            fapswitch 2.2
_symmetry_space_group_name_H-M    P1
_symmetry_Int_Tables_number       1
_space_group_crystal_system       triclinic
_cell_length_a                    6.920999
_cell_length_b                    14.551799
_cell_length_c                    15.995634
_cell_angle_alpha                 90.516506
_cell_angle_beta                  89.888349
_cell_angle_gamma                 89.590426
_cell_volume                      1610.85818802

loop_
_atom_site_label
_atom_site_type_symbol
_atom_type_description
_atom_site_fract_x
_atom_site_fract_y
_atom_site_fract_z
_atom_type_partial_charge
O1    O     O_R   0.361600 0.167310 0.164620 -0.541365
O2    O     O_R   0.638400 0.832690 0.835380 -0.541366
O3    O     O_R   0.691080 0.157570 0.338750 -0.544091
O4    O     O_R   0.308920 0.842430 0.661250 -0.544091
O5    O     O_R   0.861410 0.336420 0.339360 -0.538572
O6    O     O_R   0.138590 0.663580 0.660640 -0.538572
C1    C     C_R   0.522188 0.135118 0.367497 0.685561
C2    C     C_R   0.477812 0.864882 0.632502 0.685561
O7    O     O_R   0.691320 0.156280 0.165240 -0.539651
O8    O     O_R   0.308680 0.843720 0.834760 -0.539650
O9    O     O_R   0.861640 0.335130 0.164600 -0.534703
O10   O     O_R   0.138360 0.664870 0.835400 -0.534703
C3    C     C_R   0.523487 0.132738 0.136932 0.707807
C4    C     C_R   0.476513 0.867262 0.863068 0.707807
O11   O     O_R   0.361370 0.168600 0.339370 -0.540551
O12   O     O_R   0.638630 0.831400 0.660630 -0.540551
O13   O     O_3   0.527990 0.310540 0.251980 -0.368555
O14   O     O_3   0.472010 0.689460 0.748020 -0.368556
V1    V     V_3+5 0.802830 0.240980 0.251990 1.390999
V2    V     V_3+5 0.197170 0.759020 0.748010 1.390999
O15   O     O_R   0.191360 0.346160 0.165220 -0.547096
O16   O     O_R   0.808640 0.653840 0.834780 -0.547096
C5    C     C_R   0.021428 0.366543 0.134818 0.703447
C6    C     C_R   0.978572 0.633457 0.865182 0.703448
O17   O     O_R   0.191130 0.347440 0.338740 -0.540975
O18   O     O_R   0.808870 0.652560 0.661260 -0.540975
C7    C     C_R   0.021626 0.369656 0.367660 0.681833
C8    C     C_R   0.978374 0.630344 0.632340 0.681833
V3    V     V_3+5 0.302840 0.262750 0.251990 1.390728
V4    V     V_3+5 0.697160 0.737250 0.748010 1.390728
O19   O     O_3   0.027820 0.193180 0.251990 -0.369452
O20   O     O_3   0.972180 0.806820 0.748010 -0.369452
C9    C     C_3   0.820875 0.473250 0.479566 -0.113027
C10   C     C_3   0.179125 0.526750 0.520434 -0.113027
C11   C     C_3   0.915378 0.461601 0.566609 -0.142089
C12   C     C_3   0.084622 0.538399 0.433391 -0.142089
H1    H     H_    0.845475 0.430295 0.621890 0.101878
H2    H     H_    0.154525 0.569704 0.378110 0.101879
H3    H     H_    0.672730 0.451126 0.462558 0.110831
H4    H     H_    0.327270 0.548874 0.537442 0.110831
C13   C     C_3   0.990313 0.560764 0.562083 -0.008225
C14   C     C_3   0.009687 0.439236 0.437917 -0.008225
C15   C     C_3   0.895863 0.573202 0.475812 -0.142703
C16   C     C_3   0.104137 0.426798 0.524188 -0.142703
H5    H     H_    0.809654 0.633918 0.456280 0.101052
H6    H     H_    0.190346 0.366082 0.543720 0.101052
C17   C     C_R   0.841264 0.504011 0.946491 -0.200044
C18   C     C_R   0.158736 0.495988 0.053508 -0.200042
H7    H     H_    0.718483 0.506158 0.904585 0.132135
H8    H     H_    0.281518 0.493841 0.095414 0.132134
C19   C     C_R   0.845907 0.437869 0.009946 0.163561
C20   C     C_R   0.154094 0.562130 0.990052 0.163561
C21   C     C_R   0.007217 0.433788 0.065003 -0.099190
C22   C     C_R   0.992783 0.566211 0.934997 -0.099190
C23   C     C_R   0.679738 0.025260 0.467737 -0.160951
C24   C     C_R   0.320262 0.974740 0.532263 -0.160951
H9    H     H_    0.820659 0.043555 0.443839 0.116533
H10   H     H_    0.179341 0.956445 0.556161 0.116533
C25   C     C_R   0.668642 0.960203 0.531492 -0.154579
C26   C     C_R   0.331358 0.039796 0.468507 -0.154579
H11   H     H_    0.801627 0.930360 0.554728 0.118542
H12   H     H_    0.198373 0.069640 0.445272 0.118542
C27   C     C_R   0.488750 0.934052 0.564662 -0.046502
C28   C     C_R   0.511250 0.065947 0.435338 -0.046502
C29   C     C_R   0.665484 0.998492 0.051708 0.154490
C30   C     C_R   0.334516 0.001508 0.948292 0.154490
C31   C     C_R   0.647241 0.936270 0.984648 -0.190693
C32   C     C_R   0.352759 0.063730 0.015352 -0.190693
H13   H     H_    0.761097 0.886058 0.973685 0.126893
H14   H     H_    0.238902 0.113943 0.026315 0.126892
C33   C     C_R   0.484315 0.936317 0.932420 -0.098733
C34   C     C_R   0.515685 0.063683 0.067580 -0.098733
C35   C     C_3   0.679071 0.371749 0.015158 -0.741080
H15   H     H_    0.733629 0.299786 0.014003 0.194842
H16   H     H_    0.594490 0.384981 0.073085 0.221085
H17   H     H_    0.577928 0.379384 0.961780 0.189088
C36   C     C_3   0.320933 0.628247 0.984840 -0.741078
H18   H     H_    0.266380 0.700211 0.985998 0.194842
H19   H     H_    0.422082 0.620609 0.038215 0.189088
H20   H     H_    0.405508 0.615017 0.926910 0.221086
C37   C     C_3   0.843628 0.991510 0.105660 -0.737606
H21   H     H_    0.935315 0.931357 0.088139 0.191032
H22   H     H_    0.933560 0.053703 0.098137 0.218301
H23   H     H_    0.801515 0.983541 0.172211 0.199792
C38   C     C_3   0.156372 0.008490 0.894339 -0.737606
H24   H     H_    0.064685 0.068643 0.911860 0.191032
H25   H     H_    0.198485 0.016459 0.827789 0.199792
H26   H     H_    0.066440 0.946297 0.901863 0.218301

loop_
_geom_bond_atom_site_label_1
_geom_bond_atom_site_label_2
_ccdc_geom_bond_type
C30   C32   A    
O11   V3    S    
C23   C25   A    
O13   V3    S    
C4    C33   S    
C12   C14   S    
O4    C2    A    
V1    O19   S    
C30   C38   S    
C37   H21   S    
C17   H7    S    
C36   H18   S    
O9    V1    S    
C9    H3    S    
C10   H4    S    
C9    C14   S    
C11   H1    S    
O3    C1    A    
C38   H26   S    
O12   V4    S    
C8    C13   S    
C26   H12   S    
C35   H15   S    
O7    C3    A    
O13   V1    S    
O5    C7    A    
O7    V1    S    
O6    C8    A    
O8    V2    S    
C29   C31   A    
O3    V1    S    
O14   V4    S    
O14   V2    S    
C20   C22   A    
C18   H8    S    
C2    O12   A    
C13   C15   S    
C10   C13   S    
C14   C16   S    
C11   C13   S    
C37   H22   S    
C16   H6    S    
C5    C21   S    
C36   H19   S    
O17   V3    S    
C18   C21   A    
C25   H11   S    
C38   H25   S    
C9    C15   S    
C10   C16   S    
O8    C4    A    
C17   C19   A    
C1    O11   A    
C38   H24   S    
O15   V3    S    
C24   C26   A    
C31   H13   S    
C29   C37   S    
C30   C33   A    
C32   C34   A    
C23   C28   A    
O10   V2    S    
O1    V3    S    
C24   C27   A    
C11   C16   S    
C15   H5    S    
C17   C22   A    
O18   V4    S    
C23   H9    S    
C35   H17   S    
O16   C6    A    
O1    C3    A    
C35   H16   S    
C20   C36   S    
C37   H23   S    
V2    O20   S    
C36   H20   S    
O16   V4    S    
O18   C8    A    
C19   C35   S    
O5    V1    S    
C3    C34   S    
O17   C7    A    
C29   C34   A    
O6    V2    S    
O10   C6    A    
C25   C27   A    
O2    V4    S    
C26   C28   A    
O15   C5    A    
V3    O19   S    
C12   H2    S    
V4    O20   S    
C7    C14   S    
O9    C5    A    
C9    C11   S    
C10   C12   S    
C24   H10   S    
C31   C33   A    
O2    C4    A    
C1    C28   S    
C2    C27   S    
O4    V2    S    
C18   C20   A    
C32   H14   S    
C12   C15   S    
C19   C21   A    
C6    C22   S    
