data_mof_unit_50203.cif
_audit_creation_date              2012-12-11T15:30:42-0500
_audit_creation_method            fapswitch 2.2
_symmetry_space_group_name_H-M    P1
_symmetry_Int_Tables_number       1
_space_group_crystal_system       triclinic
_cell_length_a                    6.989318
_cell_length_b                    20.416845
_cell_length_c                    24.413986
_cell_angle_alpha                 89.983531
_cell_angle_beta                  91.078988
_cell_angle_gamma                 89.878075
_cell_volume                      3483.24564714

loop_
_atom_site_label
_atom_site_type_symbol
_atom_type_description
_atom_site_fract_x
_atom_site_fract_y
_atom_site_fract_z
_atom_type_partial_charge
O1    O     O_R   0.507310 0.423620 0.460450 -0.535749
O2    O     O_R   0.170760 0.556060 0.437190 -0.535323
O3    O     O_R   0.004040 0.576380 0.539550 -0.533293
C1    C     C_R   0.338047 0.576198 0.421419 0.736431
O4    O     O_R   0.177350 0.422870 0.454070 -0.537921
O5    O     O_R   0.010680 0.442240 0.556560 -0.536335
C2    C     C_R   0.344596 0.398367 0.444035 0.703368
O6    O     O_R   0.500670 0.557760 0.443440 -0.535928
O7    O     O_3   0.340380 0.506510 0.533610 -0.367820
V1    V     V_3+5 0.064130 0.498790 0.493770 1.432986
O8    O     O_R   0.681170 0.443940 0.562810 -0.539033
C3    C     C_R   0.850620 0.423505 0.578141 0.721738
O9    O     O_R   0.674570 0.577130 0.545930 -0.534818
C4    C     C_R   0.844023 0.600960 0.556770 0.714126
V2    V     V_3+5 0.564560 0.501210 0.506230 1.428562
O10   O     O_3   0.838170 0.493490 0.466390 -0.368749
C5    C     C_R   0.969089 0.836627 0.912328 -0.074379
C6    C     C_R   0.854007 0.663730 0.587088 -0.071119
C7    C     C_R   0.942261 0.717514 0.908871 0.144525
C8    C     C_R   0.957758 0.776070 0.939835 0.113759
C9    C     C_R   0.955559 0.838447 0.854943 -0.244312
C10   C     C_R   0.945835 0.780320 0.823010 0.020918
C11   C     C_R   0.964016 0.719341 0.850793 0.077439
C12   C     C_R   0.920356 0.780904 0.764380 0.069794
C13   C     C_R   0.929187 0.721179 0.733972 0.043381
C14   C     C_R   0.982901 0.663935 0.762462 -0.198379
C15   C     C_R   0.006773 0.662733 0.819428 0.143041
C16   C     C_R   0.881090 0.839105 0.735290 -0.166804
C17   C     C_R   0.855640 0.839384 0.678762 -0.138899
C18   C     C_R   0.861104 0.781433 0.647986 0.044868
C19   C     C_R   0.893756 0.721048 0.675609 0.073949
C20   C     C_R   0.832084 0.782945 0.590213 0.173339
C21   C     C_R   0.830382 0.724117 0.559659 0.088938
C22   C     C_R   0.885124 0.662624 0.644039 -0.260633
H1    H     H_    0.896535 0.614889 0.662716 0.106154
H2    H     H_    0.827421 0.886308 0.659902 0.174055
H3    H     H_    0.958671 0.886314 0.836366 0.116602
H4    H     H_    0.017614 0.619510 0.740922 0.131666
H5    H     H_    0.865635 0.885844 0.755170 0.137099
C23   C     C_3   0.798511 0.265864 0.806554 0.098609
C24   C     C_3   0.112728 0.230421 0.771425 -0.433370
C25   C     C_3   0.091326 0.279464 0.723062 -0.418244
H6    H     H_    0.842248 0.361988 0.769490 0.136018
H7    H     H_    0.886301 0.291981 0.838193 0.119974
H8    H     H_    0.207550 0.189356 0.759529 0.220876
H9    H     H_    0.181500 0.256092 0.806482 0.213031
H10   H     H_    0.151388 0.327673 0.735785 0.163731
H11   H     H_    0.177423 0.262448 0.687996 0.180055
C26   C     C_1   0.860739 0.376706 0.622703 -0.199747
C27   C     C_3   0.915787 0.204158 0.789210 0.098861
C28   C     C_3   0.772010 0.315091 0.757262 -0.059552
C29   C     C_3   0.878578 0.288679 0.705639 0.224675
C30   C     C_3   0.793117 0.220046 0.689486 -0.006196
C31   C     C_3   0.826225 0.169995 0.737471 0.035272
C32   C     C_1   0.867814 0.337051 0.659757 -0.046157
C33   C     C_1   0.942623 0.157281 0.835855 0.067722
C34   C     C_1   0.959349 0.119736 0.874402 -0.076922
H12   H     H_    0.930588 0.131966 0.724518 0.151563
H13   H     H_    0.637030 0.225885 0.682047 0.168706
C35   C     C_3   0.614308 0.707705 0.274655 0.279016
C36   C     C_3   0.262174 0.691154 0.240008 -0.067968
C37   C     C_3   0.309173 0.737596 0.191450 -0.349380
H14   H     H_    0.113773 0.703327 0.251435 0.154374
H15   H     H_    0.372374 0.709726 0.157202 0.212361
H16   H     H_    0.176260 0.758570 0.173498 0.187711
C38   C     C_1   0.479837 0.878329 0.124446 -0.166741
C39   C     C_3   0.394815 0.707202 0.291612 0.132409
C40   C     C_3   0.640943 0.758883 0.225769 -0.020373
C41   C     C_3   0.446871 0.793513 0.209771 0.117452
C42   C     C_3   0.363239 0.830350 0.261779 0.248963
C43   C     C_3   0.331552 0.778359 0.309184 -0.023302
C44   C     C_1   0.469343 0.840187 0.162662 0.022859
C45   C     C_1   0.360615 0.660106 0.337771 -0.008018
C46   C     C_1   0.345282 0.621745 0.375661 -0.174295
H17   H     H_    0.175480 0.775233 0.316148 0.124647
H18   H     H_    0.743611 0.797244 0.238692 0.119657
C47   C     C_R   0.483178 0.163612 0.088441 -0.097169
C48   C     C_R   0.343550 0.337231 0.411744 -0.089308
C49   C     C_R   0.607584 0.273376 0.101773 -0.129912
C50   C     C_R   0.590931 0.217125 0.070150 0.149028
C51   C     C_R   0.404319 0.166412 0.141124 -0.230126
C52   C     C_R   0.435288 0.221627 0.176336 0.063726
C53   C     C_R   0.532836 0.276583 0.154546 0.046873
C54   C     C_R   0.379268 0.223405 0.232754 0.069169
C55   C     C_R   0.416463 0.280486 0.265519 0.033195
C56   C     C_R   0.502957 0.334718 0.240399 -0.196670
C57   C     C_R   0.560730 0.333157 0.186423 0.155639
C58   C     C_R   0.292702 0.169300 0.257983 -0.178963
C59   C     C_R   0.245333 0.170255 0.312920 -0.192006
C60   C     C_R   0.280555 0.225321 0.345946 0.121892
C61   C     C_R   0.367089 0.281587 0.322493 0.068505
C62   C     C_R   0.228709 0.225407 0.401997 0.155943
C63   C     C_R   0.259163 0.281616 0.433775 -0.155833
C64   C     C_R   0.398965 0.337057 0.356954 -0.215286
H19   H     H_    0.459244 0.382108 0.342393 0.109074
H20   H     H_    0.213519 0.282732 0.475978 0.110397
H21   H     H_    0.179841 0.126599 0.329184 0.143659
H22   H     H_    0.688811 0.313464 0.085235 0.183336
H23   H     H_    0.327965 0.123564 0.154164 0.107441
H24   H     H_    0.531624 0.379694 0.261788 0.146336
H25   H     H_    0.260928 0.124494 0.236489 0.121899
O11   O     O_R   0.323590 0.942280 0.056590 -0.541693
O12   O     O_R   0.647030 0.077140 0.045940 -0.530614
O13   O     O_R   0.813570 0.057750 0.943430 -0.517397
C65   C     C_R   0.480126 0.101787 0.056248 0.737193
O14   O     O_R   0.653510 0.943950 0.062820 -0.536824
O15   O     O_R   0.820100 0.923600 0.960440 -0.535776
C66   C     C_R   0.486240 0.923786 0.078583 0.707263
O16   O     O_R   0.317060 0.076430 0.039590 -0.531407
O17   O     O_3   0.483830 0.993520 0.966410 -0.361169
V3    V     V_3+5 0.760140 0.001200 0.006230 1.486444
O18   O     O_R   0.149560 0.922820 0.954030 -0.540114
C67   C     C_R   0.980055 0.899047 0.943149 0.698362
O19   O     O_R   0.143080 0.056020 0.937150 -0.531699
C68   C     C_R   0.973057 0.075416 0.920941 0.750519
V4    V     V_3+5 0.259690 0.998730 0.993720 1.482866
O20   O     O_3   0.986120 0.006480 0.033580 -0.373288
C69   C     C_3   0.106503 0.603103 0.843303 -0.771478
H26   H     H_    0.226317 0.588146 0.816716 0.207990
H27   H     H_    0.172904 0.613103 0.883993 0.226211
H28   H     H_    0.004911 0.561532 0.845716 0.212246
I1    I     I_    0.790078 0.874126 0.547269 -0.339829
I2    I     I_    0.575010 0.111591 0.751089 -0.457602
I3    I     I_    0.550189 0.244765 0.855080 -0.403205
C70   C     C_3   0.561753 0.333265 0.745257 -0.780189
H29   H     H_    0.475641 0.288654 0.738430 0.242066
H30   H     H_    0.502443 0.360699 0.780366 0.237986
H31   H     H_    0.546978 0.365399 0.708776 0.208184
C71   C     C_3   0.870662 0.192494 0.635395 -0.789517
H32   H     H_    0.798085 0.145495 0.625481 0.241781
H33   H     H_    0.841084 0.226687 0.600899 0.215415
H34   H     H_    0.026807 0.182962 0.638350 0.224220
I4    I     I_    0.783185 0.721975 0.152828 -0.558838
C72   C     C_3   0.682720 0.637544 0.259237 -0.641102
H35   H     H_    0.643561 0.600844 0.290593 0.194308
H36   H     H_    0.626936 0.620958 0.219299 0.236865
H37   H     H_    0.840329 0.635400 0.256168 0.207163
C73   C     C_3   0.246639 0.618718 0.221606 -0.698527
H38   H     H_    0.347584 0.605693 0.189016 0.233017
H39   H     H_    0.264863 0.584175 0.256344 0.210902
H40   H     H_    0.102973 0.609885 0.202952 0.234506
I5    I     I_    0.397570 0.808674 0.393046 -0.446063
C74   C     C_3   0.801598 0.726814 0.498005 -0.674252
H41   H     H_    0.806422 0.678312 0.477759 0.178859
H42   H     H_    0.659810 0.748700 0.488071 0.250299
H43   H     H_    0.915686 0.756990 0.479602 0.243634
C75   C     C_3   0.497151 0.887285 0.280461 -0.678122
H44   H     H_    0.636555 0.870370 0.296949 0.197658
H45   H     H_    0.525679 0.921184 0.246019 0.187693
H46   H     H_    0.429795 0.917142 0.312907 0.240502
C76   C     C_3   0.745169 0.727403 0.324246 -0.736853
H47   H     H_    0.734514 0.779675 0.334614 0.227701
H48   H     H_    0.713472 0.698091 0.361273 0.233106
H49   H     H_    0.897366 0.718896 0.315475 0.188426
C77   C     C_3   0.167767 0.863397 0.247274 -0.769499
H50   H     H_    0.110842 0.889358 0.283546 0.225263
H51   H     H_    0.181466 0.899834 0.213803 0.215262
H52   H     H_    0.058623 0.827071 0.234669 0.199716
I6    I     I_    0.693610 0.420243 0.157381 -0.393394
I7    I     I_    0.747835 0.216647 0.996848 -0.329047
C78   C     C_3   0.136661 0.166922 0.428640 -0.766615
H53   H     H_    0.106630 0.175877 0.472538 0.213757
H54   H     H_    0.998539 0.155623 0.407534 0.213072
H55   H     H_    0.233572 0.123879 0.426435 0.220648
C79   C     C_3   0.875581 0.655926 0.937586 -0.740845
H56   H     H_    0.753068 0.667352 0.964237 0.221880
H57   H     H_    0.819225 0.618779 0.908506 0.217474
H58   H     H_    0.993262 0.634746 0.963145 0.221515
C80   C     C_3   0.959779 0.773062 0.002016 -0.712833
H59   H     H_    0.001591 0.819840 0.021829 0.195192
H60   H     H_    0.815508 0.760028 0.016703 0.230245
H61   H     H_    0.065020 0.735807 0.016528 0.224022

loop_
_geom_bond_atom_site_label_1
_geom_bond_atom_site_label_2
_ccdc_geom_bond_type
C62   C78   S    
C13   C19   A    
C74   H43   S    
C53   C57   A    
C31   I2    S    
C79   H56   S    
C35   C72   S    
C77   H51   S    
C24   C25   S    
C4    C6    S    
C49   H22   S    
C7    C11   A    
C7    C8    A    
C1    O6    A    
C72   H37   S    
C3    C26   S    
C30   H13   S    
C5    C67   S    
C34   C68   S    
C30   C31   S    
C21   C74   S    
C17   H2    S    
C14   C15   A    
C27   C31   S    
C16   C17   A    
C75   H45   S    
O5    C3    A    
C18   C19   A    
C36   C73   S    
C50   I7    S    
C48   C63   A    
V2    O10   S    
C5    C8    A    
V4    O20   S    
O12   V3    S    
C22   H1    S    
C80   H59   S    
C76   H49   S    
C36   H14   S    
O17   V3    S    
O15   C67   A    
C37   H15   S    
O16   V4    S    
C69   H26   S    
O8    V2    S    
C38   C44   T    
C75   H44   S    
C35   C39   S    
C40   C41   S    
C70   H31   S    
C24   H9    S    
O11   C66   A    
C42   C43   S    
C39   C45   S    
C11   C15   A    
C18   C20   A    
C56   H24   S    
O7    V1    S    
C1    C46   S    
C29   C32   S    
C71   H34   S    
C8    C80   S    
C79   H57   S    
O9    C4    A    
C77   H52   S    
C80   H60   S    
C41   C42   S    
O18   C67   A    
C78   H54   S    
C78   H53   S    
O14   V3    S    
C45   C46   T    
C55   C61   A    
C23   I3    S    
C43   H17   S    
C28   C29   S    
C28   C70   S    
C20   I1    S    
C75   H46   S    
C12   C13   A    
O4    C2    A    
C56   C57   A    
C14   H4    S    
C72   H36   S    
O6    V2    S    
C51   H23   S    
C16   H5    S    
C13   C14   A    
C55   C56   A    
C51   C52   A    
C42   C77   S    
C37   C41   S    
C59   H21   S    
C69   H28   S    
C54   C58   A    
C41   C44   S    
O2    C1    A    
C17   C18   A    
O13   C68   A    
C36   C39   S    
C60   C62   A    
C47   C51   A    
C76   H47   S    
C19   C22   A    
C64   H19   S    
O12   C65   A    
C25   H11   S    
C54   C55   A    
C6    C22   A    
O3    C4    A    
C73   H39   S    
C43   I5    S    
O1    V2    S    
C63   H20   S    
C79   H58   S    
C52   C54   A    
O9    V2    S    
C70   H29   S    
C80   H61   S    
C10   C12   A    
C30   C71   S    
C33   C34   T    
O2    V1    S    
O17   V4    S    
C24   C27   S    
O18   V4    S    
C78   H55   S    
C29   C30   S    
C71   H32   S    
C31   H12   S    
C47   C50   A    
C74   H42   S    
C65   O16   A    
C40   I4    S    
C37   H16   S    
O1    C2    A    
O15   V3    S    
C58   H25   S    
C12   C16   A    
C38   C66   S    
C73   H40   S    
O5    V1    S    
O13   V3    S    
O19   V4    S    
O8    C3    A    
O19   C68   A    
C72   H35   S    
C40   H18   S    
C23   C28   S    
C7    C79   S    
V3    O20   S    
C20   C21   A    
C47   C65   S    
O7    V2    S    
O4    V1    S    
O3    V1    S    
C26   C32   T    
C27   C33   S    
C61   C64   A    
C49   C53   A    
H6    C28   S    
C60   C61   A    
O14   C66   A    
C48   C64   A    
C23   C27   S    
C62   C63   A    
C57   I6    S    
C39   C43   S    
C25   H10   S    
C76   H48   S    
C36   C37   S    
C6    C21   A    
C69   H27   S    
O11   V4    S    
C73   H38   S    
C2    C48   S    
C49   C50   A    
C23   H7    S    
C9    H3    S    
C58   C59   A    
C35   C40   S    
C52   C53   A    
C77   H50   S    
C70   H30   S    
C24   H8    S    
C10   C11   A    
V1    O10   S    
C42   C75   S    
C15   C69   S    
C59   C60   A    
C9    C10   A    
C35   C76   S    
C74   H41   S    
C25   C29   S    
C71   H33   S    
C5    C9    A    
