data_mof_unit_39952.cif
_audit_creation_date              2013-03-05T15:57:25-0500
_audit_creation_method            fapswitch 2.2
_symmetry_space_group_name_H-M    P1
_symmetry_Int_Tables_number       1
_space_group_crystal_system       triclinic
_cell_length_a                    13.054441
_cell_length_b                    13.040461
_cell_length_c                    15.421821
_cell_angle_alpha                 116.670217
_cell_angle_beta                  63.714253
_cell_angle_gamma                 97.49465
_cell_volume                      2095.77093654

loop_
_atom_site_label
_atom_site_type_symbol
_atom_site_description
_atom_site_fract_x
_atom_site_fract_y
_atom_site_fract_z
_atom_type_partial_charge
C1    C     C_R   0.999642 0.832426 0.053641 -0.177799
H1    H     H_    0.030096 0.897005 0.108304 0.110520
N1    N     N_R   0.037320 0.720000 0.995830 -0.055401
C2    C     C_R   0.679199 0.474324 0.218202 -0.096415
H2    H     H_    0.609698 0.436096 0.197591 0.151288
N2    N     N_R   0.790770 0.446140 0.151990 -0.038924
C3    C     C_R   0.755278 0.519565 0.893780 -0.135223
H3    H     H_    0.777393 0.548164 0.832226 0.133179
N3    N     N_R   0.824900 0.517970 0.936430 -0.051512
C4    C     C_R   0.996215 0.712609 0.309905 -0.138691
H4    H     H_    0.971496 0.683254 0.371078 0.094761
N4    N     N_R   0.003190 0.648180 0.211390 -0.037019
C5    C     C_R   0.676986 0.421288 0.990530 -0.128188
H5    H     H_    0.631612 0.357498 0.016670 0.150071
N5    N     N_R   0.774330 0.457010 0.995830 -0.046707
C6    C     C_R   0.072570 0.812196 0.214795 -0.152853
H6    H     H_    0.118235 0.873691 0.186314 0.115369
N6    N     N_R   0.053760 0.709130 0.151980 -0.042540
C7    C     C_R   0.781179 0.572945 0.308805 -0.088799
H7    H     H_    0.802934 0.633250 0.371874 0.106174
N7    N     N_R   0.853840 0.498830 0.211390 -0.041931
C8    C     C_R   0.899274 0.746783 0.958386 -0.116341
H8    H     H_    0.834438 0.729652 0.929309 0.169473
N8    N     N_R   0.974250 0.667320 0.936430 -0.050773
C9    C     C_R   0.910685 0.850520 0.034513 0.153598
C10   C     C_R   0.671533 0.552314 0.318432 0.006535
C11   C     C_R   0.662233 0.459465 0.926945 0.150770
C12   C     C_R   0.029169 0.820478 0.317177 0.067861
C13   C     C_R   0.337604 0.514351 0.950696 -0.107531
H9    H     H_    0.397468 0.548433 0.898260 0.101390
N9    N     N_R   0.225670 0.542990 0.004170 -0.052500
C14   C     C_R   0.904258 0.200937 0.790594 -0.101545
H10   H     H_    0.853331 0.142327 0.819943 0.181029
N10   N     N_R   0.946240 0.290870 0.848020 -0.052903
C15   C     C_R   0.207014 0.486150 0.688277 -0.142523
H11   H     H_    0.178825 0.443879 0.625822 0.134283
N11   N     N_R   0.146160 0.501170 0.788610 -0.052265
C16   C     C_R   0.059545 0.252045 0.079606 -0.219391
H12   H     H_    0.099650 0.268859 0.132035 0.120978
N12   N     N_R   0.025750 0.332680 0.063570 -0.058144
C17   C     C_R   0.959736 0.169110 0.985762 0.343847
N13   N     N_R   0.962680 0.280000 0.004170 -0.093658
C18   C     C_R   0.302061 0.588889 0.786550 0.127576
N14   N     N_R   0.209230 0.553860 0.848010 -0.057557
C19   C     C_R   0.258308 0.419085 0.050966 -0.129296
H13   H     H_    0.247751 0.368959 0.093648 0.112186
N15   N     N_R   0.175100 0.482030 0.063570 -0.043022
C20   C     C_R   0.982520 0.304070 0.699490 -0.123242
H14   H     H_    0.000063 0.346722 0.649054 0.093606
N16   N     N_R   0.996810 0.351820 0.788610 -0.045600
Ni1   Ni    Ni4+2 0.130310 0.630310 0.000000 0.205618
Ni2   Ni    Ni4+2 0.869690 0.369690 0.000000 0.278814
Ni3   Ni    Ni4+2 0.985660 0.509480 0.863750 0.209683
Ni4   Ni    Ni4+2 0.014340 0.490520 0.136250 0.220273
C21   C     C_R   0.360651 0.435924 0.977967 0.148861
C22   C     C_R   0.922619 0.208686 0.697986 0.041457
C23   C     C_R   0.303960 0.542687 0.685598 0.011887
C24   C     C_R   0.020498 0.146756 0.030983 -0.025087
C25   C     C_R   0.334837 0.045834 0.251269 -0.241160
H15   H     H_    0.416059 0.010234 0.233293 0.176858
C26   C     C_R   0.233713 0.008178 0.308735 -0.189639
H16   H     H_    0.238791 0.947168 0.336800 0.139400
C27   C     C_R   0.126722 0.054288 0.335444 0.133604
C28   C     C_R   0.122911 0.134124 0.298674 -0.251068
H17   H     H_    0.041243 0.170425 0.318086 0.132412
C29   C     C_R   0.223833 0.173496 0.243213 -0.261789
H18   H     H_    0.217958 0.238845 0.220177 0.153007
C30   C     C_R   0.330751 0.132480 0.221998 0.415352
C31   C     C_R   0.962873 0.133990 0.510491 -0.231599
H19   H     H_    0.988309 0.216035 0.510273 0.126070
C32   C     C_R   0.898903 0.126350 0.607438 0.046980
C33   C     C_R   0.852425 0.022138 0.605147 0.076498
C34   C     C_R   0.896621 0.923429 0.508120 -0.233265
H20   H     H_    0.859809 0.843483 0.505709 0.118466
C35   C     C_R   0.987770 0.927527 0.416182 0.056361
C36   C     C_R   0.020780 0.035788 0.417441 0.032388
C37   C     C_R   0.767437 0.925757 0.728018 -0.286139
H21   H     H_    0.839027 0.860443 0.675102 0.164295
C38   C     C_R   0.686049 0.925046 0.825239 0.471493
C39   C     C_R   0.597409 0.013775 0.895640 -0.118488
H22   H     H_    0.535836 0.017219 0.972062 0.188184
C40   C     C_R   0.586642 0.098401 0.867797 -0.144845
H23   H     H_    0.515745 0.163912 0.921598 0.162650
C41   C     C_R   0.667574 0.099166 0.771536 -0.179988
H24   H     H_    0.659554 0.167303 0.752452 0.137859
C42   C     C_R   0.760146 0.014239 0.701817 0.048129
H25   H     H_    0.025027 0.374376 0.331513 0.105006
C43   C     C_R   0.858094 0.327611 0.339777 -0.152419
H26   H     H_    0.889619 0.240386 0.279172 0.123641
C44   C     C_R   0.742855 0.366470 0.383372 0.147681
C45   C     C_R   0.705735 0.482160 0.460781 0.081494
C46   C     C_R   0.780657 0.553281 0.499748 -0.187531
H27   H     H_    0.752784 0.642209 0.558748 0.139510
C47   C     C_R   0.896087 0.515393 0.450487 -0.133893
H28   H     H_    0.956019 0.575471 0.470873 0.137805
C48   C     C_R   0.935001 0.402956 0.370491 -0.133876
C49   C     C_R   0.503611 0.532478 0.576694 -0.259883
H29   H     H_    0.517848 0.504956 0.627662 0.133273
C50   C     C_R   0.393501 0.555606 0.594965 0.066464
C51   C     C_R   0.372902 0.586424 0.527069 0.022848
C52   C     C_R   0.465871 0.591047 0.438442 -0.232753
H30   H     H_    0.451946 0.610305 0.382797 0.139699
C53   C     C_R   0.576815 0.565049 0.418974 0.065584
C54   C     C_R   0.595266 0.534349 0.488665 0.025131
C55   C     C_R   0.210789 0.509150 0.482734 -0.149348
H31   H     H_    0.267280 0.435994 0.412580 0.142183
C56   C     C_R   0.092595 0.501562 0.522492 -0.194969
H32   H     H_    0.059092 0.423699 0.482347 0.130702
C57   C     C_R   0.018284 0.590882 0.617892 -0.116352
H33   H     H_    0.926974 0.582972 0.649304 0.166434
C58   C     C_R   0.062022 0.689213 0.672830 -0.062092
H34   H     H_    0.004395 0.758382 0.746441 0.181812
C59   C     C_R   0.180531 0.694494 0.636618 -0.154253
H35   H     H_    0.213843 0.765875 0.685184 0.120963
C60   C     C_R   0.255251 0.602334 0.543440 0.121045
C61   C     C_2   0.473046 0.399239 0.954837 -0.222925
H36   H     H_    0.474191 0.361329 0.004025 0.165458
C62   C     C_2   0.566678 0.438532 0.899353 -0.205819
H37   H     H_    0.566060 0.475605 0.849187 0.142168
C63   C     C_2   0.827451 0.951895 0.098481 -0.059784
H38   H     H_    0.766298 0.958750 0.071031 0.221321
C64   C     C_2   0.818403 0.031494 0.194151 -0.248260
H39   H     H_    0.873037 0.028541 0.229441 0.138098
N17   N     N_R   0.880477 0.095277 0.952602 0.204077
O1    O     O_R   0.909379 0.985514 0.892451 -0.456378
O2    O     O_R   0.774684 0.135024 0.994140 -0.410404
C65   C     C_3   0.364572 0.693726 0.827360 -0.458612
C66   C     C_3   0.283126 0.792308 0.929813 -0.241068
C67   C     C_3   0.344764 0.898328 0.967550 -0.935339
H40   H     H_    0.407674 0.878275 0.989182 0.293620
H41   H     H_    0.388328 0.927776 0.903518 0.262387
H42   H     H_    0.281390 0.968548 0.039884 0.256390
H43   H     H_    0.217738 0.816293 0.913029 0.212951
H44   H     H_    0.242543 0.765170 0.995222 0.212055
H45   H     H_    0.435171 0.671631 0.838734 0.199932
H46   H     H_    0.406424 0.726882 0.765795 0.204123
N18   N     N_R   0.433766 0.181364 0.174760 0.214433
O3    O     O_R   0.429951 0.261281 0.147383 -0.488843
O4    O     O_R   0.531129 0.151682 0.164969 -0.404217
N19   N     N_R   0.694255 0.835904 0.853103 0.234356
O5    O     O_R   0.763691 0.743820 0.781491 -0.488255
O6    O     O_R   0.630449 0.844620 0.949530 -0.439175
C68   C     C_3   0.661369 0.284652 0.346587 -0.382893
C69   C     C_3   0.604577 0.222784 0.418536 -0.280187
C70   C     C_3   0.519741 0.141603 0.385182 -0.818747
H47   H     H_    0.450646 0.190716 0.392376 0.264243
H48   H     H_    0.564431 0.074932 0.300872 0.279459
H49   H     H_    0.480266 0.098112 0.438584 0.232957
H50   H     H_    0.671095 0.172722 0.413848 0.205543
H51   H     H_    0.557888 0.287117 0.503671 0.197170
H52   H     H_    0.594043 0.330463 0.348432 0.214587
H53   H     H_    0.708017 0.222185 0.261082 0.231935

loop_
_geom_bond_atom_site_label_1
_geom_bond_atom_site_label_2
_geom_bond_distance
_ccdc_geom_bond_type
C6    C12   1.377034 A    
C29   C30   1.405155 A    
C43   C48   1.394191 A    
C52   H30   1.084459 S    
C56   C57   1.398077 A    
C17   N13   1.341567 A    
C7    H7    1.069981 S    
C45   C54   1.473708 S    
C35   C36   1.415369 A    
C66   C67   1.516525 S    
C70   H47   1.111013 S    
C30   N18   1.439142 S    
C3    H3    1.081916 S    
C37   H21   1.083051 S    
N18   O4    1.301543 A    
C69   H50   1.111465 S    
C17   N17   1.423327 S    
C15   N11   1.320407 A    
C41   C42   1.404400 A    
C17   C24   1.390427 A    
C59   H35   1.083319 S    
C57   C58   1.396525 A    
C16   H12   1.077851 S    
C39   H22   1.077016 S    
C27   C36   1.485879 S    
C68   C69   1.533216 S    
C23   C50   1.435726 S    
C10   C53   1.443953 S    
C3    C11   1.382922 A    
C61   H36   1.081035 S    
C31   C36   1.383001 A    
C26   C27   1.403287 A    
C1    H1    1.072433 S    
C34   H20   1.081448 S    
C31   C32   1.395987 A    
C7    C10   1.374927 A    
C62   H37   1.083802 S    
C46   H27   1.083847 S    
C69   H51   1.111267 S    
C49   C50   1.383700 A    
C16   C24   1.392486 A    
C15   H11   1.073019 S    
C6    H6    1.072813 S    
C8    C9    1.380978 A    
C56   H32   1.079447 S    
C65   H46   1.111011 S    
C44   C68   1.512225 S    
C67   H42   1.109321 S    
N11   Ni3   1.881660 S    
C26   H16   1.083059 S    
N12   N13   1.394459 A    
C38   N19   1.438435 S    
C25   H15   1.081277 S    
C52   C53   1.397952 A    
N9    N15   1.374087 A    
C5    H5    1.079975 S    
C1    C9    1.388763 A    
C34   C35   1.409321 A    
N1    N8    1.394460 A    
C31   H19   1.079137 S    
C51   C60   1.469138 S    
C70   H48   1.110179 S    
C63   C64   1.330810 D    
N6    Ni1   1.891919 S    
C49   H29   1.086830 S    
C19   N15   1.339335 A    
C25   C26   1.398067 A    
N16   Ni3   1.838723 S    
N10   N16   1.374091 A    
N19   O5    1.300022 A    
C2    N2    1.335897 A    
C18   C65   1.523979 S    
C45   C46   1.400550 A    
N1    Ni1   1.831060 S    
C33   C34   1.388819 A    
C13   C21   1.375444 A    
N8    Ni3   1.837433 S    
C19   H13   1.077940 S    
N2    N7    1.394475 A    
C38   C39   1.401915 A    
C59   C60   1.405252 A    
C1    N1    1.346304 A    
C14   N10   1.337868 A    
C18   N14   1.342592 A    
C13   H9    1.065126 S    
C66   H44   1.105295 S    
C25   C30   1.406498 A    
C55   C56   1.393981 A    
C33   C42   1.482970 S    
C50   C51   1.409077 A    
C22   C32   1.465920 S    
H25   C48   1.081138 S    
C46   C47   1.391135 A    
C37   C38   1.405671 A    
C58   C59   1.396973 A    
N5    Ni2   1.832182 S    
C41   H24   1.083229 S    
C47   C48   1.394734 A    
C4    N4    1.331891 A    
N15   Ni4   1.881129 S    
N14   Ni1   1.892303 S    
C39   C40   1.393310 A    
C20   H14   1.078965 S    
C43   C44   1.403271 A    
C37   C42   1.408887 A    
C40   C41   1.393385 A    
C5    N5    1.319823 A    
C8    N8    1.342575 A    
N3    Ni3   1.881130 S    
C65   C66   1.524723 S    
C9    C63   1.468345 S    
C70   H49   1.110231 S    
C63   H38   1.084622 S    
N17   O2    1.300558 A    
C67   H40   1.109564 S    
C55   H31   1.083872 S    
C11   C62   1.445226 S    
C4    C12   1.385494 A    
C20   C22   1.376810 A    
N13   Ni2   1.831060 S    
C68   H53   1.107755 S    
C68   H52   1.108913 S    
C58   H34   1.081506 S    
C7    N7    1.328298 A    
N10   Ni2   1.891920 S    
C55   C60   1.402141 A    
N9    Ni1   1.832182 S    
C69   C70   1.523721 S    
C2    C10   1.382727 A    
N19   O6    1.301550 A    
N18   O3    1.301525 A    
N12   Ni4   1.837434 S    
C15   C23   1.372794 A    
C14   H10   1.068876 S    
N11   N14   1.394476 A    
N3    N5    1.374088 A    
C32   C33   1.406055 A    
C13   N9    1.324138 A    
C66   H43   1.109724 S    
C28   H17   1.082629 S    
C16   N12   1.346324 A    
C44   C45   1.413342 A    
N7    Ni4   1.881661 S    
C20   N16   1.319093 A    
C51   C52   1.389388 A    
C61   C62   1.338893 D    
C29   H18   1.082253 S    
C47   H28   1.077767 S    
C65   H45   1.104983 S    
C49   C54   1.363330 A    
C4    H4    1.078436 S    
C18   C23   1.383882 A    
C27   C28   1.405845 A    
C3    N3    1.343805 A    
C2    H2    1.080702 S    
C43   H26   1.078793 S    
C19   C21   1.383409 A    
C6    N6    1.326995 A    
C40   H23   1.079181 S    
C21   C61   1.440590 S    
N4    N6    1.374090 A    
C53   C54   1.419197 A    
C8    H8    1.079016 S    
C5    C11   1.370048 A    
N2    Ni2   1.892302 S    
C64   H39   1.084476 S    
C57   H33   1.080517 S    
C12   C35   1.457606 S    
C14   C22   1.388311 A    
N4    Ni4   1.838723 S    
C28   C29   1.396643 A    
N17   O1    1.300214 A    
C67   H41   1.109980 S    
