data_mof_unit_9599.cif
_audit_creation_date              2013-03-05T16:35:29-0500
_audit_creation_method            fapswitch 2.2
_symmetry_space_group_name_H-M    P1
_symmetry_Int_Tables_number       1
_space_group_crystal_system       triclinic
_cell_length_a                    10.761447
_cell_length_b                    15.033366
_cell_length_c                    14.158339
_cell_angle_alpha                 89.928237
_cell_angle_beta                  89.551669
_cell_angle_gamma                 89.559222
_cell_volume                      2290.40747679

loop_
_atom_site_label
_atom_site_type_symbol
_atom_site_description
_atom_site_fract_x
_atom_site_fract_y
_atom_site_fract_z
_atom_type_partial_charge
O1    O     O_R   0.500010 0.369070 0.579480 -0.624651
O2    O     O_R   0.499990 0.630930 0.420520 -0.635754
O3    O     O_R   0.500010 0.369060 0.420520 -0.620366
O4    O     O_R   0.499990 0.630940 0.579480 -0.629479
C1    C     C_R   0.498979 0.327710 0.500077 0.932478
C2    C     C_R   0.498437 0.672085 0.500112 0.941120
O5    O     O_R   0.316760 0.500010 0.579480 -0.544727
O6    O     O_R   0.683240 0.499990 0.420520 -0.531938
O7    O     O_R   0.316760 0.500000 0.420520 -0.648834
O8    O     O_R   0.683240 0.500000 0.579480 -0.640588
C3    C     C_R   0.260246 0.499178 0.500279 1.001702
C4    C     C_R   0.739951 0.500568 0.499473 1.006111
Zn1   Zn    Zn3+2 0.500000 0.500010 0.606140 1.026870
Zn2   Zn    Zn3+2 0.500000 0.499990 0.393860 1.029611
H1    H     H_    0.295310 0.850008 0.298831 0.158953
H2    H     H_    0.730165 0.140356 0.699760 0.162010
C5    C     C_R   0.215977 0.798409 0.427461 -0.214153
C6    C     C_R   0.783841 0.200095 0.567520 -0.177596
H3    H     H_    0.231283 0.859685 0.465307 0.197681
H4    H     H_    0.759885 0.141481 0.527498 0.187181
C7    C     C_R   0.161760 0.725088 0.472972 0.463660
C8    C     C_R   0.831635 0.275575 0.521902 0.502073
C9    C     C_R   0.136943 0.647647 0.419689 0.044856
C10   C     C_R   0.864928 0.350254 0.577051 0.040492
C11   C     C_R   0.173427 0.643621 0.324221 -0.077803
C12   C     C_R   0.843344 0.349275 0.675050 -0.161581
H5    H     H_    0.155028 0.584700 0.282790 0.152917
H6    H     H_    0.868510 0.405917 0.717888 0.164493
C13   C     C_R   0.232098 0.715773 0.281381 -0.119725
C14   C     C_R   0.794519 0.273978 0.718882 -0.182598
H7    H     H_    0.260257 0.712004 0.207929 0.138018
H8    H     H_    0.780069 0.273227 0.794616 0.150648
C15   C     C_R   0.251841 0.793460 0.332591 -0.168768
C16   C     C_R   0.766638 0.199091 0.665423 -0.182441
C17   C     C_R   0.936015 0.572507 0.456361 0.456709
C18   C     C_R   0.064948 0.424636 0.537907 0.431382
C19   C     C_R   0.872733 0.500045 0.497756 -0.251433
C20   C     C_R   0.127748 0.498865 0.500423 -0.243720
C21   C     C_R   0.935209 0.425994 0.536778 -0.121892
C22   C     C_R   0.065561 0.572168 0.459785 -0.127127
C23   C     C_R   0.488599 0.094687 0.586879 -0.180304
C24   C     C_R   0.539527 0.906578 0.424748 -0.191287
H9    H     H_    0.500115 0.060832 0.653746 0.132418
H10   H     H_    0.580569 0.942002 0.365842 0.151953
C25   C     C_R   0.490075 0.186343 0.586476 -0.138827
C26   C     C_R   0.543184 0.814805 0.423679 -0.112540
H11   H     H_    0.498339 0.220959 0.653164 0.165118
H12   H     H_    0.583651 0.780883 0.363236 0.187863
C27   C     C_R   0.488771 0.232141 0.500514 0.002137
C28   C     C_R   0.496938 0.767573 0.501120 -0.020902
C29   C     C_R   0.474040 0.186333 0.415469 -0.083859
C30   C     C_R   0.447062 0.811863 0.579534 -0.158768
H13   H     H_    0.468413 0.221005 0.348537 0.155311
H14   H     H_    0.410737 0.775686 0.639768 0.196687
C31   C     C_R   0.465944 0.094762 0.416239 -0.145766
C32   C     C_R   0.437593 0.903351 0.578639 -0.148663
H15   H     H_    0.452019 0.060670 0.349912 0.130105
H16   H     H_    0.391682 0.935819 0.637624 0.166310
C33   C     C_R   0.477991 0.048174 0.501594 0.120400
C34   C     C_R   0.484207 0.951438 0.501377 0.089720
C35   C     C_R   0.476320 0.421865 0.105227 -0.264264
C36   C     C_R   0.456280 0.574056 0.895004 -0.266841
H17   H     H_    0.455987 0.360049 0.069651 0.144285
H18   H     H_    0.420069 0.632366 0.930892 0.144141
C37   C     C_R   0.476787 0.423331 0.204522 0.062731
C38   C     C_R   0.457197 0.572642 0.795699 0.069523
H19   H     H_    0.457837 0.362798 0.243038 0.137171
H20   H     H_    0.422974 0.629811 0.757194 0.155894
N1    N     N_R   0.500000 0.499980 0.252470 -0.098330
N2    N     N_R   0.500000 0.500020 0.747530 -0.095795
C39   C     C_R   0.522015 0.576811 0.204020 0.058967
C40   C     C_R   0.541754 0.427191 0.795467 0.038891
H21   H     H_    0.539881 0.637556 0.242119 0.153131
H22   H     H_    0.574545 0.369725 0.756708 0.130007
C41   C     C_R   0.522178 0.578290 0.104721 -0.274994
C42   C     C_R   0.542527 0.425799 0.894757 -0.268219
H23   H     H_    0.541941 0.640197 0.068736 0.146108
H24   H     H_    0.578227 0.367343 0.930396 0.139917
C43   C     C_R   0.499390 0.500040 0.053227 0.132722
C44   C     C_R   0.499485 0.499982 0.946628 0.138305
S1    S     S_3+6 0.123637 0.732632 0.594712 -0.012945
O9    O     O_2   0.201003 0.666359 0.648304 -0.355870
O10   O     O_2   0.149058 0.824501 0.631237 -0.313511
O11   O     O_3   0.972709 0.709600 0.612311 -0.516677
H25   H     H_    0.963029 0.703601 0.681641 0.387011
S2    S     S_3+6 0.854183 0.272411 0.397814 0.020904
O12   O     O_2   0.840935 0.178867 0.362062 -0.293812
O13   O     O_2   0.758148 0.330477 0.351518 -0.333609
O14   O     O_3   0.996334 0.309742 0.368868 -0.512488
H26   H     H_    0.995732 0.315680 0.299202 0.381638
S3    S     S_3+6 0.850805 0.664724 0.406968 0.038585
O15   O     O_2   0.775663 0.633243 0.324752 -0.289811
O16   O     O_2   0.764138 0.698872 0.482363 -0.338249
O17   O     O_3   0.937243 0.750205 0.367945 -0.538170
H27   H     H_    0.918519 0.800418 0.411140 0.392258
S4    S     S_3+6 0.151347 0.327739 0.574866 0.048983
O18   O     O_2   0.228944 0.297917 0.492173 -0.279205
O19   O     O_2   0.236039 0.351681 0.654711 -0.325931
O20   O     O_3   0.066009 0.240148 0.609494 -0.514741
H28   H     H_    0.071879 0.238441 0.679254 0.371391

loop_
_geom_bond_atom_site_label_1
_geom_bond_atom_site_label_2
_geom_bond_distance
_ccdc_geom_bond_type
C38   H20   1.081013 S    
C31   C33   1.402387 A    
C40   C42   1.406000 A    
S1    O9    1.502248 D    
O5    C3    1.279950 A    
C5    C15   1.396562 A    
O1    C1    1.285549 A    
C36   C44   1.409175 A    
C17   C19   1.413332 A    
C10   C12   1.405087 A    
S2    O13   1.501669 D    
Zn1   N2    2.001848 S    
C9    C22   1.484886 S    
S4    O20   1.681556 S    
C13   C15   1.393981 A    
O4    Zn1   2.003719 S    
C10   C21   1.482732 S    
N1    C39   1.363993 A    
C24   C26   1.380011 A    
C4    C19   1.428912 S    
C35   H17   1.082231 S    
C36   H18   1.082223 S    
H2    C16   1.082284 S    
C27   C29   1.398552 A    
S4    O19   1.503449 D    
C28   C30   1.396780 A    
C29   C31   1.380067 A    
C8    S2    1.772322 S    
C33   C34   1.455288 S    
C20   C22   1.409385 A    
C23   H9    1.081822 S    
C1    C27   1.441756 S    
O2    C2    1.286175 A    
C24   H10   1.082131 S    
S1    O10   1.503165 D    
C30   H14   1.082948 S    
C25   H11   1.083266 S    
C11   C13   1.394986 A    
C26   H12   1.083461 S    
C39   C41   1.406046 A    
C14   C16   1.393276 A    
O11   H25   0.990383 S    
C23   C33   1.401972 A    
C40   H22   1.079566 S    
C24   C34   1.404226 A    
S3    O15   1.501630 D    
C39   H21   1.080477 S    
C36   C38   1.406133 A    
S2    O12   1.503396 D    
C37   H19   1.080252 S    
S2    O14   1.681033 S    
C5    C7    1.404576 A    
C32   C34   1.402102 A    
C29   H13   1.082853 S    
C3    C20   1.425903 S    
O7    Zn2   2.004825 S    
S3    O16   1.500435 D    
C6    C16   1.397091 A    
C18   S4    1.801413 S    
O20   H28   0.990496 S    
C25   C27   1.397690 A    
O6    C4    1.277841 A    
S4    O18   1.499777 D    
C2    C28   1.435557 S    
O7    C3    1.278509 A    
O3    Zn2   2.003719 S    
O8    C4    1.282548 A    
O4    C2    1.282197 A    
C7    S1    1.772231 S    
C12   C14   1.394583 A    
C31   H15   1.082404 S    
Zn2   N1    2.001848 S    
C8    C10   1.418177 A    
O1    Zn1   2.004795 S    
S1    O11   1.679914 S    
O6    Zn2   2.010628 S    
C6    C8    1.403997 A    
C18   C21   1.396389 A    
C42   C44   1.409399 A    
C42   H24   1.082232 S    
O3    C1    1.285880 A    
O8    Zn1   2.004824 S    
C11   H5    1.083376 S    
C26   C28   1.396059 A    
C12   H6    1.083371 S    
C7    C9    1.416317 A    
C17   C22   1.395299 A    
C13   H7    1.082365 S    
S3    O17   1.682405 S    
C14   H8    1.082333 S    
C38   N2    1.363242 A    
C35   C43   1.408653 A    
C37   N1    1.363851 A    
C18   C20   1.410025 A    
C5    H3    1.080637 S    
C32   H16   1.081963 S    
C6    H4    1.082156 S    
C9    C11   1.405831 A    
O17   H27   0.990627 S    
O2    Zn2   2.004795 S    
C43   C44   1.509267 S    
C35   C37   1.406109 A    
O5    Zn1   2.010629 S    
C19   C21   1.410429 A    
C41   H23   1.082186 S    
C23   C25   1.378122 A    
N2    C40   1.362571 A    
O14   H26   0.990336 S    
C41   C43   1.408849 A    
H1    C15   1.082383 S    
C30   C32   1.378411 A    
C17   S3    1.799962 S    
