data_mof_unit_41106.cif
_audit_creation_date              2012-10-26T19:28:26-0400
_audit_creation_method            fapswitch 2.2
_symmetry_space_group_name_H-M    P1
_symmetry_Int_Tables_number       1
_space_group_crystal_system       triclinic
_cell_length_a                    14.744758
_cell_length_b                    14.491736
_cell_length_c                    14.347614
_cell_angle_alpha                 77.343169
_cell_angle_beta                  102.303444
_cell_angle_gamma                 114.254076
_cell_volume                      2700.99854095

loop_
_atom_site_label
_atom_site_type_symbol
_atom_type_description
_atom_site_fract_x
_atom_site_fract_y
_atom_site_fract_z
_atom_type_partial_charge
C1    C     C_R   0.880907 0.311324 0.510224 0.535663
C2    C     C_R   0.493887 0.128994 0.474133 -0.144216
C3    C     C_R   0.607991 0.897317 0.506332 -0.137672
C4    C     C_R   0.392509 0.103770 0.472965 -0.145266
C5    C     C_R   0.696278 0.627442 0.314291 -0.033524
C6    C     C_R   0.268944 0.314221 0.649435 -0.039651
C7    C     C_R   0.784821 0.612626 0.352663 0.053861
C8    C     C_R   0.193609 0.353910 0.623424 0.053625
C9    C     C_R   0.721634 0.524452 0.498730 0.013201
C10   C     C_R   0.289467 0.490647 0.516079 0.017278
C11   C     C_R   0.623502 0.522919 0.461508 -0.019601
C12   C     C_R   0.119172 0.688864 0.486905 0.537082
C13   C     C_R   0.363841 0.449117 0.528684 -0.017879
C14   C     C_R   0.614294 0.581117 0.368664 0.030341
C15   C     C_R   0.356222 0.364535 0.601993 0.015437
C16   C     C_R   0.999848 0.499668 0.668925 0.546296
C17   C     C_R   0.999429 0.499216 0.331179 0.529465
C18   C     C_R   0.535137 0.467014 0.510796 0.006010
C19   C     C_R   0.445796 0.489792 0.472884 0.012635
C20   C     C_R   0.439777 0.546792 0.377950 -0.017065
C21   C     C_R   0.527343 0.383746 0.590383 -0.014038
C22   C     C_R   0.523331 0.590422 0.329707 -0.123619
C23   C     C_R   0.639271 0.077244 0.495471 0.026174
C24   C     C_R   0.436157 0.332164 0.628273 -0.116101
C25   C     C_1   0.999525 0.499102 0.771323 -0.055577
C26   C     C_1   0.998720 0.498341 0.228890 -0.065647
C27   C     C_1   0.999201 0.498657 0.856770 -0.055379
C28   C     C_1   0.998533 0.498011 0.143517 -0.060190
C29   C     C_1   0.998880 0.498252 0.957462 -0.013192
C30   C     C_1   0.998669 0.498042 0.042884 -0.015300
C31   C     C_R   0.814193 0.201840 0.507251 -0.008186
C32   C     C_R   0.186094 0.798850 0.482379 -0.003750
C33   C     C_R   0.777848 0.021730 0.510120 -0.123584
C34   C     C_R   0.360636 0.923666 0.483230 0.026705
C35   C     C_R   0.224292 0.979404 0.478811 -0.124770
C36   C     C_R   0.848269 0.122746 0.508498 -0.011987
C37   C     C_R   0.153521 0.878733 0.482381 -0.011505
C38   C     C_R   0.710638 0.177448 0.498890 -0.157915
C39   C     C_R   0.288586 0.823339 0.481360 -0.148668
C40   C     C_3   0.344698 0.554371 0.315176 -0.264095
C41   C     C_3   0.350623 0.665601 0.296937 -0.302015
C42   C     C_3   0.250133 0.673137 0.252284 -0.444906
C43   C     C_3   0.612023 0.345058 0.635423 -0.265452
C44   C     C_3   0.586355 0.241209 0.702463 -0.314626
C45   C     C_R   0.675012 0.998701 0.503977 0.037539
C46   C     C_3   0.679030 0.214288 0.738233 -0.443720
C47   C     C_3   0.046005 0.863290 0.485182 -0.236318
C48   C     C_3   0.989110 0.869749 0.382684 -0.285049
C49   C     C_3   0.885651 0.869371 0.383179 -0.460991
C50   C     C_3   0.956117 0.141690 0.502485 -0.241429
C51   C     C_3   0.982849 0.192130 0.400773 -0.272876
C52   C     C_3   0.091885 0.213981 0.394397 -0.444434
C53   C     C_3   0.691909 0.688343 0.213847 -0.278809
C54   C     C_3   0.639683 0.617133 0.137040 -0.293142
C55   C     C_3   0.631026 0.678092 0.036669 -0.451834
C56   C     C_R   0.325905 0.002237 0.478654 0.034280
C57   C     C_3   0.257039 0.219121 0.725516 -0.280830
C58   C     C_3   0.158339 0.169704 0.769499 -0.310297
C59   C     C_3   0.156333 0.075797 0.843638 -0.447769
C60   C     C_R   0.533799 0.052724 0.486242 0.034716
C61   C     C_R   0.465887 0.948306 0.489438 0.035413
C62   C     C_R   0.505780 0.872141 0.500800 -0.139760
Cu1   Cu    Cu3+1 0.081740 0.475690 0.523180 0.892286
Cu2   Cu    Cu3+1 0.918260 0.524310 0.476820 0.894697
H1    H     H_    0.634926 0.836388 0.513966 0.107776
H2    H     H_    0.428168 0.267097 0.683056 0.104211
H3    H     H_    0.297760 0.563531 0.473071 0.131481
H4    H     H_    0.743607 0.500210 0.572233 0.119677
H5    H     H_    0.125150 0.318252 0.655331 0.131636
H6    H     H_    0.846019 0.641909 0.310390 0.126155
H7    H     H_    0.219406 0.634995 0.186824 0.160473
H8    H     H_    0.196653 0.637451 0.305617 0.177584
H9    H     H_    0.260192 0.754869 0.231778 0.139643
H10   H     H_    0.376434 0.698898 0.365102 0.151942
H11   H     H_    0.406328 0.713581 0.247017 0.155567
H12   H     H_    0.365932 0.164747 0.466730 0.113883
H13   H     H_    0.274211 0.498497 0.341543 0.152376
H14   H     H_    0.338500 0.531578 0.244132 0.134053
H15   H     H_    0.711204 0.210145 0.677022 0.161377
H16   H     H_    0.737216 0.272752 0.780873 0.154419
H17   H     H_    0.657889 0.138731 0.784985 0.144489
H18   H     H_    0.559293 0.244848 0.767682 0.154465
H19   H     H_    0.527649 0.179514 0.663751 0.172664
H20   H     H_    0.644927 0.337421 0.576351 0.149993
H21   H     H_    0.667345 0.401467 0.681597 0.141308
H22   H     H_    0.844180 0.868200 0.308949 0.135579
H23   H     H_    0.310316 0.762148 0.477755 0.115989
H24   H     H_    0.841786 0.801271 0.431131 0.162784
H25   H     H_    0.893742 0.939771 0.408264 0.145402
H26   H     H_    0.032269 0.941668 0.338074 0.155583
H27   H     H_    0.980678 0.804525 0.348460 0.174456
H28   H     H_    0.006758 0.791031 0.531099 0.172260
H29   H     H_    0.045743 0.924234 0.520654 0.118537
H30   H     H_    0.104368 0.141394 0.409668 0.136960
H31   H     H_    0.109143 0.251805 0.320578 0.140308
H32   H     H_    0.143452 0.265463 0.446575 0.171651
H33   H     H_    0.933222 0.140261 0.347943 0.150470
H34   H     H_    0.687402 0.238762 0.497102 0.122212
H35   H     H_    0.970807 0.265055 0.379924 0.188895
H36   H     H_    0.008275 0.187245 0.558246 0.157553
H37   H     H_    0.967681 0.068328 0.519174 0.115050
H38   H     H_    0.585356 0.723743 0.033663 0.150048
H39   H     H_    0.706732 0.730247 0.018056 0.152102
H40   H     H_    0.593819 0.624772 0.982595 0.145342
H41   H     H_    0.683820 0.570504 0.137637 0.166186
H42   H     H_    0.563251 0.563843 0.152586 0.162198
H43   H     H_    0.655279 0.742682 0.210091 0.135781
H44   H     H_    0.769229 0.737304 0.197101 0.125056
H45   H     H_    0.803014 0.960204 0.514514 0.093452
H46   H     H_    0.162517 0.017424 0.809174 0.151450
H47   H     H_    0.219237 0.097577 0.903391 0.151537
H48   H     H_    0.084399 0.041740 0.874135 0.142279
H49   H     H_    0.150250 0.225561 0.806027 0.159719
H50   H     H_    0.093655 0.145022 0.711966 0.145537
H51   H     H_    0.263364 0.160122 0.691899 0.141560
H52   H     H_    0.319684 0.240389 0.785704 0.145280
H53   H     H_    0.199954 0.040960 0.476957 0.093938
H54   H     H_    0.460626 0.791521 0.507333 0.096964
H55   H     H_    0.538350 0.209722 0.465486 0.111175
H56   H     H_    0.514724 0.630896 0.257825 0.112547
N1    N     N_R   0.795420 0.560790 0.441960 -0.239139
N2    N     N_R   0.204580 0.439210 0.558040 -0.240899
O1    O     O_R   0.977910 0.338120 0.530560 -0.509163
O2    O     O_R   0.022090 0.661880 0.469440 -0.501256
O3    O     O_R   0.839850 0.379180 0.491410 -0.494276
O4    O     O_R   0.160150 0.620820 0.508590 -0.500727
O5    O     O_R   0.069040 0.479460 0.643530 -0.475186
O6    O     O_R   0.930960 0.520540 0.356470 -0.484409
O7    O     O_R   0.930990 0.520530 0.604380 -0.487158
O8    O     O_R   0.069010 0.479470 0.395620 -0.488870

loop_
_geom_bond_atom_site_label_1
_geom_bond_atom_site_label_2
_ccdc_geom_bond_type
C51   H33   S    
C11   C18   A    
C34   C56   A    
C23   C45   A    
C27   C29   S    
C18   C21   A    
C33   C45   A    
C41   C42   S    
C19   C20   A    
C6    C57   S    
C39   H23   S    
C38   H34   S    
C44   H19   S    
C59   H46   S    
C7    H6    S    
C4    C56   A    
C57   H51   S    
C53   C54   S    
C22   H56   S    
C55   H38   S    
C8    H5    S    
C17   C26   S    
C5    C53   S    
C35   C37   A    
C1    O3    A    
C44   H18   S    
C46   H15   S    
C20   C40   S    
C11   C14   A    
C2    C60   A    
Cu1   O8    S    
C12   O4    A    
Cu2   N1    S    
C55   H39   S    
C1    C31   S    
C33   C36   A    
C52   H31   S    
C18   C19   A    
C47   H28   S    
C32   C39   A    
C6    C15   A    
C21   C43   S    
Cu2   O6    S    
C48   H27   S    
C58   H49   S    
C9    N1    A    
C52   H30   S    
C37   C47   S    
C24   H2    S    
C41   H10   S    
C48   H26   S    
C12   C32   S    
C43   H20   S    
C49   H24   S    
C3    H1    S    
C7    N1    A    
C44   C46   S    
C50   C51   S    
C57   H52   S    
C51   H35   S    
C23   C60   A    
C62   H54   S    
C54   H42   S    
C34   C39   A    
C43   H21   S    
C5    C7    A    
C13   C19   A    
C6    C8    A    
C58   C59   S    
Cu2   O2    S    
C55   H40   S    
C3    C45   A    
C34   C61   A    
C51   C52   S    
C60   C61   A    
C2    C4    A    
C43   C44   S    
C1    O1    A    
C29   C30   T    
C41   H11   S    
C46   H17   S    
C53   H43   S    
C59   H47   S    
C47   C48   S    
C12   O2    A    
C42   H8    S    
C59   H48   S    
C47   H29   S    
C32   C37   A    
C16   O7    A    
C9    C11   A    
C5    C14   A    
C15   C24   A    
C20   C22   A    
C13   C15   A    
C40   H14   S    
C35   H53   S    
C33   H45   S    
Cu1   N2    S    
C36   C50   S    
C3    C62   A    
C16   C25   S    
C54   C55   S    
C48   C49   S    
C42   H9    S    
C54   H41   S    
C17   O8    A    
C31   C36   A    
C50   H36   S    
C49   H22   S    
C49   H25   S    
C10   N2    A    
C10   C13   A    
C35   C56   A    
Cu1   O1    S    
C2    H55   S    
C17   O6    A    
C25   C27   T    
C23   C38   A    
C26   C28   T    
C31   C38   A    
C14   C22   A    
C28   C30   S    
C9    H4    S    
C10   H3    S    
C46   H16   S    
C53   H44   S    
C8    N2    A    
C57   C58   S    
C42   H7    S    
C52   H32   S    
C61   C62   A    
C16   O5    A    
C4    H12   S    
Cu1   O4    S    
Cu1   Cu2   S    
Cu2   O7    S    
C50   H37   S    
Cu2   O3    S    
C21   C24   A    
C58   H50   S    
C40   H13   S    
C40   C41   S    
Cu1   O5    S    
