data_mof_unit_47098.cif
_audit_creation_date              2013-03-05T16:04:54-0500
_audit_creation_method            fapswitch 2.2
_symmetry_space_group_name_H-M    P1
_symmetry_Int_Tables_number       1
_space_group_crystal_system       triclinic
_cell_length_a                    8.56005
_cell_length_b                    14.747878
_cell_length_c                    18.878121
_cell_angle_alpha                 98.121755
_cell_angle_beta                  90.634788
_cell_angle_gamma                 93.184381
_cell_volume                      2355.24424074

loop_
_atom_site_label
_atom_site_type_symbol
_atom_site_description
_atom_site_fract_x
_atom_site_fract_y
_atom_site_fract_z
_atom_type_partial_charge
P1    P     P_3+3 0.061800 0.409390 0.339760 0.470854
O1    O     O_2   0.887710 0.436190 0.327560 -0.358213
O2    O     O_3   0.135370 0.443490 0.416520 -0.377012
O3    O     O_3   0.634420 0.609440 0.364670 -0.405287
O4    O     O_2   0.743741 0.526602 0.246941 -0.392209
O5    O     O_3   0.053116 0.289175 0.323738 -0.620133
O6    O     O_3   0.659706 0.694203 0.241932 -0.513919
H1    H     H_    0.764585 0.756368 0.336703 0.175744
C1    C     C_3   0.698705 0.859753 0.273036 -0.562791
H2    H     H_    0.816825 0.862969 0.251373 0.199667
P2    P     P_3+3 0.622760 0.718740 0.547830 0.474440
P3    P     P_3+3 0.087571 0.777037 0.389515 0.553144
O7    O     O_2   0.795290 0.730930 0.525800 -0.315456
O8    O     O_3   0.044470 0.660110 0.398750 -0.258530
O9    O     O_2   0.962960 0.827326 0.435976 -0.356889
O10   O     O_3   0.625843 0.746002 0.641389 -0.624210
O11   O     O_3   0.042355 0.807509 0.303774 -0.583372
C2    C     C_3   0.100483 0.754741 0.240960 0.309904
C3    C     C_3   0.079037 0.807869 0.176287 -0.819973
C4    C     C_3   0.243249 0.763932 0.656270 0.154622
C5    C     C_3   0.280435 0.856068 0.708593 -0.452923
Ba1   Ba    Ba6+2 0.843240 0.541620 0.463500 1.641723
C6    C     C_3   0.968437 0.249565 0.374969 0.245469
H3    H     H_    0.866183 0.289347 0.391600 0.094550
C7    C     C_3   0.907856 0.153094 0.342916 -0.525415
C8    C     C_3   0.764481 0.724821 0.674641 0.357679
C9    C     C_3   0.752535 0.761172 0.755215 -0.619801
P4    P     P_3+3 0.127890 0.590690 0.660240 0.550182
O12   O     O_2   0.301980 0.563840 0.672490 -0.322894
O13   O     O_3   0.054330 0.556590 0.583490 -0.300653
O14   O     O_3   0.555270 0.390630 0.635330 -0.339742
O15   O     O_3   0.127454 0.710568 0.685842 -0.609877
P5    P     P_3+3 0.115083 0.224097 0.608549 0.408099
O16   O     O_3   0.637720 0.384870 0.467990 -0.357180
O17   O     O_3   0.145220 0.339960 0.601250 -0.420024
O18   O     O_2   0.235457 0.174727 0.558514 -0.368048
O19   O     O_3   0.171238 0.201642 0.694862 -0.589983
Ba2   Ba    Ba6+2 0.346570 0.458460 0.536510 1.635572
P6    P     P_3+3 0.610115 0.588492 0.272012 0.478011
C10   C     C_3   0.667985 0.766557 0.299793 0.240553
O20   O     O_3   0.551980 0.615210 0.532020 -0.338853
C11   C     C_3   0.458933 0.261923 0.322829 0.199231
H4    H     H_    0.341211 0.239788 0.340519 0.132393
C12   C     C_3   0.475290 0.226367 0.242841 -0.577346
P7    P     P_3+3 0.570984 0.266968 0.452432 0.447219
O21   O     O_2   0.394410 0.269100 0.474240 -0.365616
O22   O     O_3   0.575808 0.225197 0.360938 -0.573063
C13   C     C_3   0.103731 0.253510 0.755320 0.243135
C14   C     C_3   0.119061 0.196518 0.818829 -0.445976
H5    H     H_    0.055020 0.129224 0.803538 0.284516
P8    P     P_3+3 0.576785 0.409159 0.728355 0.509363
C15   C     C_3   0.537152 0.231890 0.705515 0.380669
O23   O     O_2   0.449163 0.474109 0.755214 -0.356477
O24   O     O_3   0.522150 0.306177 0.760274 -0.538864
H6    H     H_    0.450449 0.234366 0.661952 0.161014
C16   C     C_3   0.510419 0.139993 0.734394 -0.687665
C17   C     C_R   0.002175 0.451531 0.046763 0.009968
C18   C     C_R   0.916685 0.401188 0.092831 0.051485
C19   C     C_R   0.767540 0.360745 0.069327 -0.131865
C20   C     C_R   0.704315 0.371190 0.002693 -0.137638
C21   C     C_R   0.790067 0.418786 0.955682 0.081292
C22   C     C_R   0.939805 0.458239 0.977088 0.002991
C23   C     C_R   0.729564 0.424608 0.886902 -0.165897
C24   C     C_R   0.820280 0.464076 0.835863 -0.036702
C25   C     C_R   0.971638 0.502866 0.856443 0.049425
C26   C     C_R   0.029309 0.500938 0.927734 0.010386
C27   C     C_R   0.767060 0.463792 0.764258 0.248240
C28   C     C_R   0.862765 0.502818 0.715747 -0.434152
C29   C     C_R   0.014555 0.538726 0.732807 0.135799
C30   C     C_R   0.067290 0.542043 0.805629 -0.050632
C31   C     C_R   0.153395 0.489764 0.068111 -0.027607
C32   C     C_R   0.214720 0.485953 0.138704 0.058242
C33   C     C_R   0.121526 0.441665 0.188464 -0.032808
C34   C     C_R   0.980723 0.390715 0.160793 -0.087086
H7    H     H_    0.612189 0.396368 0.873582 0.199187
C35   C     C_R   0.214200 0.581149 0.829287 -0.023325
C36   C     C_R   0.274672 0.572633 0.897083 0.151394
C37   C     C_R   0.181408 0.535748 0.947953 0.046680
C38   C     C_R   0.243969 0.530065 0.017574 0.002940
C39   C     C_R   0.432078 0.594082 0.912575 -0.140946
C40   C     C_R   0.494714 0.587286 0.978928 -0.158858
C41   C     C_R   0.400842 0.559757 0.034198 0.085999
C42   C     C_R   0.370042 0.524545 0.158397 -0.086334
C43   C     C_R   0.464292 0.557214 0.103454 -0.146990
C44   C     C_R   0.422621 0.527884 0.231719 0.258635
C45   C     C_R   0.325127 0.489805 0.280330 -0.389014
C46   C     C_R   0.175446 0.449873 0.262481 0.253622
H8    H     H_    0.510895 0.610208 0.872160 0.161451
C47   C     C_R   0.684208 0.951204 0.550249 -0.086800
C48   C     C_R   0.516688 0.803878 0.500509 0.056607
C49   C     C_R   0.384811 0.767244 0.457201 -0.456850
C50   C     C_R   0.282379 0.824752 0.429003 0.248432
C51   C     C_R   0.320531 0.918978 0.436501 -0.263226
C52   C     C_R   0.456767 0.958656 0.473816 0.123672
C53   C     C_R   0.554816 0.903217 0.509044 -0.051074
C54   C     C_R   0.629388 0.098689 0.510997 -0.045910
C55   C     C_R   0.720666 0.047797 0.552620 0.016453
C56   C     C_R   0.677274 0.192772 0.506770 0.163608
C57   C     C_R   0.821934 0.229733 0.537975 -0.452855
C58   C     C_R   0.914899 0.178196 0.576186 0.114198
C59   C     C_R   0.854198 0.094068 0.592107 -0.157693
C60   C     C_R   0.494332 0.053958 0.475234 -0.003616
C61   C     C_2   0.348952 0.839103 0.779334 0.633467
H9    H     H_    0.454637 0.877666 0.801225 0.000386
O25   O     O_2   0.281876 0.787561 0.815703 -0.593872
C62   C     C_2   0.398161 0.917258 0.675510 0.312825
H10   H     H_    0.521892 0.910249 0.683165 0.072038
O26   O     O_2   0.356166 0.974301 0.639324 -0.592581
C63   C     C_2   0.134766 0.907889 0.725632 0.697105
H11   H     H_    0.027142 0.888336 0.695717 -0.023635
O27   O     O_2   0.136939 0.972970 0.773458 -0.593633
H12   H     H_    0.048676 0.243471 0.420418 0.101341
H13   H     H_    0.819042 0.157386 0.300391 0.233175
H14   H     H_    0.852307 0.118256 0.385381 0.170833
C64   C     C_2   0.036932 0.097551 0.310829 0.592657
H15   H     H_    0.035717 0.074202 0.253760 0.076567
O28   O     O_2   0.145104 0.080170 0.348248 -0.649355
H16   H     H_    0.868489 0.758057 0.653207 0.097057
H17   H     H_    0.775371 0.650367 0.665702 0.099147
C65   C     C_2   0.697447 0.936996 0.334297 0.380002
H18   H     H_    0.772698 0.936252 0.380765 0.107381
O29   O     O_2   0.615144 0.001617 0.332375 -0.592109
H19   H     H_    0.735677 0.835991 0.760301 0.143332
C66   C     C_2   0.895260 0.749917 0.799545 0.555637
H20   H     H_    0.002281 0.787030 0.790803 0.119980
O30   O     O_2   0.890211 0.704998 0.849218 -0.575131
C67   C     C_2   0.613308 0.717753 0.786388 0.644093
H21   H     H_    0.577792 0.745515 0.839682 0.040760
O31   O     O_2   0.540626 0.651846 0.753022 -0.572687
H22   H     H_    0.559617 0.769022 0.330947 0.089690
C68   C     C_2   0.585470 0.872824 0.214334 0.942127
H23   H     H_    0.467290 0.890823 0.227260 -0.097366
O32   O     O_2   0.626674 0.865538 0.152183 -0.520393
H24   H     H_    0.473526 0.338102 0.331083 0.083183
C69   C     C_2   0.461387 0.123456 0.228807 0.808320
H25   H     H_    0.358549 0.086233 0.245358 -0.009465
O33   O     O_2   0.565357 0.081044 0.198102 -0.539463
C70   C     C_2   0.353811 0.262611 0.198648 0.436176
H26   H     H_    0.231580 0.251549 0.210226 0.106138
O34   O     O_2   0.391482 0.303178 0.148853 -0.579407
H27   H     H_    0.591998 0.249878 0.225749 0.205396
H28   H     H_    0.133964 0.771513 0.127912 0.196298
C71   C     C_2   0.193253 0.344275 0.771257 0.496699
H29   H     H_    0.195519 0.389683 0.731114 0.082466
O35   O     O_2   0.263176 0.368359 0.828112 -0.615595
C72   C     C_2   0.935114 0.272681 0.743432 0.355797
H30   H     H_    0.902897 0.309301 0.700203 0.001657
O36   O     O_2   0.834171 0.251988 0.784070 -0.568452
C73   C     C_2   0.058581 0.239269 0.890098 0.687691
H31   H     H_    0.114723 0.301521 0.918797 0.034060
O37   O     O_2   0.948099 0.202312 0.917423 -0.489520
H32   H     H_    0.243216 0.182944 0.827329 0.136782
H33   H     H_    0.653594 0.234119 0.680714 0.073123
H34   H     H_    0.569669 0.086960 0.698755 0.233418
H35   H     H_    0.384655 0.118906 0.731976 0.234367
C74   C     C_2   0.009220 0.664644 0.223749 0.588009
H36   H     H_    0.947532 0.645511 0.172927 0.030728
O38   O     O_2   0.009396 0.609624 0.265740 -0.516574
C75   C     C_2   0.565588 0.141670 0.810519 0.889001
H37   H     H_    0.526220 0.192915 0.852495 0.010876
O39   O     O_2   0.652665 0.084478 0.826129 -0.507278
H38   H     H_    0.695940 0.322813 0.103231 0.165486
H39   H     H_    0.588849 0.340240 0.987401 0.156992
H40   H     H_    0.815291 0.508075 0.663891 0.212247
C76   C     C_2   0.912979 0.313254 0.193921 0.579082
H41   H     H_    0.819851 0.323488 0.231457 0.039947
O40   O     O_2   0.951071 0.235435 0.173778 -0.563847
H42   H     H_    0.285530 0.616092 0.794559 0.217407
H43   H     H_    0.619510 0.601907 0.984473 0.178268
C77   C     C_2   0.633446 0.581870 0.113066 0.606206
H44   H     H_    0.711870 0.531369 0.124563 0.019302
O41   O     O_2   0.686831 0.658084 0.104515 -0.549858
C78   C     C_2   0.270205 0.735911 0.245160 0.328548
H45   H     H_    0.348062 0.746675 0.201924 0.043049
O42   O     O_2   0.318348 0.697845 0.292888 -0.658481
H46   H     H_    0.368307 0.490272 0.334347 0.129297
C79   C     C_2   0.345439 0.667749 0.443743 0.761541
H47   H     H_    0.371473 0.628982 0.393777 0.026404
O43   O     O_2   0.275248 0.628625 0.487355 -0.513295
H48   H     H_    0.241105 0.961807 0.413820 0.204026
C80   C     C_2   0.926593 0.061974 0.654905 0.525354
H49   H     H_    0.049671 0.048654 0.654669 0.128916
O44   O     O_2   0.849074 0.049719 0.706831 -0.582196
C81   C     C_2   0.873943 0.325710 0.535725 0.687259
H50   H     H_    0.964021 0.345520 0.500804 0.020048
O45   O     O_2   0.823500 0.385435 0.578231 -0.586127
C82   C     C_2   0.791957 0.903074 0.588560 0.603972
H51   H     H_    0.762656 0.889477 0.641243 0.000869
O46   O     O_2   0.924681 0.894146 0.567423 -0.593809
H52   H     H_    0.419501 0.092225 0.445348 0.184599
H53   H     H_    0.953682 0.809728 0.161489 0.261095
C83   C     C_2   0.149107 0.904479 0.189870 0.698512
H54   H     H_    0.198167 0.932793 0.242064 0.025239
O47   O     O_2   0.150391 0.952204 0.142049 -0.526706
H55   H     H_    0.350513 0.726493 0.646513 0.157255
C84   C     C_2   0.179811 0.785285 0.586900 0.504431
H56   H     H_    0.217269 0.847171 0.566206 0.059101
O48   O     O_2   0.081896 0.733621 0.553046 -0.445583

loop_
_geom_bond_atom_site_label_1
_geom_bond_atom_site_label_2
_geom_bond_distance
_ccdc_geom_bond_type
P1    C46   1.908975 S    
C76   H41   1.075207 S    
C54   C60   1.414089 A    
C33   C34   1.436908 A    
P4    C29   1.910158 S    
P5    O18   1.547467 D    
C31   C38   1.410672 A    
C40   C41   1.414633 A    
C48   C49   1.421851 A    
C2    C74   1.496161 S    
C17   C22   1.432484 A    
C36   C37   1.404224 A    
C6    H12   1.109776 S    
C8    C9    1.546184 S    
C51   C52   1.410013 A    
C77   O41   1.222322 D    
P4    O12   1.585821 D    
C2    C3    1.555483 S    
C16   C75   1.504169 S    
C43   C77   1.476065 S    
P7    C56   1.866683 S    
C73   O37   1.220888 D    
C75   H37   1.085200 S    
Ba1   O20   3.007082 S    
C62   H10   1.079976 S    
C64   H15   1.083462 S    
Ba1   Ba2   4.637611 S    
C80   H49   1.082327 S    
C84   H56   1.076771 S    
C20   H39   1.083942 S    
C81   H50   1.074783 S    
O13   Ba2   3.037706 S    
C71   O35   1.221006 D    
P1    O1    1.585424 D    
C1    C68   1.504029 S    
C21   C23   1.408230 A    
C33   C46   1.453218 A    
C63   O27   1.220462 D    
C60   H52   1.081320 S    
C9    C67   1.487938 S    
C42   C43   1.440627 A    
O2    Ba2   2.858646 S    
C15   O24   1.408532 S    
C28   C29   1.392304 A    
C64   O28   1.218673 D    
C13   C72   1.506556 S    
O12   Ba2   2.847998 S    
O1    Ba1   2.847510 S    
C6    H3    1.104556 S    
C75   O39   1.220283 D    
P2    O20   1.597464 S    
C40   H43   1.078975 S    
C69   H25   1.083871 S    
C1    H2    1.095972 S    
C4    H55   1.101457 S    
C5    C62   1.513977 S    
C15   H6    1.107459 S    
C3    C83   1.501323 S    
C12   C69   1.501149 S    
C80   O44   1.218632 D    
C19   C20   1.395676 A    
C76   O40   1.220269 D    
C78   H45   1.082812 S    
C47   C82   1.442435 S    
C29   C30   1.435580 A    
C11   C12   1.537490 S    
C16   H35   1.102483 S    
C26   C37   1.401334 A    
O16   Ba2   3.006279 S    
C51   H48   1.078068 S    
C65   O29   1.220540 D    
C72   O36   1.216510 D    
C35   C36   1.399900 A    
P7    O22   1.751661 S    
O10   C8    1.407158 S    
Ba1   O16   2.837802 S    
Ba2   O21   2.925518 S    
C22   C26   1.406991 A    
C15   C16   1.537345 S    
P1    O5    1.753168 S    
C7    H14   1.109236 S    
C24   C27   1.421039 A    
P4    O15   1.765957 S    
O17   Ba2   2.798946 S    
C8    H17   1.096468 S    
Ba2   O20   2.837261 S    
C16   H34   1.106603 S    
C49   C50   1.404048 A    
C9    H19   1.111586 S    
C45   C46   1.397343 A    
C32   C33   1.441364 A    
C79   O43   1.215907 D    
C18   C19   1.417965 A    
C44   C45   1.401622 A    
C1    C10   1.540244 S    
P5    O19   1.774417 S    
C27   C28   1.397946 A    
C13   C71   1.495571 S    
C54   C56   1.438208 A    
C20   C21   1.397279 A    
P1    O2    1.577352 S    
C83   O47   1.220404 D    
C47   C53   1.439093 A    
C67   O31   1.216445 D    
C7    H13   1.110253 S    
O3    Ba1   2.885920 S    
P2    O10   1.754712 S    
C57   C58   1.393098 A    
O3    P6    1.740854 S    
P4    Ba2   3.460966 S    
O6    C10   1.413281 S    
C54   C55   1.417537 A    
O11   C2    1.433417 S    
C52   C53   1.425721 A    
C61   O25   1.219259 D    
O16   P7    1.782598 S    
P8    C27   1.853890 S    
C17   C31   1.413902 A    
O19   C13   1.427841 S    
C57   C81   1.466595 S    
C78   O42   1.207150 D    
C70   O34   1.220556 D    
C84   O48   1.212881 D    
C13   C14   1.566713 S    
C42   C44   1.444103 A    
P3    O8    1.776469 S    
C79   H47   1.064302 S    
P3    O9    1.543368 D    
C41   C43   1.416397 A    
O4    P6    1.539950 D    
C30   C35   1.395602 A    
C14   H5    1.106300 S    
C11   H4    1.111435 S    
P6    C44   1.890736 S    
C68   H23   1.081848 S    
C59   C80   1.479307 S    
C65   H18   1.084249 S    
C18   C34   1.421359 A    
C66   O30   1.222006 D    
C72   H30   1.081567 S    
C4    O15   1.401165 S    
C36   C39   1.385240 A    
C69   O33   1.220712 D    
C10   H22   1.103410 S    
C74   H36   1.083819 S    
C12   C70   1.493855 S    
Ba1   O13   2.858063 S    
C14   H32   1.106458 S    
C37   C38   1.428894 A    
P3    C50   1.877647 S    
C8    H16   1.100989 S    
O14   P8    1.744772 S    
C39   C40   1.375917 A    
C68   O32   1.220774 D    
C48   C53   1.468954 A    
C38   C41   1.407116 A    
C5    C63   1.512514 S    
C9    C66   1.503217 S    
C3    H28   1.114317 S    
P2    Ba1   3.515535 S    
C81   O45   1.206828 D    
O14   Ba2   2.885210 S    
C14   C73   1.512530 S    
C11   H24   1.112021 S    
P5    C58   1.870545 S    
C83   H54   1.084760 S    
P8    O24   1.753394 S    
C7    C64   1.494622 S    
C71   H29   1.079530 S    
C15   H33   1.106732 S    
C28   H40   1.070334 S    
C82   H51   1.071716 S    
C39   H8    1.067106 S    
C19   H38   1.081670 S    
C73   H31   1.082599 S    
C24   C25   1.414419 A    
P3    O11   1.784009 S    
P2    O7    1.546494 D    
P2    C48   1.903849 S    
O8    Ba1   2.798351 S    
C17   C18   1.406864 A    
C62   O26   1.222353 D    
O5    C6    1.389292 S    
C49   C79   1.472763 S    
C74   O38   1.211883 D    
C50   C51   1.396691 A    
P5    O17   1.738859 S    
P4    O13   1.577155 S    
O7    Ba1   2.925190 S    
C35   H42   1.066577 S    
C45   H46   1.079775 S    
C11   O22   1.402208 S    
C25   C26   1.432990 A    
C21   C22   1.408544 A    
C23   H7    1.079122 S    
C82   O46   1.216206 D    
C32   C42   1.440505 A    
C70   H26   1.079498 S    
C23   C24   1.412451 A    
C5    C61   1.511082 S    
C2    C78   1.497538 S    
P7    O21   1.571772 D    
P1    Ba1   3.460485 S    
C6    C7    1.525487 S    
C31   C32   1.436536 A    
C4    C5    1.577683 S    
C52   C60   1.420749 A    
C56   C57   1.412680 A    
C77   H44   1.072595 S    
C47   C55   1.435628 A    
C61   H9    1.086653 S    
C1    C65   1.504880 S    
O6    P6    1.764972 S    
O2    Ba1   3.036901 S    
C58   C59   1.391719 A    
C12   H27   1.105745 S    
H1    C10   1.105660 S    
P8    O23   1.536020 D    
C25   C30   1.430344 A    
C63   H11   1.078769 S    
C4    C84   1.492920 S    
C34   C76   1.472669 S    
C55   C59   1.441741 A    
C67   H21   1.084663 S    
C3    H53   1.108606 S    
C66   H20   1.067345 S    
