data_mof_unit_5914.cif
_audit_creation_date              2013-03-05T15:44:36-0500
_audit_creation_method            fapswitch 2.2
_symmetry_space_group_name_H-M    P1
_symmetry_Int_Tables_number       1
_space_group_crystal_system       triclinic
_cell_length_a                    19.009792
_cell_length_b                    10.905349
_cell_length_c                    18.890351
_cell_angle_alpha                 90.103127
_cell_angle_beta                  90.168077
_cell_angle_gamma                 90.028925
_cell_volume                      3916.10504396

loop_
_atom_site_label
_atom_site_type_symbol
_atom_site_description
_atom_site_fract_x
_atom_site_fract_y
_atom_site_fract_z
_atom_type_partial_charge
O1    O     O_R   0.787540 0.042690 0.170470 -0.444713
O2    O     O_R   0.212460 0.042690 0.829530 -0.464922
O3    O     O_R   0.287540 0.542690 0.170470 -0.445443
O4    O     O_R   0.712460 0.542690 0.829530 -0.464298
O5    O     O_R   0.765660 0.292160 0.175050 -0.441565
O6    O     O_R   0.234340 0.292160 0.824950 -0.462252
O7    O     O_R   0.265660 0.792160 0.175050 -0.441459
O8    O     O_R   0.734340 0.792160 0.824950 -0.462514
C1    C     C_R   0.729588 0.374648 0.145167 0.551871
C2    C     C_R   0.271793 0.373682 0.855500 0.591830
C3    C     C_R   0.229603 0.874693 0.145183 0.551765
C4    C     C_R   0.771783 0.873677 0.855495 0.592170
O9    O     O_R   0.670190 0.408980 0.168550 -0.502081
O10   O     O_R   0.329810 0.408980 0.831450 -0.484886
O11   O     O_R   0.170190 0.908980 0.168550 -0.502470
O12   O     O_R   0.829810 0.908980 0.831450 -0.484154
O13   O     O_R   0.556580 0.251450 0.175160 -0.439117
O14   O     O_R   0.443420 0.251450 0.824840 -0.456545
O15   O     O_R   0.056580 0.751450 0.175160 -0.438994
O16   O     O_R   0.943420 0.751450 0.824840 -0.456280
C5    C     C_R   0.530483 0.156250 0.147157 0.586405
C6    C     C_R   0.467876 0.154899 0.854058 0.596679
C7    C     C_R   0.030499 0.656234 0.147147 0.586072
C8    C     C_R   0.967912 0.654909 0.854037 0.596167
O17   O     O_R   0.545920 0.049510 0.170320 -0.471600
O18   O     O_R   0.454080 0.049510 0.829680 -0.497503
O19   O     O_R   0.045920 0.549510 0.170320 -0.472114
O20   O     O_R   0.954080 0.549510 0.829680 -0.497847
O21   O     O_R   0.681390 0.957840 0.176710 -0.457496
O22   O     O_R   0.318610 0.957840 0.823290 -0.466019
O23   O     O_R   0.181390 0.457840 0.176710 -0.457218
O24   O     O_R   0.818610 0.457840 0.823290 -0.466247
C9    C     C_R   0.740306 0.970410 0.146897 0.570688
C10   C     C_R   0.259839 0.974087 0.854084 0.595407
C11   C     C_R   0.240322 0.470371 0.146910 0.570209
C12   C     C_R   0.759834 0.474068 0.854072 0.595815
O25   O     O_R   0.787500 0.044280 0.330990 -0.467101
O26   O     O_R   0.212500 0.044280 0.669010 -0.480947
O27   O     O_R   0.287500 0.544280 0.330990 -0.467077
O28   O     O_R   0.712500 0.544280 0.669010 -0.480888
O29   O     O_R   0.765610 0.293630 0.323860 -0.438347
O30   O     O_R   0.234390 0.293630 0.676140 -0.452174
O31   O     O_R   0.265610 0.793630 0.323860 -0.438299
O32   O     O_R   0.734390 0.793630 0.676140 -0.452179
C13   C     C_R   0.729762 0.377373 0.352786 0.562966
C14   C     C_R   0.272260 0.374163 0.645697 0.582378
C15   C     C_R   0.229762 0.877373 0.352786 0.562994
C16   C     C_R   0.772262 0.874160 0.645696 0.582422
O33   O     O_R   0.670140 0.410570 0.329080 -0.473182
O34   O     O_R   0.329860 0.410570 0.670920 -0.483848
O35   O     O_R   0.170140 0.910570 0.329080 -0.473182
O36   O     O_R   0.829860 0.910570 0.670920 -0.483763
O37   O     O_R   0.556540 0.252920 0.323970 -0.446479
O38   O     O_R   0.443460 0.252920 0.676030 -0.453815
O39   O     O_R   0.056540 0.752920 0.323970 -0.446392
O40   O     O_R   0.943460 0.752920 0.676030 -0.453859
C17   C     C_R   0.531802 0.158075 0.353200 0.595388
C18   C     C_R   0.463441 0.156192 0.643973 0.610837
C19   C     C_R   0.031802 0.658075 0.353200 0.595491
C20   C     C_R   0.963440 0.656192 0.643973 0.610678
O41   O     O_R   0.545870 0.051100 0.330840 -0.409044
O42   O     O_R   0.454130 0.051100 0.669160 -0.410828
O43   O     O_R   0.045870 0.551100 0.330840 -0.408977
O44   O     O_R   0.954130 0.551100 0.669160 -0.410867
O45   O     O_R   0.681340 0.959300 0.325510 -0.452137
O46   O     O_R   0.318660 0.959300 0.674490 -0.426980
O47   O     O_R   0.181340 0.459300 0.325510 -0.452082
O48   O     O_R   0.818660 0.459300 0.674490 -0.426931
C21   C     C_R   0.741139 0.970668 0.354335 0.558647
C22   C     C_R   0.259232 0.974809 0.644328 0.588255
C23   C     C_R   0.241139 0.470668 0.354335 0.558688
C24   C     C_R   0.759232 0.474809 0.644328 0.588330
Cr1   Cr    Cr6+3 0.772000 0.169640 0.250110 1.192959
Cr2   Cr    Cr6+3 0.228000 0.169640 0.749890 1.190600
Cr3   Cr    Cr6+3 0.272000 0.669640 0.250110 1.192706
Cr4   Cr    Cr6+3 0.728000 0.669640 0.749890 1.190996
Cr5   Cr    Cr6+3 0.614960 0.323350 0.249260 1.178768
Cr6   Cr    Cr6+3 0.385040 0.323350 0.750740 1.179937
Cr7   Cr    Cr6+3 0.114960 0.823350 0.249260 1.178548
Cr8   Cr    Cr6+3 0.885040 0.823350 0.750740 1.180421
Cr9   Cr    Cr6+3 0.616670 0.010620 0.250840 1.189054
Cr10  Cr    Cr6+3 0.383330 0.010620 0.749160 1.205540
Cr11  Cr    Cr6+3 0.116670 0.510620 0.250840 1.188980
Cr12  Cr    Cr6+3 0.883330 0.510620 0.749160 1.205495
O49   O     O_3   0.667880 0.167870 0.250070 -0.333607
O50   O     O_3   0.332120 0.167870 0.749930 -0.369298
O51   O     O_3   0.167880 0.667870 0.250070 -0.333651
O52   O     O_3   0.832120 0.667870 0.749930 -0.369420
H1    H     H_    0.477893 0.973356 0.069655 0.221059
H2    H     H_    0.468653 0.967473 0.944372 0.220643
H3    H     H_    0.978404 0.473112 0.069500 0.221671
H4    H     H_    0.969297 0.467291 0.944230 0.221116
C25   C     C_R   0.492915 0.160838 0.927809 0.050153
C26   C     C_R   0.498606 0.168320 0.076359 0.027348
C27   C     C_R   0.993070 0.660866 0.927752 0.049482
C28   C     C_R   0.998711 0.668216 0.076310 0.026774
C29   C     C_R   0.508146 0.273400 0.962329 -0.086495
C30   C     C_R   0.502597 0.279821 0.037041 -0.089431
C31   C     C_R   0.008091 0.773474 0.962324 -0.086698
C32   C     C_R   0.002539 0.779780 0.037044 -0.089568
C33   C     C_R   0.483971 0.058801 0.041092 -0.089517
C34   C     C_R   0.481508 0.054931 0.968463 -0.074125
C35   C     C_R   0.984343 0.558635 0.040982 -0.090042
C36   C     C_R   0.981937 0.554818 0.968356 -0.074353
C37   C     C_R   0.527688 0.379731 0.924586 0.348945
C38   C     C_R   0.499665 0.397069 0.069321 0.324500
C39   C     C_R   0.027367 0.879989 0.924621 0.348979
C40   C     C_R   0.999406 0.896976 0.069384 0.324508
C41   C     C_R   0.026734 0.995502 0.957382 0.154683
C42   C     C_R   0.009914 0.004206 0.029857 0.165007
C43   C     C_R   0.527356 0.495312 0.957308 0.154475
C44   C     C_R   0.510464 0.504176 0.029767 0.164866
C45   C     C_R   0.686014 0.916571 0.031249 0.403365
C46   C     C_R   0.287979 0.843191 0.957538 0.407271
C47   C     C_R   0.186068 0.415571 0.031366 0.402240
C48   C     C_R   0.787541 0.342696 0.957417 0.408010
C49   C     C_R   0.693531 0.905905 0.958377 0.421700
C50   C     C_R   0.285007 0.824315 0.030111 0.406499
C51   C     C_R   0.193548 0.405168 0.958473 0.420480
C52   C     C_R   0.784542 0.323725 0.029979 0.406988
C53   C     C_R   0.760752 0.898370 0.929700 -0.006484
C54   C     C_R   0.248921 0.908766 0.073743 -0.036911
C55   C     C_R   0.260771 0.398508 0.929700 -0.007030
C56   C     C_R   0.748878 0.408574 0.073700 -0.036760
C57   C     C_R   0.820308 0.900605 0.973880 -0.172625
C58   C     C_R   0.219804 0.014710 0.044789 -0.220966
C59   C     C_R   0.320395 0.401684 0.973796 -0.172202
C60   C     C_R   0.720201 0.514945 0.044846 -0.220774
H5    H     H_    0.872872 0.891633 0.952709 0.150780
H6    H     H_    0.192383 0.080921 0.077491 0.191418
H7    H     H_    0.373002 0.393549 0.952575 0.151645
H8    H     H_    0.693113 0.581441 0.077627 0.191018
C61   C     C_R   0.812965 0.914454 0.045884 -0.158629
C62   C     C_R   0.223085 0.033238 0.972758 -0.213173
C63   C     C_R   0.313084 0.415434 0.045799 -0.158305
C64   C     C_R   0.723553 0.533599 0.972821 -0.213035
H9    H     H_    0.859154 0.921631 0.078784 0.219827
H10   H     H_    0.201356 0.117222 0.951597 0.201107
H11   H     H_    0.359323 0.423489 0.078592 0.220652
H12   H     H_    0.702228 0.617923 0.951714 0.200260
C65   C     C_R   0.746297 0.924942 0.075034 -0.019645
C66   C     C_R   0.254758 0.945615 0.928553 -0.022171
C67   C     C_R   0.246386 0.424827 0.075065 -0.020655
C68   C     C_R   0.754774 0.445620 0.928537 -0.021987
C69   C     C_R   0.468565 0.068523 0.453223 0.368976
C70   C     C_R   0.459565 0.062775 0.525390 0.354746
C71   C     C_R   0.968565 0.568523 0.453223 0.368966
C72   C     C_R   0.959565 0.562775 0.525390 0.354755
C73   C     C_R   0.480114 0.161807 0.569003 -0.097301
C74   C     C_R   0.501275 0.170599 0.423286 -0.098307
C75   C     C_R   0.980114 0.661807 0.569003 -0.097312
C76   C     C_R   0.001274 0.670599 0.423285 -0.098328
C77   C     C_R   0.506920 0.268836 0.538534 0.323964
C78   C     C_R   0.517807 0.273359 0.465867 0.320092
C79   C     C_R   0.006919 0.768837 0.538534 0.323939
C80   C     C_R   0.017807 0.773359 0.465867 0.320091
C81   C     C_R   0.815302 0.934504 0.457621 -0.158041
C82   C     C_R   0.215353 0.027480 0.526922 -0.166447
C83   C     C_R   0.315300 0.434517 0.457623 -0.158055
C84   C     C_R   0.715353 0.527480 0.526922 -0.166467
H13   H     H_    0.861791 0.958352 0.427531 0.221568
H14   H     H_    0.188043 0.105913 0.548817 0.220981
H15   H     H_    0.361788 0.458371 0.427535 0.221563
H16   H     H_    0.688042 0.605912 0.548817 0.220964
C85   C     C_R   0.820881 0.924461 0.529915 -0.159148
C86   C     C_R   0.213980 0.012026 0.454650 -0.163200
C87   C     C_R   0.320877 0.424477 0.529918 -0.159139
C88   C     C_R   0.713980 0.512026 0.454651 -0.163194
H17   H     H_    0.872636 0.935595 0.553221 0.227812
H18   H     H_    0.183279 0.074992 0.422751 0.210555
H19   H     H_    0.372630 0.435619 0.553225 0.227819
H20   H     H_    0.683278 0.574992 0.422751 0.210553
C89   C     C_R   0.761228 0.898716 0.571198 -0.031999
C90   C     C_R   0.248618 0.912400 0.424368 -0.021032
C91   C     C_R   0.261225 0.398722 0.571199 -0.031998
C92   C     C_R   0.748618 0.412400 0.424368 -0.021025
C93   C     C_R   0.696154 0.877857 0.538682 0.385048
C94   C     C_R   0.288537 0.831912 0.467157 0.456126
C95   C     C_R   0.196154 0.377855 0.538682 0.385034
C96   C     C_R   0.788536 0.331911 0.467157 0.456117
C97   C     C_R   0.690266 0.888902 0.465736 0.384929
C98   C     C_R   0.289634 0.847564 0.540041 0.469490
C99   C     C_R   0.190267 0.388899 0.465735 0.384932
C100  C     C_R   0.789634 0.347563 0.540041 0.469521
C101  C     C_R   0.749710 0.922114 0.425238 -0.042547
C102  C     C_R   0.252227 0.944521 0.570140 -0.019275
C103  C     C_R   0.249710 0.422117 0.425238 -0.042565
C104  C     C_R   0.752227 0.444520 0.570140 -0.019277
F1    F     F_    0.638314 0.849326 0.577364 -0.531013
F2    F     F_    0.323262 0.734343 0.439429 -0.531247
F3    F     F_    0.138316 0.349315 0.577363 -0.531049
F4    F     F_    0.823262 0.234341 0.439429 -0.531237
F5    F     F_    0.625771 0.873806 0.435830 -0.526087
F6    F     F_    0.326322 0.767679 0.581048 -0.513655
F7    F     F_    0.125774 0.373794 0.435828 -0.526092
F8    F     F_    0.826321 0.267678 0.581048 -0.513574
F9    F     F_    0.552461 0.370330 0.857381 -0.553546
F10   F     F_    0.475635 0.409909 0.136618 -0.589801
F11   F     F_    0.052148 0.870930 0.857403 -0.553750
F12   F     F_    0.975412 0.909574 0.136709 -0.589824
N1    N     N_R   0.042864 0.103063 0.916542 0.133922
O53   O     O_R   0.027376 0.107985 0.849431 -0.196258
O54   O     O_R   0.074676 0.195806 0.945691 -0.242036
N2    N     N_R   0.000561 0.121402 0.063415 0.152423
O55   O     O_R   0.024829 0.140669 0.126952 -0.240683
O56   O     O_R   0.962006 0.205206 0.033441 -0.214742
N3    N     N_R   0.543908 0.602735 0.916488 0.133528
O57   O     O_R   0.529382 0.607216 0.849177 -0.196055
O58   O     O_R   0.575427 0.695623 0.945823 -0.243007
N4    N     N_R   0.501382 0.621438 0.063307 0.152444
O59   O     O_R   0.526046 0.640756 0.126701 -0.241346
O60   O     O_R   0.462715 0.705270 0.033483 -0.213976
F13   F     F_    0.620219 0.926388 0.058054 -0.569289
F14   F     F_    0.320997 0.759984 0.915625 -0.549488
F15   F     F_    0.120238 0.424284 0.058272 -0.569032
F16   F     F_    0.820119 0.259118 0.915410 -0.549269
F17   F     F_    0.636007 0.909181 0.915702 -0.539791
F18   F     F_    0.313037 0.719468 0.056538 -0.552652
F19   F     F_    0.135969 0.407966 0.915859 -0.540022
F20   F     F_    0.812114 0.218456 0.056312 -0.552957
F21   F     F_    0.448375 0.971078 0.413025 -0.511950
F22   F     F_    0.430339 0.959286 0.552133 -0.503486
F23   F     F_    0.948375 0.471077 0.413025 -0.511938
F24   F     F_    0.930338 0.459286 0.552133 -0.503483
F25   F     F_    0.524924 0.366879 0.579171 -0.529783
F26   F     F_    0.548446 0.375123 0.438347 -0.541616
F27   F     F_    0.024924 0.866879 0.579171 -0.529813
F28   F     F_    0.048446 0.875123 0.438347 -0.541608

loop_
_geom_bond_atom_site_label_1
_geom_bond_atom_site_label_2
_geom_bond_distance
_ccdc_geom_bond_type
C18   O42   1.254364 A    
C82   H14   1.082875 S    
Cr11  O51   1.971587 S    
O4    C12   1.259161 A    
C61   H9    1.076999 S    
C33   C34   1.373219 A    
O39   C19   1.264487 A    
O20   Cr12  2.070613 S    
C39   C41   1.402587 A    
N1    O53   1.301851 A    
C46   F14   1.358353 S    
C43   N3    1.438860 S    
O37   Cr5   1.956335 S    
C43   C44   1.410007 A    
C72   C75   1.411444 A    
C45   F13   1.354961 S    
C48   F16   1.358229 S    
C51   C55   1.392027 A    
O26   C22   1.257936 A    
C29   C30   1.417185 A    
O1    C9    1.273393 A    
C38   C44   1.403045 A    
C19   C76   1.453336 S    
C11   C67   1.449287 S    
O7    C3    1.264287 A    
C92   C96   1.413955 A    
C79   F27   1.358203 S    
C78   F26   1.358050 S    
C84   H16   1.082881 S    
C91   C95   1.397861 A    
C77   F25   1.358202 S    
C81   C101  1.393653 A    
O25   C21   1.272180 A    
C60   C64   1.377713 A    
C69   C70   1.375982 A    
C70   F22   1.356706 S    
C27   C31   1.418374 A    
C69   F21   1.359479 S    
C5    C26   1.472794 S    
C26   C30   1.428086 A    
C85   C89   1.406614 A    
C59   H7    1.082124 S    
O21   C9    1.262591 A    
O8    Cr4   1.949933 S    
C1    C56   1.448627 S    
O23   Cr11  1.952909 S    
C7    C28   1.472687 S    
C42   N2    1.436967 S    
C98   C102  1.395682 A    
C81   H13   1.083962 S    
C83   C103  1.393639 A    
O32   Cr4   1.947201 S    
C1    O9    1.270039 A    
O44   Cr12  2.074571 S    
C73   C77   1.398860 A    
C35   C36   1.373121 A    
C71   C72   1.375988 A    
C53   C57   1.404714 A    
C48   C68   1.395119 A    
C3    O11   1.270051 A    
N4    O59   1.301531 A    
O11   Cr7   2.076632 S    
C4    C53   1.442856 S    
C4    O12   1.254766 A    
C26   C33   1.394061 A    
O33   Cr5   2.064732 S    
C50   F18   1.357044 S    
C99   F7    1.358225 S    
C49   F17   1.357161 S    
C98   F6    1.358406 S    
O27   Cr3   2.072529 S    
O7    Cr3   1.953509 S    
O3    Cr3   2.064643 S    
C48   C52   1.387944 A    
Cr4   O52   1.979401 S    
O47   C23   1.264951 A    
C69   C74   1.396161 A    
O2    Cr2   2.068070 S    
C18   C73   1.453544 S    
C64   H12   1.081520 S    
C38   F10   1.359133 S    
C29   C37   1.412471 A    
C54   C58   1.393392 A    
C80   F28   1.358049 S    
C37   F9    1.359063 S    
C37   C43   1.402892 A    
Cr5   O49   1.972038 S    
O25   Cr1   2.072529 S    
O18   Cr10  2.070613 S    
C90   C94   1.413953 A    
C51   F19   1.357202 S    
N1    O54   1.298956 A    
C82   C102  1.405804 A    
Cr7   O51   1.972038 S    
C10   C66   1.444655 S    
C14   O34   1.256744 A    
O6    Cr2   1.949933 S    
C95   C99   1.387647 A    
C7    O19   1.278106 A    
C85   H17   1.083363 S    
O24   Cr12  1.954028 S    
C47   C67   1.414354 A    
C86   C90   1.393518 A    
C32   C40   1.416927 A    
O22   C10   1.273423 A    
N3    O57   1.301390 A    
C93   C97   1.387645 A    
C76   C80   1.412994 A    
C93   F1    1.358271 S    
C6    O18   1.264453 A    
C2    C55   1.443015 S    
C96   F4    1.357573 S    
C8    C27   1.472319 S    
C81   C85   1.374045 A    
C58   H6    1.084128 S    
O16   Cr8   1.949748 S    
C15   O35   1.270531 A    
C9    C65   1.449217 S    
C100  F8    1.358406 S    
O13   C5    1.264804 A    
O40   C20   1.274023 A    
C100  C104  1.395685 A    
O48   C24   1.275242 A    
O12   Cr8   2.074637 S    
C20   C75   1.453546 S    
O48   Cr12  1.949480 S    
C40   F12   1.359134 S    
O15   C7    1.264916 A    
O6    C2    1.274916 A    
O5    C1    1.264231 A    
C57   H5    1.081794 S    
O10   Cr6   2.074637 S    
C62   C66   1.404850 A    
C70   C73   1.411445 A    
O39   Cr7   1.956335 S    
O3    C11   1.273350 A    
C25   C29   1.418295 A    
O45   Cr9   1.951295 S    
C31   C32   1.417282 A    
C13   O33   1.270531 A    
C52   F20   1.356912 S    
O8    C4    1.274741 A    
C17   C74   1.453334 S    
O13   Cr5   1.947271 S    
C47   F15   1.355386 S    
O36   Cr8   2.067720 S    
C46   C50   1.387982 A    
O47   Cr11  1.951295 S    
Cr2   O50   1.979401 S    
O15   Cr7   1.947271 S    
Cr1   O49   1.979382 S    
C40   C42   1.403088 A    
C94   C98   1.387134 A    
O30   Cr2   1.947201 S    
C94   F2    1.357570 S    
C45   C49   1.389066 A    
Cr3   O51   1.979382 S    
O14   Cr6   1.949748 S    
N2    O56   1.301195 A    
O21   Cr9   1.952909 S    
C86   H18   1.084011 S    
C47   C51   1.389148 A    
O9    Cr5   2.076632 S    
O30   C14   1.274327 A    
O38   C18   1.274023 A    
C6    C25   1.472231 S    
C83   H15   1.083954 S    
C19   O43   1.268895 A    
C13   C92   1.448451 S    
C3    C54   1.448691 S    
C84   C104  1.405809 A    
C21   C101  1.449900 S    
C55   C59   1.405019 A    
O34   Cr6   2.067720 S    
C96   C100  1.387136 A    
C71   F23   1.359480 S    
C27   C36   1.405161 A    
C82   C86   1.375474 A    
O31   Cr3   1.943802 S    
C87   C91   1.406601 A    
C16   C89   1.447715 S    
O26   Cr2   2.068702 S    
C88   H20   1.084016 S    
C57   C61   1.375778 A    
C46   C66   1.395391 A    
C5    O17   1.278276 A    
C23   C103  1.449901 S    
C60   H8    1.084037 S    
C97   C101  1.413880 A    
O22   Cr10  1.954028 S    
O28   C24   1.257937 A    
H1    C33   1.083896 S    
O14   C6    1.276904 A    
C61   C65   1.387978 A    
O5    Cr1   1.953509 S    
C8    O20   1.264545 A    
H3    C35   1.083908 S    
O17   Cr9   2.072010 S    
O37   C17   1.264486 A    
C25   C34   1.405218 A    
C62   H10   1.081646 S    
C87   H19   1.083350 S    
O24   C12   1.273371 A    
C17   O41   1.268896 A    
C49   C53   1.391811 A    
C31   C39   1.412402 A    
C63   H11   1.077330 S    
N4    O60   1.301380 A    
C75   C79   1.398860 A    
C30   C38   1.416790 A    
O29   C13   1.264118 A    
C56   C60   1.393222 A    
C20   O44   1.254365 A    
O1    Cr1   2.064643 S    
H2    C34   1.083521 S    
O19   Cr11  2.072010 S    
O40   Cr8   1.954782 S    
C72   F24   1.356702 S    
C22   C102  1.445002 S    
C64   C68   1.404699 A    
O32   C16   1.274325 A    
Cr10  O50   1.972396 S    
C41   C42   1.409885 A    
O46   Cr10  1.949480 S    
C39   F11   1.359101 S    
O2    C10   1.259174 A    
O46   C22   1.275244 A    
Cr12  O52   1.972396 S    
O45   C21   1.264950 A    
C28   C32   1.427997 A    
C41   N1    1.438533 S    
C63   C67   1.388453 A    
C83   C87   1.374041 A    
C71   C76   1.396161 A    
O23   C11   1.262708 A    
C84   C88   1.375473 A    
C45   C65   1.414115 A    
O42   Cr10  2.074571 S    
C59   C63   1.375576 A    
O35   Cr7   2.064732 S    
O4    Cr4   2.068070 S    
C15   C90   1.448447 S    
C24   C104  1.445005 S    
H4    C36   1.083563 S    
O29   Cr1   1.943802 S    
C2    O10   1.254633 A    
O28   Cr4   2.068702 S    
C16   O36   1.256739 A    
C95   F3    1.358260 S    
N2    O55   1.301278 A    
C58   C62   1.377553 A    
Cr8   O52   1.971118 S    
Cr6   O50   1.971118 S    
C74   C78   1.412993 A    
C28   C35   1.394189 A    
O43   Cr11  2.073704 S    
C79   C80   1.389782 A    
N3    O58   1.299081 A    
O27   C23   1.272178 A    
C14   C91   1.447718 S    
O41   Cr9   2.073704 S    
C97   F5    1.358243 S    
C88   C92   1.393522 A    
O38   Cr6   1.954782 S    
C89   C93   1.397876 A    
C12   C68   1.444484 S    
O31   C15   1.264119 A    
O16   C8    1.276898 A    
Cr9   O49   1.971587 S    
C99   C103  1.413869 A    
C52   C56   1.413905 A    
C50   C54   1.413979 A    
C44   N4    1.436831 S    
C77   C78   1.389783 A    
