data_mof_unit_27694.cif
_audit_creation_date              2012-12-10T19:09:34-0500
_audit_creation_method            fapswitch 2.2
_symmetry_space_group_name_H-M    P1
_symmetry_Int_Tables_number       1
_space_group_crystal_system       triclinic
_cell_length_a                    9.553448
_cell_length_b                    10.810304
_cell_length_c                    17.054685
_cell_angle_alpha                 90.013092
_cell_angle_beta                  91.946041
_cell_angle_gamma                 89.773174
_cell_volume                      1760.30449148

loop_
_atom_site_label
_atom_site_type_symbol
_atom_type_description
_atom_site_fract_x
_atom_site_fract_y
_atom_site_fract_z
_atom_type_partial_charge
C1    C     C_R   0.500030 0.262670 0.498532 0.828432
C2    C     C_R   0.642118 0.514030 0.778771 -0.321431
C3    C     C_R   0.605192 0.470772 0.141982 0.465873
C4    C     C_R   0.605274 0.486988 0.222862 -0.252254
C5    C     C_R   0.477116 0.451518 0.100412 0.282770
C6    C     C_R   0.480301 0.483442 0.263427 -0.100396
C7    C     C_R   0.353679 0.460052 0.221969 -0.231775
C8    C     C_R   0.352742 0.442652 0.140953 -0.227119
C9    C     C_R   0.580487 0.065754 0.555283 0.077500
C10   C     C_R   0.498175 0.129774 0.500185 -0.082208
C11   C     C_R   0.398647 0.064033 0.454645 -0.200569
C12   C     C_R   0.514623 0.492136 0.651043 0.836446
C13   C     C_R   0.398987 0.934793 0.456724 -0.163334
C14   C     C_R   0.495017 0.871163 0.506685 -0.112394
C15   C     C_R   0.573825 0.939516 0.562341 -0.021705
C16   C     C_3   0.722572 0.932191 0.594930 0.225629
C17   C     C_3   0.732197 0.071732 0.578418 -0.260934
C18   C     C_R   0.073783 0.608880 0.501853 0.275000
C19   C     C_R   0.074939 0.392974 0.507021 -0.018453
C20   C     C_R   0.926712 0.393143 0.507668 -0.032751
C21   C     C_R   0.926427 0.608499 0.497689 0.176233
C22   C     C_3   0.924810 0.705583 0.434404 -0.264380
C23   C     C_R   0.499651 0.737570 0.503162 0.790818
C24   C     C_3   0.083283 0.712715 0.445086 -0.542145
C25   C     C_R   0.484619 0.497493 0.349111 0.835918
C26   C     C_R   0.516569 0.486881 0.737846 -0.136155
C27   C     C_R   0.392718 0.467683 0.780057 -0.119767
C28   C     C_R   0.394780 0.488746 0.861711 -0.117299
C29   C     C_R   0.523280 0.517772 0.901913 0.239794
C30   C     C_R   0.646533 0.532943 0.859813 -0.055200
Cu1   Cu    Cu3+1 0.640670 0.499980 0.500000 0.964900
Cu2   Cu    Cu3+1 0.359330 0.500020 0.500000 0.982603
H1    H     H_    0.703662 0.501215 0.253932 0.195502
H2    H     H_    0.329554 0.884867 0.416550 0.148864
H3    H     H_    0.794777 0.874791 0.560746 0.090052
H4    H     H_    0.797601 0.093616 0.527550 0.077285
H5    H     H_    0.129543 0.305564 0.511532 0.159286
H6    H     H_    0.873259 0.306143 0.512864 0.136289
H7    H     H_    0.871266 0.792389 0.450953 0.136074
H8    H     H_    0.144347 0.688284 0.392830 0.235574
H9    H     H_    0.118141 0.799220 0.474925 0.187911
H10   H     H_    0.736893 0.526609 0.746615 0.201047
H11   H     H_    0.255819 0.454426 0.252019 0.192571
H12   H     H_    0.254546 0.425573 0.109273 0.180137
H13   H     H_    0.326661 0.111912 0.414542 0.145780
N1    N     N_2   0.531913 0.526625 0.984895 -0.127782
N2    N     N_2   0.470706 0.440556 0.018044 -0.249706
N3    N     N_R   0.147870 0.500930 0.499500 -0.181911
N4    N     N_R   0.851960 0.500890 0.499500 -0.194577
O1    O     O_R   0.618810 0.319640 0.500000 -0.603696
O2    O     O_R   0.381230 0.319680 0.499990 -0.580462
O3    O     O_R   0.631790 0.498830 0.613930 -0.588577
O4    O     O_R   0.394210 0.498870 0.613920 -0.568203
O5    O     O_R   0.618770 0.680320 0.500010 -0.597617
O6    O     O_R   0.381190 0.680360 0.500000 -0.581959
O7    O     O_R   0.605790 0.501130 0.386080 -0.567464
O8    O     O_R   0.368210 0.501170 0.386070 -0.581916
O9    O     O_3   0.733881 0.910084 0.676965 -0.551689
C31   C     C_3   0.670933 0.797992 0.698769 0.097598
H14   H     H_    0.745348 0.748844 0.739351 0.176413
H15   H     H_    0.649526 0.734340 0.648782 0.103422
C32   C     C_3   0.535074 0.824861 0.741246 -0.381674
H16   H     H_    0.463973 0.882890 0.703682 0.238283
H17   H     H_    0.479942 0.736996 0.752504 0.185759
C33   C     C_3   0.563356 0.890566 0.819397 -0.650742
H18   H     H_    0.631976 0.832746 0.858571 0.242174
H19   H     H_    0.462826 0.906764 0.848631 0.240546
H20   H     H_    0.614205 0.981302 0.809844 0.284223
C34   C     C_2   0.762972 0.152565 0.649062 0.981115
O10   O     O_2   0.884515 0.168426 0.671364 -0.570397
O11   O     O_R   0.653902 0.207638 0.689341 -0.749114
H21   H     H_    0.689018 0.256241 0.736812 0.335215
C35   C     C_2   0.882063 0.659337 0.353878 0.941545
O12   O     O_2   0.790338 0.713629 0.315706 -0.595925
O13   O     O_R   0.952863 0.558940 0.321491 -0.783471
H22   H     H_    0.931146 0.548527 0.263369 0.317094
O14   O     O_3   0.729641 0.481841 0.103615 -0.570913
C36   C     C_3   0.785895 0.363455 0.087812 0.082480
H23   H     H_    0.817344 0.362880 0.025675 0.183600
H24   H     H_    0.710694 0.285390 0.094231 0.118791
C37   C     C_3   0.915952 0.341297 0.140844 -0.391759
H25   H     H_    0.988761 0.420630 0.135744 0.235683
H26   H     H_    0.884403 0.334573 0.202810 0.219968
C38   C     C_3   0.992187 0.222723 0.118704 -0.864920
H27   H     H_    0.922045 0.141715 0.124264 0.267581
H28   H     H_    0.085354 0.209457 0.158585 0.257305
H29   H     H_    0.027800 0.228632 0.057487 0.263918
C39   C     C_2   0.781462 0.570577 0.898932 0.840274
O15   O     O_2   0.892260 0.547234 0.868089 -0.568448
O16   O     O_R   0.782633 0.635981 0.969673 -0.702140
H30   H     H_    0.880922 0.656147 0.989929 0.358920
C40   C     C_2   0.262302 0.483101 0.905079 0.948426
O17   O     O_2   0.228955 0.569689 0.946771 -0.562721
O18   O     O_R   0.177644 0.378029 0.899397 -0.731578
H31   H     H_    0.092379 0.384263 0.933008 0.343792
C41   C     C_2   0.260985 0.425297 0.739892 0.953191
O19   O     O_2   0.259210 0.327060 0.704279 -0.542333
O20   O     O_R   0.139715 0.497789 0.742727 -0.728295
H32   H     H_    0.057233 0.459286 0.712890 0.344653

loop_
_geom_bond_atom_site_label_1
_geom_bond_atom_site_label_2
_ccdc_geom_bond_type
C17   C34   S    
C18   C21   A    
C35   O13   S    
C35   O12   D    
C19   C20   A    
C38   H29   S    
Cu1   O3    S    
C21   N4    A    
C37   H25   S    
C7    C8    A    
O14   C36   S    
C5    N2    S    
C26   C27   A    
C20   N4    A    
C18   C24   S    
C28   C29   A    
C38   H28   S    
C16   H3    S    
C36   H24   S    
C6    C25   S    
C15   C16   S    
C34   O11   S    
C32   H17   S    
C19   H5    S    
C12   O3    A    
N1    N2    D    
C16   C17   S    
C33   H19   S    
C41   O20   S    
C25   O7    A    
C17   H4    S    
C7    H11   S    
Cu1   O7    S    
C29   C30   A    
C9    C10   A    
Cu2   O6    S    
C12   O4    A    
C31   H14   S    
C21   C22   S    
C24   H9    S    
Cu2   N3    S    
C27   C41   S    
C34   O10   D    
C25   O8    A    
Cu2   O8    S    
Cu1   N4    S    
C37   H26   S    
C31   H15   S    
C38   H27   S    
C2    C26   A    
C19   N3    A    
O9    C31   S    
C12   C26   S    
C14   C23   S    
O13   H22   S    
Cu2   O2    S    
C32   H16   S    
C20   H6    S    
Cu1   Cu2   S    
C33   H20   S    
C41   O19   D    
C40   O18   S    
C28   C40   S    
C16   O9    S    
C1    O2    A    
C4    C6    A    
C39   O16   S    
C33   H18   S    
C22   C24   S    
C11   H13   S    
Cu1   O1    S    
C30   C39   S    
C3    C4    A    
C3    O14   S    
Cu2   O4    S    
C37   C38   S    
C23   O5    A    
C1    O1    A    
C9    C17   S    
C4    H1    S    
C31   C32   S    
C32   C33   S    
C36   H23   S    
C1    C10   S    
C8    H12   S    
C3    C5    A    
C18   N3    A    
C5    C8    A    
C23   O6    A    
C6    C7    A    
C29   N1    S    
C2    C30   A    
C9    C15   A    
O11   H21   S    
C11   C13   A    
C36   C37   S    
O16   H30   S    
C2    H10   S    
C22   H7    S    
C40   O17   D    
C24   H8    S    
Cu1   O5    S    
O18   H31   S    
C10   C11   A    
C13   H2    S    
C39   O15   D    
O20   H32   S    
C27   C28   A    
C14   C15   A    
C22   C35   S    
C13   C14   A    
