data_mof_unit_57373.cif
_audit_creation_date              2012-12-10T17:50:40-0500
_audit_creation_method            fapswitch 2.2
_symmetry_space_group_name_H-M    P1
_symmetry_Int_Tables_number       1
_space_group_crystal_system       triclinic
_cell_length_a                    15.701557
_cell_length_b                    10.634128
_cell_length_c                    9.980834
_cell_angle_alpha                 90.496019
_cell_angle_beta                  90.56384
_cell_angle_gamma                 93.520026
_cell_volume                      1663.2272615

loop_
_atom_site_label
_atom_site_type_symbol
_atom_type_description
_atom_site_fract_x
_atom_site_fract_y
_atom_site_fract_z
_atom_type_partial_charge
C1    C     C_R   0.502170 0.260923 0.499707 0.872574
C2    C     C_R   0.716371 0.086669 0.674670 -0.132841
C3    C     C_R   0.716195 0.955781 0.675675 -0.146778
C4    C     C_R   0.338121 0.499730 0.499439 0.915243
C5    C     C_R   0.647800 0.883258 0.619106 -0.191355
C6    C     C_R   0.577710 0.941501 0.561500 0.098251
C7    C     C_R   0.577871 0.073437 0.560402 0.091410
C8    C     C_R   0.508120 0.128920 0.499227 -0.097082
C9    C     C_R   0.441347 0.057751 0.437599 -0.201617
C10   C     C_R   0.441326 0.929310 0.438262 -0.212605
C11   C     C_R   0.507879 0.872077 0.501305 -0.086309
C12   C     C_3   0.082490 0.496119 0.497718 0.203330
C13   C     C_R   0.380007 0.327138 0.126042 0.486284
C14   C     C_R   0.325672 0.248092 0.044746 -0.279850
C15   C     C_R   0.329667 0.252466 0.908259 -0.267010
C16   C     C_R   0.502638 0.739291 0.500507 0.849777
C17   C     C_R   0.387687 0.335622 0.849105 -0.131959
C18   C     C_R   0.443868 0.417989 0.923771 0.101994
C19   C     C_R   0.442415 0.416262 0.068282 0.104021
C20   C     C_R   0.554023 0.577982 0.072974 -0.111010
C21   C     C_R   0.553923 0.577986 0.930504 -0.099941
C22   C     C_R   0.661828 0.500527 0.500582 0.862547
C23   C     C_3   0.976356 0.598261 0.565503 -0.192190
C24   C     C_3   0.967807 0.391008 0.558533 -0.181716
C25   C     C_3   0.023369 0.393358 0.430830 -0.206170
C26   C     C_1   0.248991 0.498323 0.498216 -0.193062
C27   C     C_1   0.750691 0.498547 0.501602 -0.183985
C28   C     C_3   0.028890 0.493378 0.625263 -0.148436
C29   C     C_R   0.936327 0.506883 0.231709 0.114947
C30   C     C_R   0.953295 0.415923 0.134129 -0.148085
C31   C     C_R   0.921325 0.425814 0.003512 -0.137441
C32   C     C_R   0.872056 0.526079 0.969493 -0.109670
C33   C     C_R   0.854763 0.616776 0.066035 -0.138884
C34   C     C_3   0.916837 0.495945 0.498878 0.169842
C35   C     C_R   0.886976 0.607576 0.196535 -0.145502
C36   C     C_3   0.031816 0.601317 0.437902 -0.205679
C37   C     C_3   0.971027 0.498682 0.372473 0.056858
C38   C     C_1   0.173522 0.497090 0.497726 -0.078157
C39   C     C_1   0.825948 0.496832 0.501063 -0.089742
C40   C     C_R   0.648134 0.145509 0.617155 -0.170330
H1    H     H_    0.045513 0.309226 0.378124 0.122960
H2    H     H_    0.939469 0.305499 0.608186 0.129474
H3    H     H_    0.059995 0.686896 0.388187 0.134425
H4    H     H_    0.955080 0.681598 0.620766 0.134295
H5    H     H_    0.054716 0.491166 0.729123 0.137622
H6    H     H_    0.388062 0.101468 0.391797 0.159559
H7    H     H_    0.651610 0.247224 0.616213 0.149162
H8    H     H_    0.769851 0.142851 0.717594 0.129674
H9    H     H_    0.317880 0.262238 0.282176 0.292268
H10   H     H_    0.991403 0.337695 0.158224 0.115817
H11   H     H_    0.934825 0.355773 0.928553 0.122003
H12   H     H_    0.769527 0.910278 0.719389 0.127602
H13   H     H_    0.847402 0.533532 0.868356 0.130099
H14   H     H_    0.816557 0.694397 0.039675 0.122530
H15   H     H_    0.873412 0.678802 0.270235 0.125766
H16   H     H_    0.650994 0.781957 0.619545 0.137763
H17   H     H_    0.388437 0.874087 0.391816 0.149622
H18   H     H_    0.598361 0.642017 0.127318 0.143822
H19   H     H_    0.279685 0.180557 0.088348 0.141665
H20   H     H_    0.287498 0.190429 0.847424 0.167761
H21   H     H_    0.386071 0.331533 0.743381 0.218622
H22   H     H_    0.598209 0.642153 0.878745 0.138486
N1    N     N_R   0.499210 0.498800 0.142780 -0.102363
N2    N     N_R   0.499180 0.498720 0.857170 -0.110546
O1    O     O_R   0.500000 0.316780 0.614690 -0.652492
O2    O     O_R   0.499990 0.316750 0.385360 -0.538437
O3    O     O_R   0.376780 0.500000 0.614650 -0.640687
O4    O     O_R   0.376770 0.499980 0.385310 -0.548383
O5    O     O_R   0.500010 0.683250 0.614640 -0.615334
O6    O     O_R   0.500000 0.683220 0.385310 -0.618145
O7    O     O_R   0.623230 0.500020 0.614690 -0.629460
O8    O     O_R   0.623220 0.500000 0.385350 -0.608014
O9    O     O_3   0.371276 0.312482 0.260471 -0.733571
Zn1   Zn    Zn3+2 0.500010 0.500020 0.653130 0.935250
Zn2   Zn    Zn3+2 0.499990 0.499980 0.346870 0.991513

loop_
_geom_bond_atom_site_label_1
_geom_bond_atom_site_label_2
_ccdc_geom_bond_type
C40   H7    S    
C34   C37   S    
C24   H2    S    
C15   H20   S    
C32   H13   S    
C5    H16   S    
C7    C8    A    
O4    Zn2   S    
C14   H19   S    
C12   C28   S    
C36   C37   S    
C30   C31   A    
C1    C8    S    
C27   C39   T    
C18   C19   A    
C21   N2    A    
C25   C37   S    
C19   N1    A    
C8    C9    A    
C1    O1    A    
C7    C40   A    
C12   C36   S    
C9    C10   A    
C17   H21   S    
C30   H10   S    
C9    H6    S    
C13   C14   A    
O8    Zn2   S    
C22   O8    A    
C17   C18   A    
C28   H5    S    
C13   C19   A    
C35   H15   S    
C34   C39   S    
C10   H17   S    
C16   O6    A    
C24   C25   S    
C25   H1    S    
C6    C11   A    
C4    O4    A    
C26   C38   T    
C2    H8    S    
C24   C34   S    
O1    Zn1   S    
C29   C30   A    
C4    O3    A    
C11   C16   S    
C31   C32   A    
C23   C34   S    
C1    O2    A    
O5    Zn1   S    
O3    Zn1   S    
C23   C28   S    
C21   H22   S    
C13   O9    S    
C22   C27   S    
H9    O9    S    
C20   H18   S    
C22   O7    A    
C33   H14   S    
C15   C17   A    
C16   O5    A    
C24   C28   S    
C31   H11   S    
C3    C5    A    
O7    Zn1   S    
C4    C26   S    
C3    H12   S    
C6    C7    A    
C29   C35   A    
C12   C25   S    
C32   C33   A    
C20   N1    A    
C2    C3    A    
C18   N2    A    
C5    C6    A    
N1    Zn2   S    
O2    Zn2   S    
C33   C35   A    
C12   C38   S    
C10   C11   A    
C23   H4    S    
C2    C40   A    
C20   C21   A    
C23   C36   S    
C29   C37   S    
O6    Zn2   S    
N2    Zn1   S    
C14   C15   A    
C36   H3    S    
