data_mof_unit_58516.cif
_audit_creation_date              2012-12-10T17:48:57-0500
_audit_creation_method            fapswitch 2.2
_symmetry_space_group_name_H-M    P1
_symmetry_Int_Tables_number       1
_space_group_crystal_system       triclinic
_cell_length_a                    10.705487
_cell_length_b                    14.725187
_cell_length_c                    14.726031
_cell_angle_alpha                 64.839415
_cell_angle_beta                  104.1935
_cell_angle_gamma                 102.295812
_cell_volume                      2021.32452132

loop_
_atom_site_label
_atom_site_type_symbol
_atom_type_description
_atom_site_fract_x
_atom_site_fract_y
_atom_site_fract_z
_atom_type_partial_charge
C1    C     C_R   0.481280 0.119500 0.311868 0.806299
C2    C     C_3   0.877952 0.002334 0.496986 0.115440
C3    C     C_3   0.935924 0.915927 0.593818 -0.368879
C4    C     C_3   0.957650 0.104539 0.495504 -0.363020
C5    C     C_R   0.469961 0.186868 0.202599 -0.136598
C6    C     C_R   0.517150 0.812629 0.795056 -0.068154
C7    C     C_R   0.441423 0.220333 0.022982 -0.223454
C8    C     C_R   0.462219 0.152296 0.124691 -0.015749
C9    C     C_R   0.464208 0.289520 0.176222 -0.264182
C10   C     C_R   0.450607 0.359600 0.074513 0.094615
C11   C     C_R   0.437932 0.322877 0.997638 0.134911
C12   C     C_R   0.259983 0.001983 0.497756 0.745740
C13   C     C_R   0.454568 0.465433 0.047245 0.071893
C14   C     C_R   0.456443 0.532874 0.943882 0.069335
C15   C     C_R   0.433966 0.492153 0.869045 -0.213628
C16   C     C_R   0.425146 0.389133 0.895742 -0.209159
C17   C     C_R   0.458107 0.506486 0.119346 -0.216088
C18   C     C_R   0.471579 0.610287 0.092157 -0.216350
C19   C     C_R   0.485270 0.677050 0.993152 0.153220
C20   C     C_R   0.479604 0.638958 0.918453 0.079654
C21   C     C_R   0.505200 0.781808 0.967937 -0.174700
C22   C     C_R   0.519803 0.849342 0.869079 -0.182832
C23   C     C_R   0.519467 0.880374 0.687829 0.826395
C24   C     C_R   0.501207 0.708392 0.821160 -0.225840
C25   C     C_R   0.701149 0.274686 0.681700 -0.117587
C26   C     C_R   0.676378 0.198654 0.644372 0.015759
C27   C     C_R   0.517637 0.285561 0.507692 0.008710
C28   C     C_R   0.535986 0.365758 0.540499 -0.034611
C29   C     C_R   0.626210 0.356859 0.631982 0.081078
C30   C     C_R   0.466426 0.452772 0.487714 0.097673
C31   C     C_R   0.492410 0.530194 0.526142 0.097803
C32   C     C_R   0.564775 0.509241 0.624841 -0.226429
C33   C     C_R   0.632372 0.426069 0.675539 -0.146611
C34   C     C_R   0.739713 0.000809 0.498318 0.788339
C35   C     C_R   0.370136 0.464796 0.399701 -0.236995
C36   C     C_R   0.302060 0.549029 0.352735 -0.185822
C37   C     C_R   0.334770 0.628403 0.386108 0.150137
C38   C     C_R   0.437095 0.623338 0.468463 -0.067471
C39   C     C_R   0.268908 0.714137 0.336456 -0.303290
C40   C     C_R   0.307571 0.795328 0.366796 0.077471
C41   C     C_R   0.484268 0.713703 0.486222 0.113159
C42   C     C_3   0.035925 0.991448 0.399967 -0.389680
C43   C     C_3   0.891667 0.989313 0.400944 -0.345842
C44   C     C_3   0.079081 0.915003 0.592442 -0.383938
C45   C     C_3   0.101347 0.104508 0.496972 -0.371707
C46   C     C_3   0.122166 0.003484 0.496712 0.155155
Cu1   Cu    Cu3+1 0.465900 0.918260 0.475680 0.988393
Cu2   Cu    Cu3+1 0.534100 0.081740 0.524320 0.934739
H1    H     H_    0.049126 0.920127 0.396420 0.183045
H2    H     H_    0.949626 0.117371 0.563029 0.182993
H3    H     H_    0.141106 0.921477 0.662668 0.162504
H4    H     H_    0.929145 0.926218 0.663031 0.168443
H5    H     H_    0.411332 0.361415 0.836057 0.151456
H6    H     H_    0.507942 0.683050 0.764173 0.178216
H7    H     H_    0.531453 0.929852 0.850355 0.170990
H8    H     H_    0.473808 0.638452 0.149728 0.157176
H9    H     H_    0.473618 0.313505 0.237282 0.155036
H10   H     H_    0.064656 0.055125 0.330357 0.160117
H11   H     H_    0.420460 0.537859 0.788459 0.141927
H12   H     H_    0.448449 0.460703 0.197489 0.139679
H13   H     H_    0.508352 0.811446 0.024512 0.144850
H14   H     H_    0.686316 0.415173 0.751036 0.181693
H15   H     H_    0.254784 0.860404 0.329517 0.136362
H16   H     H_    0.225795 0.553487 0.287658 0.144616
H17   H     H_    0.728592 0.133197 0.682797 0.156221
H18   H     H_    0.446885 0.283914 0.442231 0.120124
H19   H     H_    0.849643 0.050897 0.330926 0.180658
H20   H     H_    0.566817 0.555394 0.665839 0.153414
H21   H     H_    0.187739 0.718290 0.274680 0.150861
H22   H     H_    0.090930 0.841524 0.592830 0.175968
H23   H     H_    0.880446 0.841823 0.598805 0.197467
H24   H     H_    0.160419 0.114987 0.566246 0.183655
H25   H     H_    0.133138 0.169428 0.429323 0.159619
H26   H     H_    0.919014 0.168370 0.426147 0.171221
N1    N     N_R   0.585360 0.204570 0.560800 -0.188523
N2    N     N_R   0.414550 0.795430 0.439160 -0.211881
O1    O     O_R   0.455060 0.022100 0.338110 -0.560184
O2    O     O_R   0.512640 0.160150 0.379180 -0.592125
O3    O     O_R   0.288900 0.930980 0.479450 -0.599603
O4    O     O_R   0.346480 0.069030 0.520520 -0.589926
O5    O     O_R   0.487360 0.839850 0.620820 -0.551413
O6    O     O_R   0.544940 0.977900 0.661890 -0.590442
O7    O     O_R   0.653520 0.930970 0.479480 -0.547231
O8    O     O_R   0.711100 0.069020 0.520550 -0.596071
H27   H     H_    0.434711 0.194166 0.963069 0.164513
C47   C     C_2   0.483109 0.048591 0.144838 0.859023
O9    O     O_2   0.574795 0.009846 0.208186 -0.592978
O10   O     O_R   0.401637 0.997278 0.087159 -0.770800
H28   H     H_    0.426340 0.927721 0.106850 0.326942
C48   C     C_2   0.621786 0.727256 0.533387 0.859001
O11   O     O_2   0.651523 0.737963 0.614065 -0.630267
O12   O     O_R   0.717407 0.718948 0.488432 -0.766923
H29   H     H_    0.807478 0.720859 0.530578 0.319861
C49   C     C_2   0.806493 0.266056 0.771009 0.809314
O13   O     O_2   0.823915 0.183033 0.838996 -0.596296
O14   O     O_R   0.889440 0.351926 0.775499 -0.760140
H30   H     H_    0.958035 0.335837 0.839477 0.339663
H31   H     H_    0.342270 0.408882 0.367005 0.123465
H32   H     H_    0.837298 0.916359 0.399834 0.217408

loop_
_geom_bond_atom_site_label_1
_geom_bond_atom_site_label_2
_ccdc_geom_bond_type
C23   O6    A    
C1    O1    A    
C2    C4    S    
C19   C20   A    
Cu1   O3    S    
C42   H10   S    
C7    C8    A    
C45   C46   S    
C7    C11   A    
C40   H15   S    
C30   C35   A    
C1    C5    S    
C36   C37   A    
C19   C21   A    
C43   H32   S    
Cu1   N2    S    
C30   C31   A    
C47   O10   S    
C24   H6    S    
C15   C16   A    
C6    C22   A    
C12   O3    A    
C29   C33   A    
C45   H25   S    
C18   C19   A    
C42   C46   S    
Cu2   O2    S    
C20   C24   A    
C16   H5    S    
C35   C36   A    
C33   H14   S    
C44   H22   S    
Cu1   O7    S    
C35   H31   S    
C9    C10   A    
C21   H13   S    
C18   H8    S    
C32   H20   S    
C2    C34   S    
C41   C48   S    
C25   C49   S    
C21   C22   A    
C45   H24   S    
C1    O2    A    
Cu2   N1    S    
C34   O8    A    
C27   N1    A    
C44   C46   S    
C26   N1    A    
C4    C45   S    
C25   C29   A    
C3    C44   S    
C14   C20   A    
C38   C41   A    
C12   C46   S    
C39   C40   A    
C47   O9    D    
C17   H12   S    
C25   C26   A    
Cu2   O8    S    
C4    H2    S    
C3    H23   S    
C5    C9    A    
C37   C38   A    
C11   C16   A    
C48   O12   S    
Cu1   Cu2   S    
C2    C43   S    
C6    C24   A    
O14   H30   S    
C17   C18   A    
C39   H21   S    
C49   O14   S    
C44   H3    S    
C42   C43   S    
Cu1   O1    S    
C28   C29   A    
C15   H11   S    
C23   O5    A    
C26   H17   S    
C4    H26   S    
C31   C32   A    
C10   C13   A    
C5    C8    A    
C3    H4    S    
C22   H7    S    
C31   C38   A    
C13   C17   A    
C32   C33   A    
Cu2   O4    S    
C28   C30   A    
C2    C3    S    
C37   C39   A    
C27   H18   S    
C36   H16   S    
C41   N2    A    
C8    C47   S    
C48   O11   D    
C7    H27   S    
C6    C23   S    
C12   O4    A    
O12   H29   S    
Cu2   O6    S    
C9    H9    S    
Cu1   O5    S    
C49   O13   D    
C10   C11   A    
C42   H1    S    
C40   N2    A    
O10   H28   S    
C43   H19   S    
C34   O7    A    
C27   C28   A    
C14   C15   A    
C13   C14   A    
