data_mof_unit_52124.cif
_audit_creation_date              2012-12-10T18:32:46-0500
_audit_creation_method            fapswitch 2.2
_symmetry_space_group_name_H-M    P1
_symmetry_Int_Tables_number       1
_space_group_crystal_system       triclinic
_cell_length_a                    15.033931
_cell_length_b                    15.544394
_cell_length_c                    15.741716
_cell_angle_alpha                 90.546923
_cell_angle_beta                  105.111438
_cell_angle_gamma                 81.276398
_cell_volume                      3508.70552346

loop_
_atom_site_label
_atom_site_type_symbol
_atom_type_description
_atom_site_fract_x
_atom_site_fract_y
_atom_site_fract_z
_atom_type_partial_charge
C1    C     C_R   0.441196 0.662051 0.487966 0.886363
C2    C     C_3   0.398259 0.546246 0.020954 0.329733
C3    C     C_3   0.494746 0.503471 0.081514 0.004793
C4    C     C_3   0.519151 0.408711 0.053198 -0.432938
C5    C     C_3   0.517634 0.408126 0.954830 -0.316092
C6    C     C_1   0.493939 0.501193 0.172930 0.081297
C7    C     C_1   0.504358 0.501806 0.826801 -0.019230
C8    C     C_1   0.504422 0.501160 0.751420 -0.096161
C9    C     C_R   0.405472 0.754926 0.487733 -0.108480
C10   C     C_R   0.594127 0.245807 0.533668 -0.168990
C11   C     C_R   0.285976 0.875213 0.498896 0.402937
C12   C     C_R   0.501520 0.500220 0.661702 0.930246
C13   C     C_R   0.314216 0.785986 0.490931 -0.272267
C14   C     C_R   0.468362 0.812482 0.492451 -0.234891
C15   C     C_R   0.446696 0.899679 0.510962 0.046266
C16   C     C_R   0.352643 0.933031 0.508646 0.014886
C17   C     C_R   0.516314 0.954579 0.528426 0.098954
C18   C     C_R   0.489591 0.045231 0.534694 0.089973
C19   C     C_R   0.394264 0.077973 0.521812 -0.138208
C20   C     C_R   0.327834 0.023124 0.512923 -0.107472
C21   C     C_R   0.611948 0.921662 0.539008 -0.196104
C22   C     C_R   0.675891 0.977049 0.539623 -0.162938
C23   C     C_R   0.558502 0.338309 0.516675 0.943477
C24   C     C_R   0.648476 0.066483 0.538042 0.100974
C25   C     C_R   0.558082 0.101092 0.545806 0.008302
C26   C     C_R   0.710268 0.121923 0.528295 -0.118199
C27   C     C_R   0.680542 0.211000 0.520492 -0.177352
C28   C     C_R   0.539478 0.190982 0.560476 0.256863
C29   C     C_R   0.845307 0.626495 0.643290 -0.281135
C30   C     C_R   0.755359 0.606245 0.617139 0.025226
C31   C     C_R   0.793501 0.517737 0.504598 -0.026656
C32   C     C_R   0.888111 0.527307 0.534729 0.067064
C33   C     C_R   0.912137 0.587352 0.601711 0.163435
C34   C     C_R   0.498612 0.499447 0.338362 0.907901
C35   C     C_R   0.957837 0.482292 0.497667 -0.089656
C36   C     C_R   0.047282 0.509358 0.517255 0.049804
C37   C     C_R   0.067405 0.572779 0.581706 -0.136155
C38   C     C_R   0.001730 0.608860 0.625014 -0.145404
C39   C     C_R   0.941515 0.410447 0.442683 0.260027
C40   C     C_R   0.996799 0.388298 0.384565 0.358902
C41   C     C_R   0.086788 0.411356 0.405064 -0.061883
C42   C     C_R   0.114001 0.470150 0.473324 -0.048939
C43   C     C_R   0.152481 0.371547 0.362839 -0.158298
C44   C     C_R   0.242636 0.389410 0.386597 0.257988
C45   C     C_3   0.404935 0.549238 0.924324 -0.419295
C46   C     C_R   0.207009 0.487525 0.493760 0.001458
C47   C     C_3   0.578225 0.551584 0.972453 -0.441583
C48   C     C_3   0.573670 0.554433 0.069821 0.246738
C49   C     C_1   0.495136 0.499619 0.248591 -0.016279
C50   C     C_3   0.501507 0.502637 0.917656 0.144551
H1    H     H_    0.382061 0.613923 0.041745 0.161631
H2    H     H_    0.348914 0.518549 0.879593 0.235502
H3    H     H_    0.589873 0.379468 0.092942 0.196599
H4    H     H_    0.256523 0.052928 0.506256 0.226764
H5    H     H_    0.725071 0.252507 0.504736 0.237091
H6    H     H_    0.746931 0.949706 0.540543 0.169616
H7    H     H_    0.265549 0.740629 0.487594 0.190247
H8    H     H_    0.534805 0.787412 0.480954 0.172048
H9    H     H_    0.394430 0.618351 0.901014 0.184024
H10   H     H_    0.369190 0.146509 0.516332 0.159563
H11   H     H_    0.639684 0.853227 0.545213 0.148118
H12   H     H_    0.778877 0.096268 0.520756 0.196269
H13   H     H_    0.020381 0.655982 0.675218 0.169010
H14   H     H_    0.233235 0.531817 0.543603 0.130546
H15   H     H_    0.862637 0.671498 0.695879 0.167569
H16   H     H_    0.703759 0.633857 0.650554 0.145580
H17   H     H_    0.768027 0.482417 0.446584 0.188710
H18   H     H_    0.648076 0.517878 0.969246 0.181698
H19   H     H_    0.133505 0.595959 0.600731 0.145555
H20   H     H_    0.136540 0.322995 0.314035 0.229117
H21   H     H_    0.569880 0.618183 0.943240 0.235432
H22   H     H_    0.641524 0.520227 0.111038 0.139997
H23   H     H_    0.461281 0.372747 0.917717 0.249893
H24   H     H_    0.584927 0.372440 0.947014 0.201175
H25   H     H_    0.470332 0.366595 0.066003 0.267218
N1    N     N_R   0.731690 0.552720 0.548990 -0.118794
N2    N     N_R   0.268300 0.447240 0.450950 -0.125383
O1    O     O_R   0.383120 0.605620 0.475300 -0.622380
O2    O     O_R   0.531890 0.639510 0.506740 -0.624926
O3    O     O_R   0.425580 0.483050 0.607130 -0.581928
O4    O     O_R   0.574360 0.516930 0.638570 -0.626563
O5    O     O_R   0.468110 0.360490 0.493260 -0.600718
O6    O     O_R   0.616880 0.394380 0.524700 -0.618325
O7    O     O_R   0.425640 0.483070 0.361430 -0.579156
O8    O     O_R   0.574420 0.516950 0.392870 -0.600207
Zn1   Zn    Zn3+2 0.400660 0.477370 0.479010 1.017882
Zn2   Zn    Zn3+2 0.599340 0.522630 0.520990 0.982277
S1    S     S_3+6 0.299905 0.494948 0.027938 0.029864
O9    O     O_2   0.299303 0.481876 0.122236 -0.267201
O10   O     O_2   0.211900 0.553512 0.981300 -0.259082
O11   O     O_3   0.302675 0.398357 0.978853 -0.557579
H26   H     H_    0.246209 0.376052 0.984800 0.407759
S2    S     S_3+6 0.484503 0.227781 0.645423 0.057752
O12   O     O_2   0.470687 0.151329 0.695667 -0.233140
O13   O     O_2   0.548129 0.279461 0.708073 -0.279618
O14   O     O_3   0.380878 0.292398 0.607797 -0.492071
H27   H     H_    0.359886 0.283130 0.544018 0.334062
S3    S     S_3+6 0.168395 0.910860 0.499616 0.053806
O15   O     O_2   0.166057 0.958389 0.582776 -0.221650
O16   O     O_2   0.121430 0.971970 0.422059 -0.260337
O17   O     O_3   0.109671 0.826216 0.494952 -0.532339
H28   H     H_    0.095022 0.809870 0.432411 0.365355
I1    I     I_    0.333944 0.318918 0.319026 -0.241335
S4    S     S_3+6 0.952044 0.332958 0.286487 0.080274
O18   O     O_2   0.990513 0.237557 0.299569 -0.226098
O19   O     O_2   0.847381 0.344730 0.263194 -0.233386
O20   O     O_3   0.984429 0.373772 0.202532 -0.550841
H29   H     H_    0.963075 0.336334 0.152363 0.395500
S5    S     S_3+6 0.884771 0.327247 0.472343 0.059330
O21   O     O_2   0.788858 0.332025 0.411021 -0.326809
O22   O     O_2   0.939263 0.239383 0.464844 -0.170275
O23   O     O_3   0.878884 0.337300 0.577547 -0.534809
H30   H     H_    0.812200 0.355069 0.574999 0.361351
S6    S     S_3+6 0.565385 0.665582 0.106180 0.018573
O24   O     O_2   0.654885 0.697953 0.107083 -0.243147
O25   O     O_2   0.486031 0.723072 0.044214 -0.297502
O26   O     O_3   0.550393 0.671370 0.208367 -0.566392
H31   H     H_    0.548510 0.733699 0.222675 0.395679

loop_
_geom_bond_atom_site_label_1
_geom_bond_atom_site_label_2
_ccdc_geom_bond_type
C10   C27   A    
O6    Zn2   S    
S2    O12   D    
C23   O5    A    
C37   H19   S    
C4    H3    S    
C41   C42   A    
C36   C42   A    
C19   C20   A    
C9    C14   A    
C3    C6    S    
O2    Zn2   S    
S6    O24   D    
C7    C8    T    
C25   C28   A    
C31   H17   S    
C26   C27   A    
O17   H28   S    
C23   O6    A    
C11   S3    S    
C36   C37   A    
C37   C38   A    
C24   C26   A    
S5    O22   D    
C27   H5    S    
C13   H7    S    
C15   C16   A    
C29   C33   A    
C3    C48   S    
C18   C19   A    
C42   C46   A    
C5    H24   S    
C9    C13   A    
S4    O18   D    
C4    H25   S    
O3    Zn1   S    
C47   C48   S    
O20   H29   S    
C2    S1    S    
C21   H11   S    
C16   C20   A    
O1    Zn1   S    
S2    O13   D    
C21   C22   A    
C1    O1    A    
C41   C43   A    
C18   C25   A    
C34   O7    A    
C48   H22   S    
S4    O19   D    
O23   H30   S    
C44   I1    S    
C47   C50   S    
O8    Zn2   S    
C2    C45   S    
C14   H8    S    
C32   C35   A    
C1    C9    S    
C24   C25   A    
C20   H4    S    
S5    O23   S    
O11   H26   S    
C22   H6    S    
C45   H2    S    
O5    Zn1   S    
C17   C21   A    
C46   H14   S    
C28   S2    S    
C34   O8    A    
C35   C39   A    
C43   C44   A    
C29   C30   A    
C40   S4    S    
C30   N1    A    
C11   C16   A    
C31   C32   A    
S1    O11   S    
C8    C12   S    
O14   H27   S    
C17   C18   A    
O4    Zn2   S    
N1    Zn2   S    
C47   H21   S    
C30   H16   S    
C29   H15   S    
C40   C41   A    
S1    O10   D    
N2    Zn1   S    
S2    O14   S    
S3    O16   D    
C1    O2    A    
C22   C24   A    
C5    C50   S    
C3    C4    S    
C47   H18   S    
C39   C40   A    
C48   S6    S    
C38   H13   S    
C10   C28   A    
C15   C17   A    
C45   H9    S    
C34   C49   S    
C7    C50   S    
O7    Zn1   S    
C4    C5    S    
C46   N2    A    
S6    O25   D    
C10   C23   S    
C43   H20   S    
S3    O17   S    
C44   N2    A    
C33   C38   A    
C32   C33   A    
C2    C3    S    
C26   H12   S    
O26   H31   S    
C11   C13   A    
C31   N1    A    
C45   C50   S    
C12   O3    A    
C12   O4    A    
C6    C49   T    
C5    H23   S    
S6    O26   S    
C2    H1    S    
C39   S5    S    
S1    O9    D    
S3    O15   D    
C14   C15   A    
C19   H10   S    
C35   C36   A    
S5    O21   D    
S4    O20   S    
