data_mof_unit_31582.cif
_audit_creation_date              2012-12-11T15:43:48-0500
_audit_creation_method            fapswitch 2.2
_symmetry_space_group_name_H-M    P1
_symmetry_Int_Tables_number       1
_space_group_crystal_system       triclinic
_cell_length_a                    15.099663
_cell_length_b                    15.917214
_cell_length_c                    6.987938
_cell_angle_alpha                 89.999625
_cell_angle_beta                  97.703102
_cell_angle_gamma                 90.000568
_cell_volume                      1664.35691643

loop_
_atom_site_label
_atom_site_type_symbol
_atom_type_description
_atom_site_fract_x
_atom_site_fract_y
_atom_site_fract_z
_atom_type_partial_charge
O1    O     O_R   0.831700 0.662810 0.581550 -0.528958
O2    O     O_R   0.168300 0.337190 0.418450 -0.541207
O3    O     O_R   0.168300 0.162810 0.418450 -0.528970
O4    O     O_R   0.831700 0.837190 0.581550 -0.541206
O5    O     O_R   0.842890 0.834390 0.255500 -0.551956
O6    O     O_R   0.157110 0.165610 0.744500 -0.535372
O7    O     O_R   0.157110 0.334390 0.744500 -0.551925
O8    O     O_R   0.842890 0.665610 0.255500 -0.535361
O9    O     O_R   0.661690 0.835580 0.024130 -0.514371
O10   O     O_R   0.338310 0.164420 0.975870 -0.507852
O11   O     O_R   0.338310 0.335580 0.975870 -0.514368
O12   O     O_R   0.661690 0.664420 0.024130 -0.507849
C1    C     C_R   0.863252 0.866889 0.430207 0.676500
C2    C     C_R   0.130642 0.139394 0.567078 0.721192
C3    C     C_R   0.136754 0.366893 0.569796 0.676553
C4    C     C_R   0.869357 0.639393 0.432922 0.721206
C5    C     C_R   0.054138 0.077531 0.529686 -0.230956
C6    C     C_R   0.926376 0.942085 0.464183 -0.209189
C7    C     C_R   0.945861 0.577529 0.470315 -0.230961
C8    C     C_R   0.073634 0.442092 0.535822 -0.209233
H1    H     H_    0.933188 0.967513 0.165415 0.191036
H2    H     H_    0.049651 0.050424 0.830699 0.205329
H3    H     H_    0.066835 0.467530 0.834594 0.191030
H4    H     H_    0.950356 0.550424 0.169302 0.205332
C9    C     C_R   0.955928 0.986820 0.310207 -0.296887
C10   C     C_R   0.022754 0.034949 0.683599 -0.302816
C11   C     C_R   0.044083 0.486828 0.689799 -0.296878
C12   C     C_R   0.977252 0.534950 0.316402 -0.302797
O13   O     O_3   0.687240 0.750000 0.366320 -0.361702
O14   O     O_3   0.312760 0.250000 0.633680 -0.361720
V1    V     V_3+5 0.757720 0.750000 0.115230 1.473147
V2    V     V_3+5 0.242280 0.250000 0.884770 1.473179
O15   O     O_R   0.650500 0.664000 0.690740 -0.554406
O16   O     O_R   0.349500 0.336000 0.309260 -0.555143
O17   O     O_R   0.349500 0.164000 0.309260 -0.554400
O18   O     O_R   0.650500 0.836000 0.690740 -0.555149
C13   C     C_R   0.630629 0.634984 0.856089 0.764600
C14   C     C_R   0.371417 0.363571 0.144744 0.729298
C15   C     C_R   0.369371 0.134985 0.143910 0.764583
C16   C     C_R   0.628581 0.863569 0.855255 0.729260
C17   C     C_R   0.011003 0.059283 0.340074 0.447327
C18   C     C_R   0.953630 0.974604 0.652410 0.445479
C19   C     C_R   0.988998 0.559284 0.659927 0.447318
C20   C     C_R   0.046382 0.474612 0.347596 0.445496
V3    V     V_3+5 0.735670 0.750000 0.607790 1.449790
V4    V     V_3+5 0.264330 0.250000 0.392210 1.449810
O19   O     O_3   0.806150 0.750000 0.906560 -0.382776
O20   O     O_3   0.193850 0.250000 0.093440 -0.382769
C21   C     C_2   0.557708 0.928593 0.850546 -0.386329
C22   C     C_2   0.435887 0.066555 0.144612 -0.409123
C23   C     C_2   0.442286 0.428597 0.149449 -0.386293
C24   C     C_2   0.564113 0.566552 0.855381 -0.409125
C25   C     C_2   0.547601 0.979796 0.002388 0.334179
C26   C     C_2   0.472545 0.043202 0.984620 0.347118
C27   C     C_2   0.452383 0.479803 0.997606 0.334203
C28   C     C_2   0.527450 0.543202 0.015368 0.347078
H5    H     H_    0.457401 0.036166 0.281804 0.107513
H6    H     H_    0.513184 0.935503 0.715852 0.126892
H7    H     H_    0.542599 0.536165 0.718187 0.107484
H8    H     H_    0.486817 0.435504 0.284134 0.126874
O21   O     O_3   0.024421 0.107512 0.179651 -0.568914
C29   C     C_3   0.993456 0.191805 0.195382 0.107528
H9    H     H_    0.049600 0.233233 0.249905 0.185731
H10   H     H_    0.943655 0.199011 0.297212 0.061095
C30   C     C_3   0.952606 0.225453 0.996570 -0.385583
H11   H     H_    0.980860 0.191473 0.879950 0.217497
H12   H     H_    0.879335 0.218131 0.980108 0.189543
C31   C     C_3   0.968065 0.318506 0.970484 -0.738182
H13   H     H_    0.941681 0.354696 0.086332 0.244789
H14   H     H_    0.933000 0.339416 0.828571 0.214705
H15   H     H_    0.040315 0.329506 0.972058 0.282076
O22   O     O_3   0.919053 0.944780 0.812833 -0.586123
C32   C     C_3   0.831574 0.975830 0.822080 0.109199
H16   H     H_    0.805931 0.944095 0.944560 0.125589
H17   H     H_    0.783199 0.958419 0.697876 0.129764
C33   C     C_3   0.829394 0.070263 0.853572 -0.391249
H18   H     H_    0.860566 0.082690 0.002534 0.228816
H19   H     H_    0.866576 0.103471 0.750792 0.208124
C34   C     C_3   0.734710 0.104186 0.824883 -0.892710
H20   H     H_    0.692391 0.067717 0.910154 0.247260
H21   H     H_    0.733758 0.171402 0.865832 0.242734
H22   H     H_    0.705651 0.098112 0.672968 0.244534
O23   O     O_3   0.975581 0.607514 0.820344 -0.568910
C35   C     C_3   0.006552 0.691802 0.804615 0.107578
H23   H     H_    0.950433 0.733228 0.750061 0.185684
H24   H     H_    0.056346 0.698995 0.702816 0.061057
C36   C     C_3   0.047408 0.725457 0.003402 -0.385654
H25   H     H_    0.019202 0.691447 0.120045 0.217488
H26   H     H_    0.120681 0.718179 0.019805 0.189542
C37   C     C_3   0.031896 0.818496 0.029529 -0.737976
H27   H     H_    0.058263 0.854715 0.913672 0.244806
H28   H     H_    0.066954 0.839410 0.171476 0.214663
H29   H     H_    0.959629 0.829454 0.027943 0.282078
O24   O     O_3   0.080975 0.444801 0.187178 -0.586107
C38   C     C_3   0.168454 0.475863 0.177965 0.109194
H30   H     H_    0.194101 0.444150 0.055461 0.125595
H31   H     H_    0.216828 0.458434 0.302167 0.129735
C39   C     C_3   0.170624 0.570302 0.146534 -0.391232
H32   H     H_    0.139437 0.582743 0.997584 0.228833
H33   H     H_    0.133455 0.603488 0.249376 0.208127
C40   C     C_3   0.265300 0.604243 0.175199 -0.892751
H34   H     H_    0.307605 0.567863 0.089728 0.247297
H35   H     H_    0.266215 0.671486 0.134490 0.242730
H36   H     H_    0.294406 0.598073 0.327055 0.244515
O25   O     O_3   0.435931 0.073798 0.804458 -0.557535
C41   C     C_3   0.499654 0.118226 0.712491 0.081156
H37   H     H_    0.470421 0.126555 0.560497 0.162543
H38   H     H_    0.560730 0.081381 0.705502 0.078590
C42   C     C_3   0.521585 0.205731 0.800828 -0.305373
H39   H     H_    0.461136 0.235533 0.843133 0.242489
H40   H     H_    0.570900 0.200191 0.932316 0.153477
C43   C     C_3   0.559376 0.264308 0.658864 -0.811152
H41   H     H_    0.620844 0.237294 0.613340 0.217392
H42   H     H_    0.576003 0.325982 0.728963 0.235810
H43   H     H_    0.509406 0.274655 0.529249 0.237611
O26   O     O_3   0.606855 0.972135 0.173149 -0.557903
C44   C     C_3   0.633853 0.051520 0.253659 0.043627
H44   H     H_    0.603437 0.061012 0.387794 0.107839
H45   H     H_    0.614783 0.105754 0.157395 0.105256
C45   C     C_3   0.734614 0.053466 0.305653 -0.270821
H46   H     H_    0.767650 0.023144 0.192902 0.197947
H47   H     H_    0.752130 0.015229 0.434246 0.171100
C46   C     C_3   0.769810 0.142815 0.342221 -0.850966
H48   H     H_    0.724972 0.180994 0.420578 0.227320
H49   H     H_    0.775713 0.174982 0.204237 0.237839
H50   H     H_    0.836148 0.140011 0.430502 0.227114
O27   O     O_3   0.564069 0.573794 0.195529 -0.557534
C47   C     C_3   0.500351 0.618230 0.287494 0.081189
H51   H     H_    0.529590 0.626567 0.439481 0.162557
H52   H     H_    0.439279 0.581382 0.294504 0.078554
C48   C     C_3   0.478413 0.705728 0.199126 -0.305427
H53   H     H_    0.538850 0.735518 0.156729 0.242479
H54   H     H_    0.429065 0.700179 0.067692 0.153498
C49   C     C_3   0.440672 0.764330 0.341108 -0.811101
H55   H     H_    0.379221 0.737331 0.386734 0.217363
H56   H     H_    0.424034 0.825995 0.270985 0.235806
H57   H     H_    0.490674 0.774687 0.470660 0.237663
O28   O     O_3   0.393115 0.472141 0.826862 -0.557899
C50   C     C_3   0.366163 0.551520 0.746256 0.043657
H58   H     H_    0.396559 0.560940 0.612071 0.107842
H59   H     H_    0.385299 0.605772 0.842421 0.105218
C51   C     C_3   0.265396 0.553540 0.694354 -0.270985
H60   H     H_    0.232357 0.523251 0.807144 0.197972
H61   H     H_    0.247803 0.515314 0.565767 0.171107
C52   C     C_3   0.230284 0.642918 0.657837 -0.850873
H62   H     H_    0.275115 0.681031 0.579333 0.227332
H63   H     H_    0.224525 0.675122 0.795872 0.237829
H64   H     H_    0.163904 0.640172 0.569716 0.227114

loop_
_geom_bond_atom_site_label_1
_geom_bond_atom_site_label_2
_ccdc_geom_bond_type
O6    V2    S    
C36   H25   S    
C40   H34   S    
C25   O26   S    
C19   O23   S    
C32   H16   S    
C38   H30   S    
C2    C5    S    
C33   C34   S    
C17   O21   S    
C27   C28   S    
C48   C49   S    
C47   H51   S    
C49   H57   S    
C43   H42   S    
C52   H62   S    
C38   C39   S    
C46   H48   S    
C25   C26   S    
O2    V4    S    
C22   C26   D    
C27   O28   S    
C1    C6    S    
C5    C10   A    
C33   H19   S    
C42   H40   S    
C50   C51   S    
C46   H49   S    
C41   H37   S    
C16   C21   S    
O12   C13   A    
O15   V3    S    
O26   C44   S    
C28   O27   S    
O4    C1    A    
C29   H10   S    
C6    C18   A    
C52   H63   S    
C7    C19   A    
C31   H13   S    
C30   H12   S    
C35   C36   S    
O27   C47   S    
O16   V4    S    
H3    C11   S    
O5    C1    A    
C26   O25   S    
C45   C46   S    
O7    C3    A    
O8    C4    A    
V1    O19   S    
C32   H17   S    
C51   C52   S    
O24   C38   S    
C6    C9    A    
C43   H41   S    
C8    C20   A    
C45   H47   S    
O4    V3    S    
V3    O19   S    
C3    C8    S    
V4    O20   S    
C50   H59   S    
O18   C16   A    
C33   H18   S    
C42   C43   S    
C9    C17   A    
C34   H21   S    
C13   C24   S    
C46   H50   S    
C49   H56   S    
C14   C23   S    
C12   C20   A    
O9    C16   A    
O15   C13   A    
C21   H6    S    
O13   V3    S    
O10   C15   A    
O11   C14   A    
O17   C15   A    
C29   H9    S    
O2    C3    A    
C24   H7    S    
C11   C19   A    
O6    C2    A    
C37   H28   S    
O23   C35   S    
C30   C31   S    
C18   O22   S    
O18   V3    S    
O1    C4    A    
C35   H23   S    
C7    C12   A    
O3    C2    A    
C31   H14   S    
O11   V2    S    
C30   H11   S    
C40   H36   S    
C39   H33   S    
C36   H26   S    
O12   V1    S    
C32   C33   S    
C51   H61   S    
C44   C45   S    
C48   H53   S    
C47   C48   S    
C52   H64   S    
C45   H46   S    
C10   C18   A    
C37   H29   S    
H1    C9    S    
O7    V2    S    
C29   C30   S    
O16   C14   A    
O8    V1    S    
O14   V4    S    
H4    C12   S    
C35   H24   S    
O22   C32   S    
C48   H54   S    
C47   H52   S    
C34   H22   S    
C50   H58   S    
C38   H31   S    
C31   H15   S    
C49   H55   S    
C8    C11   A    
C39   C40   S    
O25   C41   S    
O3    V4    S    
C44   H45   S    
O13   V1    S    
C42   H39   S    
O14   V2    S    
C22   H5    S    
O1    V3    S    
C37   H27   S    
V2    O20   S    
C41   H38   S    
C4    C7    S    
C21   C25   D    
C23   C27   D    
O21   C29   S    
C5    C17   A    
C20   O24   S    
O28   C50   S    
O9    V1    S    
C34   H20   S    
O10   V2    S    
C15   C22   S    
C40   H35   S    
C39   H32   S    
H2    C10   S    
C36   C37   S    
C51   H60   S    
C23   H8    S    
C44   H44   S    
O17   V4    S    
C43   H43   S    
C24   C28   D    
O5    V1    S    
C41   C42   S    
