data_mof_unit_31499.cif
_audit_creation_date              2012-12-11T15:21:35-0500
_audit_creation_method            fapswitch 2.2
_symmetry_space_group_name_H-M    P1
_symmetry_Int_Tables_number       1
_space_group_crystal_system       triclinic
_cell_length_a                    19.4791
_cell_length_b                    7.168189
_cell_length_c                    17.453964
_cell_angle_alpha                 90.000055
_cell_angle_beta                  109.091101
_cell_angle_gamma                 89.999974
_cell_volume                      2303.05384568

loop_
_atom_site_label
_atom_site_type_symbol
_atom_type_description
_atom_site_fract_x
_atom_site_fract_y
_atom_site_fract_z
_atom_type_partial_charge
O1    O     O_R   0.562310 0.505770 0.439670 -0.536271
O2    O     O_R   0.437690 0.005770 0.560330 -0.536271
O3    O     O_R   0.411650 0.169150 0.405330 -0.552677
O4    O     O_R   0.588350 0.669150 0.594670 -0.552676
C1    C     C_R   0.384001 0.344372 0.384316 0.608547
C2    C     C_R   0.615999 0.844372 0.615684 0.608546
O5    O     O_R   0.560140 0.175610 0.430010 -0.537567
O6    O     O_R   0.439860 0.675610 0.569990 -0.537566
O7    O     O_R   0.587240 0.012100 0.585200 -0.533823
O8    O     O_R   0.412760 0.512100 0.414800 -0.533823
C3    C     C_R   0.578666 0.344275 0.412108 0.706420
C4    C     C_R   0.421333 0.844275 0.587892 0.706417
O9    O     O_3   0.508720 0.341420 0.550890 -0.377005
O10   O     O_3   0.491280 0.841420 0.449110 -0.377005
V1    V     V_3+5 0.498380 0.063930 0.490560 1.375094
V2    V     V_3+5 0.501620 0.563930 0.509440 1.375096
C5    C     C_R   0.166977 0.755371 0.861710 -0.224114
C6    C     C_R   0.833023 0.255373 0.138290 -0.224114
C7    C     C_R   0.125966 0.918139 0.859355 -0.151213
C8    C     C_R   0.874035 0.418139 0.140646 -0.151208
C9    C     C_R   0.129007 0.064217 0.804788 -0.065219
C10   C     C_R   0.870995 0.564216 0.195215 -0.065214
C11   C     C_R   0.175488 0.046702 0.756904 0.052946
C12   C     C_R   0.824513 0.546702 0.243097 0.052950
C13   C     C_R   0.218527 0.884531 0.763702 0.045046
C14   C     C_R   0.781473 0.384532 0.236298 0.045043
C15   C     C_R   0.212713 0.737785 0.814818 0.099955
C16   C     C_R   0.787286 0.237787 0.185181 0.099956
C17   C     C_R   0.181379 0.188933 0.703337 -0.146905
C18   C     C_R   0.818622 0.688932 0.296664 -0.146900
C19   C     C_R   0.229433 0.172449 0.659430 -0.180001
C20   C     C_R   0.770567 0.672448 0.340571 -0.180001
C21   C     C_R   0.274141 0.015588 0.668678 0.081056
C22   C     C_R   0.725859 0.515588 0.331321 0.081055
C23   C     C_R   0.268686 0.870159 0.720445 0.039370
C24   C     C_R   0.731313 0.370160 0.279554 0.039369
C25   C     C_R   0.314708 0.712861 0.731015 0.090954
C26   C     C_R   0.685291 0.212861 0.268983 0.090954
C27   C     C_R   0.302608 0.561249 0.776414 -0.196089
C28   C     C_R   0.697392 0.061250 0.223585 -0.196087
C29   C     C_R   0.253187 0.574669 0.818692 -0.205490
C30   C     C_R   0.746813 0.074670 0.181307 -0.205490
C31   C     C_R   0.323595 0.002006 0.626154 -0.210894
C32   C     C_R   0.676405 0.502005 0.373845 -0.210891
C33   C     C_R   0.372874 0.852472 0.639072 -0.112942
C34   C     C_R   0.627126 0.352472 0.360928 -0.112943
C35   C     C_R   0.373062 0.714362 0.698515 0.032966
C36   C     C_R   0.626938 0.214361 0.301484 0.032963
H1    H     H_    0.164571 0.641770 0.901768 0.125898
H2    H     H_    0.835429 0.141772 0.098232 0.125899
H3    H     H_    0.149962 0.316072 0.695660 0.172358
H4    H     H_    0.850039 0.816071 0.304341 0.172361
H5    H     H_    0.232882 0.285391 0.619576 0.174822
H6    H     H_    0.767118 0.785389 0.380425 0.174823
H7    H     H_    0.324199 0.110696 0.583195 0.140094
H8    H     H_    0.675800 0.610695 0.416805 0.140093
H9    H     H_    0.331264 0.430773 0.779622 0.133677
H10   H     H_    0.668736 0.930773 0.220377 0.133676
H11   H     H_    0.247165 0.457380 0.855181 0.116925
H12   H     H_    0.752835 0.957382 0.144817 0.116926
C37   C     C_3   0.789936 0.701389 0.798840 -0.273759
C38   C     C_3   0.210064 0.201389 0.201160 -0.273756
H13   H     H_    0.833177 0.614209 0.789099 0.182311
H14   H     H_    0.166822 0.114210 0.210900 0.182314
H15   H     H_    0.784326 0.649542 0.856702 0.111737
H16   H     H_    0.215674 0.149542 0.143298 0.111737
C39   C     C_3   0.716109 0.671392 0.731031 -0.091043
C40   C     C_3   0.283891 0.171391 0.268969 -0.091044
H17   H     H_    0.676473 0.630670 0.761653 0.069207
H18   H     H_    0.323526 0.130667 0.238348 0.069209
C41   C     C_3   0.821019 0.987935 0.727847 -0.082186
C42   C     C_3   0.178982 0.487937 0.272152 -0.082189
C43   C     C_3   0.751397 0.019724 0.825536 -0.400353
C44   C     C_3   0.248603 0.519723 0.174464 -0.400355
C45   C     C_3   0.814228 0.911049 0.809362 0.016678
C46   C     C_3   0.185772 0.411049 0.190638 0.016678
H19   H     H_    0.765923 0.169889 0.836439 0.137018
H20   H     H_    0.234078 0.669887 0.163560 0.137018
H21   H     H_    0.744734 0.967125 0.882665 0.139207
H22   H     H_    0.255266 0.467123 0.117335 0.139207
C47   C     C_3   0.688410 0.860738 0.685878 -0.070663
C48   C     C_3   0.311590 0.360737 0.314122 -0.070666
C49   C     C_3   0.748664 0.949920 0.654656 -0.140098
C50   C     C_3   0.251336 0.449921 0.345344 -0.140098
C51   C     C_3   0.679272 0.002058 0.751794 -0.049368
C52   C     C_3   0.320728 0.502056 0.248206 -0.049366
H23   H     H_    0.669041 0.141371 0.722392 0.131159
H24   H     H_    0.330960 0.641369 0.277607 0.131159
H25   H     H_    0.822267 0.142290 0.735836 0.163723
H26   H     H_    0.177733 0.642290 0.264163 0.163725
H27   H     H_    0.727622 0.089726 0.630026 0.146268
H28   H     H_    0.272379 0.589728 0.369973 0.146270
O11   O     O_R   0.087220 0.271820 0.085230 -0.545816
O12   O     O_R   0.912780 0.771820 0.914770 -0.545816
O13   O     O_R   0.939860 0.595540 0.069990 -0.550529
O14   O     O_R   0.060140 0.095540 0.930010 -0.550527
C53   C     C_R   0.920665 0.427106 0.087249 0.696322
C54   C     C_R   0.079336 0.927106 0.912752 0.696328
O15   O     O_R   0.088340 0.601930 0.094680 -0.537887
O16   O     O_R   0.911660 0.101930 0.905320 -0.537886
O17   O     O_R   0.062310 0.765410 0.939660 -0.535206
O18   O     O_R   0.937690 0.265410 0.060340 -0.535207
C55   C     C_R   0.115409 0.431679 0.118323 0.664509
C56   C     C_R   0.884591 0.931679 0.881676 0.664510
O19   O     O_3   0.991270 0.429630 0.949130 -0.373780
O20   O     O_3   0.008730 0.929630 0.050870 -0.373784
V3    V     V_3+5 0.001620 0.707150 0.009440 1.379622
V4    V     V_3+5 0.998380 0.207150 0.990560 1.379627
C57   C     C_2   0.717690 0.503392 0.678395 0.254782
H29   H     H_    0.669411 0.418583 0.654082 0.090324
O21   O     O_2   0.772288 0.457151 0.663606 -0.565089
C58   C     C_2   0.282309 0.003392 0.321606 0.254776
H30   H     H_    0.330588 0.918586 0.345921 0.090329
O22   O     O_2   0.227710 0.957147 0.336392 -0.565091
C59   C     C_3   0.894751 0.955934 0.712730 -0.318303
C60   C     C_3   0.917857 0.752867 0.707463 -0.309023
C61   C     C_3   0.977210 0.740924 0.668226 -0.662141
H31   H     H_    0.956656 0.793690 0.604943 0.247567
H32   H     H_    0.025222 0.823969 0.703056 0.236863
H33   H     H_    0.994173 0.593670 0.666834 0.254470
H34   H     H_    0.939332 0.692215 0.769276 0.193992
H35   H     H_    0.871611 0.668245 0.670673 0.259812
H36   H     H_    0.893032 0.032399 0.656774 0.254000
H37   H     H_    0.938628 0.024595 0.762122 0.177546
C62   C     C_3   0.105249 0.455938 0.287270 -0.318299
C63   C     C_3   0.082144 0.252871 0.292539 -0.309048
C64   C     C_3   0.022799 0.240928 0.331788 -0.662129
H38   H     H_    0.005843 0.093667 0.333192 0.254464
H39   H     H_    0.043362 0.293709 0.395069 0.247571
H40   H     H_    0.974783 0.323962 0.296961 0.236868
H41   H     H_    0.060661 0.192221 0.230727 0.193994
H42   H     H_    0.128391 0.168248 0.329322 0.259813
H43   H     H_    0.106969 0.532407 0.343225 0.254000
H44   H     H_    0.061372 0.524596 0.237877 0.177543
C65   C     C_2   0.757418 0.852314 0.581434 0.367617
H45   H     H_    0.735212 0.714956 0.563480 0.091490
O23   O     O_2   0.787013 0.931626 0.538783 -0.536948
C66   C     C_2   0.242582 0.352318 0.418566 0.367613
H46   H     H_    0.264784 0.214957 0.436519 0.091491
O24   O     O_2   0.212990 0.431635 0.461219 -0.536949
C67   C     C_3   0.613576 0.959242 0.780680 -0.338475
C68   C     C_3   0.581299 0.137488 0.803544 -0.311878
C69   C     C_3   0.514832 0.092714 0.827971 -0.771180
H47   H     H_    0.474949 0.012042 0.779374 0.237061
H48   H     H_    0.531361 0.014216 0.885904 0.224544
H49   H     H_    0.487274 0.221578 0.836447 0.226358
H50   H     H_    0.622849 0.208220 0.854604 0.191789
H51   H     H_    0.564389 0.233819 0.750704 0.196652
H52   H     H_    0.569705 0.887141 0.732890 0.163784
H53   H     H_    0.630650 0.864356 0.833510 0.182772
C70   C     C_3   0.386424 0.459236 0.219320 -0.338473
C71   C     C_3   0.418702 0.637479 0.196456 -0.311878
C72   C     C_3   0.485168 0.592701 0.172028 -0.771178
H54   H     H_    0.525050 0.512025 0.220624 0.237063
H55   H     H_    0.468638 0.514205 0.114094 0.224544
H56   H     H_    0.512727 0.721563 0.163552 0.226356
H57   H     H_    0.377153 0.708215 0.145397 0.191788
H58   H     H_    0.435614 0.733809 0.249297 0.196654
H59   H     H_    0.430294 0.387131 0.267109 0.163782
H60   H     H_    0.369348 0.364350 0.166489 0.182771
C73   C     C_2   0.082467 0.231836 0.795358 0.332157
H61   H     H_    0.091550 0.330540 0.844775 0.073243
O25   O     O_2   0.033838 0.260715 0.731603 -0.544865
C74   C     C_2   0.917539 0.731828 0.204649 0.332141
H62   H     H_    0.908462 0.830535 0.155234 0.073252
O26   O     O_2   0.966165 0.760703 0.268408 -0.544862
C75   C     C_3   0.439870 0.591103 0.737194 -0.350736
C76   C     C_3   0.469269 0.612255 0.831114 -0.287470
C77   C     C_3   0.551182 0.577589 0.869579 -0.790262
H63   H     H_    0.578785 0.557086 0.823815 0.215228
H64   H     H_    0.576814 0.696302 0.909403 0.212865
H65   H     H_    0.561344 0.453114 0.909462 0.224284
H66   H     H_    0.456377 0.752828 0.848924 0.198590
H67   H     H_    0.441194 0.513836 0.859802 0.179753
H68   H     H_    0.425960 0.442914 0.720678 0.168120
H69   H     H_    0.484148 0.629081 0.713510 0.177703
C78   C     C_3   0.560130 0.091098 0.262807 -0.350733
C79   C     C_3   0.530731 0.112242 0.168886 -0.287465
C80   C     C_3   0.448817 0.077579 0.130423 -0.790258
H70   H     H_    0.421215 0.057081 0.176187 0.215226
H71   H     H_    0.423186 0.196291 0.090598 0.212864
H72   H     H_    0.438655 0.953101 0.090541 0.224283
H73   H     H_    0.543624 0.252811 0.151073 0.198589
H74   H     H_    0.558805 0.013816 0.140199 0.179749
H75   H     H_    0.574042 0.942911 0.279325 0.168120
H76   H     H_    0.515853 0.129077 0.286490 0.177703

loop_
_geom_bond_atom_site_label_1
_geom_bond_atom_site_label_2
_ccdc_geom_bond_type
C62   H44   S    
O17   V3    S    
C69   H49   S    
O15   C55   A    
C63   C64   S    
C43   C45   S    
C77   H63   S    
O1    C3    A    
C42   C46   S    
O2    C4    A    
O11   C55   A    
C2    O7    A    
C58   O22   D    
C79   C80   S    
C67   H52   S    
C65   H45   S    
C27   C29   A    
C37   C45   S    
C76   H67   S    
C74   O26   D    
C60   H35   S    
C11   C17   A    
C74   H62   S    
C23   C25   A    
C12   C14   A    
C57   O21   D    
O11   V4    S    
C52   H24   S    
C34   C36   A    
O20   V3    S    
C69   H47   S    
C27   H9    S    
O16   C56   A    
C78   H75   S    
C60   C61   S    
C6    C8    A    
C69   H48   S    
C40   C58   S    
C37   H13   S    
C37   C39   S    
C36   C78   S    
C38   H14   S    
C47   C49   S    
C39   C57   S    
C8    C53   S    
C15   C29   A    
O14   C54   A    
C70   C71   S    
C19   C21   A    
O18   V4    S    
C72   H55   S    
C49   C65   S    
C53   O18   A    
C47   C51   S    
C80   H72   S    
C46   C55   S    
C33   C35   A    
O14   V4    S    
C50   C66   S    
O6    V2    S    
C2    C47   S    
C44   H22   S    
C77   H64   S    
C38   C46   S    
C20   H6    S    
C58   H30   S    
C73   O25   D    
C7    C54   S    
C32   C34   A    
C67   H53   S    
C73   H61   S    
C41   C49   S    
C51   H23   S    
C76   H66   S    
O19   V4    S    
C71   H58   S    
O12   V3    S    
O16   V4    S    
C28   H10   S    
C60   H34   S    
C38   H16   S    
C41   C59   S    
C5    C15   A    
C68   H51   S    
C59   H36   S    
C29   H11   S    
O4    C2    A    
C61   H33   S    
C5    H1    S    
C75   C76   S    
C4    C33   S    
O5    V1    S    
C48   C52   S    
C19   H5    S    
C78   H76   S    
C14   C24   A    
C39   H17   S    
C20   C22   A    
O4    V2    S    
O5    C3    A    
C64   H39   S    
C18   C20   A    
C35   C75   S    
C32   H8    S    
C41   H25   S    
C63   H42   S    
O6    C4    A    
C43   H21   S    
C6    C16   A    
O1    V2    S    
C44   C52   S    
C72   H56   S    
O2    V1    S    
C31   C33   A    
C43   C51   S    
C42   C50   S    
O13   V3    S    
C13   C23   A    
C51   C67   S    
C31   H7    S    
C76   C77   S    
C8    C10   A    
C39   C47   S    
C48   C50   S    
C9    C11   A    
C52   C70   S    
C62   C63   S    
C77   H65   S    
C10   C12   A    
C25   C35   A    
C44   C46   S    
C30   H12   S    
C64   H38   S    
O3    V1    S    
C6    H2    S    
C75   H68   S    
C42   H26   S    
C17   H3    S    
C62   H43   S    
C65   O23   D    
C22   C32   A    
C18   H4    S    
C71   H57   S    
C59   H37   S    
C7    C9    A    
C68   C69   S    
C26   C36   A    
C68   H50   S    
C79   H73   S    
C28   C30   A    
O3    C1    A    
O13   C53   A    
C66   O24   D    
C13   C15   A    
C54   O17   A    
O15   V3    S    
C14   C16   A    
C38   C40   S    
C42   C62   S    
C40   C48   S    
C70   H60   S    
C61   H32   S    
C10   C74   S    
O7    V1    S    
C64   H40   S    
C1    O8    A    
C17   C19   A    
O8    V2    S    
C67   C68   S    
C24   C26   A    
C41   C45   S    
C1    C48   S    
C45   C56   S    
C26   C28   A    
C63   H41   S    
C49   H27   S    
C16   C30   A    
C21   C23   A    
C22   C24   A    
C11   C13   A    
C12   C18   A    
C66   H46   S    
O12   C56   A    
C80   H70   S    
C5    C7    A    
C37   H15   S    
C71   C72   S    
C25   C27   A    
C78   C79   S    
C44   H20   S    
O9    V2    S    
C57   H29   S    
C40   H18   S    
C43   H19   S    
O10   V1    S    
C3    C34   S    
C50   H28   S    
C72   H54   S    
C61   H31   S    
C21   C31   A    
C79   H74   S    
C59   C60   S    
C70   H59   S    
C75   H69   S    
C80   H71   S    
C9    C73   S    
