data_mof_unit_17140.cif
_audit_creation_date              2012-12-11T15:15:41-0500
_audit_creation_method            fapswitch 2.2
_symmetry_space_group_name_H-M    P1
_symmetry_Int_Tables_number       1
_space_group_crystal_system       triclinic
_cell_length_a                    20.714856
_cell_length_b                    22.677565
_cell_length_c                    6.936583
_cell_angle_alpha                 90.000617
_cell_angle_beta                  86.982442
_cell_angle_gamma                 90.030363
_cell_volume                      3254.02792999

loop_
_atom_site_label
_atom_site_type_symbol
_atom_type_description
_atom_site_fract_x
_atom_site_fract_y
_atom_site_fract_z
_atom_type_partial_charge
O1    O     O_R   0.387100 0.552640 0.378490 -0.526585
O2    O     O_R   0.612900 0.052640 0.621510 -0.526677
O3    O     O_R   0.249610 0.559600 0.072250 -0.550793
O4    O     O_R   0.750390 0.059600 0.927750 -0.550674
O5    O     O_R   0.249120 0.447360 0.902040 -0.546884
O6    O     O_R   0.750880 0.947360 0.097960 -0.547112
C1    C     C_R   0.227028 0.573358 0.244437 0.672102
C2    C     C_R   0.772493 0.073917 0.755518 0.671454
O7    O     O_R   0.386610 0.559560 0.048860 -0.532439
O8    O     O_R   0.613390 0.059560 0.951140 -0.532639
O9    O     O_R   0.387100 0.447320 0.878470 -0.533718
O10   O     O_R   0.612900 0.947320 0.121530 -0.533681
C3    C     C_R   0.407869 0.574813 0.214682 0.716763
C4    C     C_R   0.592163 0.074840 0.785304 0.715922
O11   O     O_R   0.249120 0.552680 0.402050 -0.547655
O12   O     O_R   0.750880 0.052680 0.597950 -0.547908
O13   O     O_3   0.318110 0.463180 0.223790 -0.368390
O14   O     O_3   0.681890 0.963180 0.776210 -0.367968
V1    V     V_3+5 0.318110 0.506830 0.948930 1.450779
V2    V     V_3+5 0.681890 0.006830 0.051070 1.450653
O15   O     O_R   0.386610 0.440400 0.548840 -0.526627
O16   O     O_R   0.613390 0.940400 0.451160 -0.526423
C5    C     C_R   0.407646 0.424965 0.714752 0.790351
C6    C     C_R   0.592321 0.924993 0.285264 0.791121
O17   O     O_R   0.249610 0.440440 0.572240 -0.547579
O18   O     O_R   0.750390 0.940440 0.427760 -0.547086
C7    C     C_R   0.227420 0.426209 0.744464 0.687740
C8    C     C_R   0.773059 0.926772 0.255588 0.689096
V3    V     V_3+5 0.318110 0.493170 0.448930 1.465593
V4    V     V_3+5 0.681890 0.993170 0.551070 1.466502
O19   O     O_3   0.318110 0.536820 0.723940 -0.370837
O20   O     O_3   0.681890 0.036820 0.276060 -0.371288
C9    C     C_R   0.174771 0.382295 0.762011 -0.043857
C10   C     C_R   0.827808 0.885159 0.238274 -0.041831
C11   C     C_R   0.151333 0.355822 0.596360 -0.156275
C12   C     C_R   0.857535 0.865499 0.403964 -0.157434
C13   C     C_R   0.101501 0.314497 0.612558 -0.109894
C14   C     C_R   0.910601 0.827751 0.387773 -0.112655
C15   C     C_R   0.073676 0.299160 0.795039 0.165671
C16   C     C_R   0.934620 0.808336 0.205221 0.168098
C17   C     C_R   0.097879 0.324672 0.960560 -0.136694
C18   C     C_R   0.905223 0.828220 0.039793 -0.136480
C19   C     C_R   0.147730 0.366035 0.944480 -0.155162
C20   C     C_R   0.852202 0.866097 0.055875 -0.154908
C21   C     C_R   0.897887 0.186103 0.887499 -0.123810
C22   C     C_R   0.089858 0.672862 0.112600 -0.120584
C23   C     C_R   0.848282 0.144556 0.903656 -0.180355
C24   C     C_R   0.142711 0.634866 0.096260 -0.179542
C25   C     C_R   0.851752 0.134545 0.555494 -0.167738
C26   C     C_R   0.148438 0.634555 0.444240 -0.167991
C27   C     C_R   0.901391 0.176121 0.539454 -0.143653
C28   C     C_R   0.095623 0.672665 0.460472 -0.145051
C29   C     C_R   0.925570 0.201629 0.705020 0.170101
C30   C     C_R   0.066127 0.692510 0.295172 0.167270
C31   C     C_2   0.020496 0.255820 0.818904 -0.189067
C32   C     C_2   0.991301 0.768917 0.180878 -0.195174
C33   C     C_2   0.978663 0.245067 0.681244 -0.197916
C34   C     C_2   0.009547 0.732034 0.319690 -0.190521
C35   C     C_R   0.824915 0.118050 0.737972 -0.046182
C36   C     C_R   0.172503 0.615204 0.261831 -0.045806
H1    H     H_    0.171680 0.366718 0.453793 0.126946
H2    H     H_    0.840516 0.879985 0.546451 0.122727
H3    H     H_    0.828065 0.133501 0.046235 0.123046
H4    H     H_    0.159497 0.620181 0.953781 0.121971
H5    H     H_    0.834612 0.115259 0.424826 0.122741
H6    H     H_    0.170141 0.620084 0.574754 0.122548
H7    H     H_    0.983754 0.267937 0.543901 0.121510
H8    H     H_    0.982783 0.730785 0.458296 0.127517
H9    H     H_    0.077629 0.313053 0.102717 0.098219
H10   H     H_    0.923215 0.814210 0.897620 0.099577
H11   H     H_    0.913427 0.206513 0.018092 0.098156
H12   H     H_    0.067018 0.685356 0.982139 0.099310
H13   H     H_    0.164887 0.385327 0.075120 0.123476
H14   H     H_    0.830588 0.880607 0.925265 0.125310
H15   H     H_    0.015414 0.232954 0.956250 0.125476
H16   H     H_    0.018088 0.770159 0.042299 0.121148
H17   H     H_    0.085916 0.294079 0.482026 0.101849
H18   H     H_    0.933343 0.815246 0.518378 0.096516
H19   H     H_    0.921522 0.187888 0.397297 0.099141
H20   H     H_    0.077852 0.686863 0.602657 0.098326
C37   C     C_R   0.577887 0.364890 0.721166 0.394356
C38   C     C_R   0.422074 0.864837 0.278699 0.394437
H21   H     H_    0.668184 0.279722 0.722523 0.150668
H22   H     H_    0.331775 0.779581 0.277087 0.150383
C39   C     C_R   0.462473 0.383043 0.716187 -0.155649
C40   C     C_R   0.537483 0.883063 0.283839 -0.155867
C41   C     C_R   0.475473 0.094151 0.782250 -0.148273
C42   C     C_R   0.524544 0.594226 0.217977 -0.148489
C43   C     C_R   0.423468 0.129605 0.739865 -0.085586
C44   C     C_R   0.576514 0.629735 0.260651 -0.085495
C45   C     C_R   0.431490 0.189897 0.703470 0.146110
C46   C     C_R   0.568445 0.690010 0.297084 0.145863
C47   C     C_R   0.492266 0.217560 0.732187 0.068270
C48   C     C_R   0.507687 0.717598 0.268041 0.068235
C49   C     C_R   0.546646 0.179457 0.757694 0.047891
C50   C     C_R   0.453337 0.679445 0.242310 0.048060
C51   C     C_R   0.502349 0.280556 0.728853 0.052271
C52   C     C_R   0.497596 0.780569 0.271271 0.052169
C53   C     C_R   0.566572 0.303056 0.725412 -0.003229
C54   C     C_R   0.433379 0.803013 0.274509 -0.003005
C55   C     C_R   0.618822 0.263823 0.730244 -0.175892
C56   C     C_R   0.381136 0.763731 0.269529 -0.176115
C57   C     C_R   0.609028 0.203615 0.752467 -0.182968
C58   C     C_R   0.390950 0.703534 0.247332 -0.183012
C59   C     C_R   0.451194 0.322273 0.741628 -0.224030
C60   C     C_R   0.548757 0.822309 0.258532 -0.223847
C61   C     C_R   0.526167 0.404018 0.700744 0.067389
C62   C     C_R   0.473799 0.904002 0.299167 0.067096
C63   C     C_R   0.537761 0.117470 0.781232 -0.085675
C64   C     C_R   0.462257 0.617480 0.218781 -0.085959
H23   H     H_    0.402365 0.308828 0.779174 0.162849
H24   H     H_    0.597593 0.808885 0.221155 0.162762
H25   H     H_    0.467741 0.047181 0.801147 0.143477
H26   H     H_    0.532290 0.547264 0.199093 0.143505
H27   H     H_    0.377054 0.108882 0.721984 0.159808
H28   H     H_    0.622917 0.609066 0.278781 0.159851
H29   H     H_    0.651204 0.175891 0.764007 0.101238
H30   H     H_    0.348785 0.675763 0.235649 0.101177
I1    I     I_    0.544998 0.495642 0.655184 -0.441082
I2    I     I_    0.455007 0.995617 0.344672 -0.441141
O21   O     O_3   0.639828 0.387719 0.728767 -0.563611
C65   C     C_3   0.660227 0.385427 0.920974 0.075336
H31   H     H_    0.713602 0.380026 0.912592 0.145353
H32   H     H_    0.640323 0.347089 0.005700 0.107009
C66   C     C_3   0.643522 0.442689 0.029730 -0.320142
H33   H     H_    0.663619 0.480890 0.946013 0.234990
H34   H     H_    0.590177 0.447507 0.047151 0.208302
C67   C     C_3   0.670907 0.442861 0.229646 -0.753655
H35   H     H_    0.649918 0.406017 0.317953 0.259603
H36   H     H_    0.658568 0.485128 0.303445 0.255471
H37   H     H_    0.724357 0.438360 0.217740 0.226567
O22   O     O_3   0.360141 0.887617 0.270993 -0.563587
C68   C     C_3   0.339785 0.885318 0.078738 0.075395
H38   H     H_    0.286411 0.879854 0.087015 0.145212
H39   H     H_    0.359716 0.847012 0.994001 0.107005
C69   C     C_3   0.356495 0.942612 0.970082 -0.320195
H40   H     H_    0.336389 0.980782 0.053839 0.234965
H41   H     H_    0.409841 0.947484 0.952712 0.208294
C70   C     C_3   0.329130 0.942784 0.770140 -0.753683
H42   H     H_    0.350131 0.905975 0.681790 0.259654
H43   H     H_    0.341470 0.985074 0.696420 0.255445
H44   H     H_    0.275680 0.938226 0.781992 0.226551
I3    I     I_    0.354396 0.225894 0.547330 -0.423862
I4    I     I_    0.645340 0.726094 0.453990 -0.422153

loop_
_geom_bond_atom_site_label_1
_geom_bond_atom_site_label_2
_ccdc_geom_bond_type
C19   H13   S    
C4    C63   S    
V4    O20   S    
C43   H27   S    
C32   H16   S    
O6    C8    A    
C21   H11   S    
H22   C56   S    
C62   I2    S    
O4    C2    A    
V1    O19   S    
C67   H35   S    
C37   C61   A    
C15   C17   A    
C60   H24   S    
C7    C9    S    
O9    V1    S    
C25   H5    S    
C11   C13   A    
O3    C1    A    
C2    C35   S    
C23   H3    S    
C56   C58   A    
C70   H44   S    
C12   H2    S    
C24   H4    S    
C48   C52   A    
O12   V4    S    
C18   H10   S    
O13   V3    S    
C6    C40   S    
O7    C3    A    
C9    C11   A    
O5    C7    A    
O7    V1    S    
C45   I3    S    
C15   C31   S    
O8    V2    S    
O22   C68   S    
C25   C27   A    
C66   C67   S    
C26   C28   A    
O3    V1    S    
C52   C60   A    
O14   V4    S    
C38   C62   A    
C43   C45   A    
H21   C55   S    
C22   H12   S    
C24   C36   A    
C42   C64   A    
C28   C30   A    
C16   C18   A    
C59   H23   S    
O2    C4    A    
C8    C10   S    
C2    O12   A    
C50   C64   A    
V3    O19   S    
C17   C19   A    
O10   V2    S    
C57   H29   S    
C18   C20   A    
C33   H7    S    
C69   C70   S    
C39   C59   A    
C61   I1    S    
O18   C8    A    
C51   C53   A    
C49   C57   A    
O11   V3    S    
C58   H30   S    
C21   C23   A    
O17   V3    S    
C22   C24   A    
C23   C35   A    
C37   C53   A    
C9    C19   A    
C10   C20   A    
C69   H41   S    
C49   C63   A    
C29   C33   S    
C1    O11   A    
C14   H18   S    
C16   C32   S    
O15   V3    S    
C37   O21   S    
C27   C29   A    
C20   H14   S    
C3    C64   S    
C66   H34   S    
C45   C47   A    
C44   C46   A    
C40   C60   A    
C22   C30   A    
O1    V3    S    
C11   H1    S    
C48   C50   A    
C26   H6    S    
O21   C65   S    
C68   C69   S    
C41   C63   A    
C34   H8    S    
C53   C55   A    
C42   C44   A    
O18   V4    S    
C44   H28   S    
C31   C33   D    
O8    C4    A    
C66   H33   S    
C30   C34   S    
O16   C6    A    
O1    C3    A    
C38   O22   S    
C12   C14   A    
C67   H37   S    
C47   C51   A    
C1    C36   S    
C17   H9    S    
C54   C56   A    
V2    O20   S    
C50   C58   A    
O16   V4    S    
C38   C54   A    
C51   C59   A    
C40   C62   A    
C69   H40   S    
C67   H36   S    
C70   H42   S    
O5    V1    S    
O17   C7    A    
O6    V2    S    
O10   C6    A    
C52   C54   A    
C25   C35   A    
C55   C57   A    
O2    V4    S    
C26   C36   A    
C65   C66   S    
O15   C5    A    
C31   H15   S    
C13   C15   A    
C28   H20   S    
C14   C16   A    
C70   H43   S    
C46   C48   A    
C68   H38   S    
C13   H17   S    
O9    C5    A    
O13   V1    S    
C10   C12   A    
C32   C34   D    
O14   V2    S    
C42   H26   S    
C46   I4    S    
C27   H19   S    
C41   H25   S    
C21   C29   A    
O4    V2    S    
C47   C49   A    
C5    C39   S    
C68   H39   S    
C41   C43   A    
C65   H31   S    
C39   C61   A    
C65   H32   S    
