data_mof_unit_34056.cif
_audit_creation_date              2013-03-05T15:45:38-0500
_audit_creation_method            fapswitch 2.2
_symmetry_space_group_name_H-M    P1
_symmetry_Int_Tables_number       1
_space_group_crystal_system       triclinic
_cell_length_a                    25.798991
_cell_length_b                    25.947463
_cell_length_c                    18.43999
_cell_angle_alpha                 89.044269
_cell_angle_beta                  135.183283
_cell_angle_gamma                 90.892908
_cell_volume                      8699.27410496

loop_
_atom_site_label
_atom_site_type_symbol
_atom_site_description
_atom_site_fract_x
_atom_site_fract_y
_atom_site_fract_z
_atom_type_partial_charge
Zn1   Zn    Zn3+2 0.663270 0.706640 0.413250 1.175349
Zn2   Zn    Zn3+2 0.663270 0.293360 0.413250 1.156062
Zn3   Zn    Zn3+2 0.163270 0.206640 0.413250 1.172540
Zn4   Zn    Zn3+2 0.163270 0.793360 0.413250 1.164383
Zn5   Zn    Zn3+2 0.836780 0.706640 0.586750 1.131432
Zn6   Zn    Zn3+2 0.836780 0.293360 0.586750 1.069768
Zn7   Zn    Zn3+2 0.336780 0.206640 0.586750 1.138591
Zn8   Zn    Zn3+2 0.336780 0.793360 0.586750 1.068747
Zn9   Zn    Zn3+2 0.750020 0.793390 0.413240 1.181151
Zn10  Zn    Zn3+2 0.750020 0.206610 0.413240 1.128735
Zn11  Zn    Zn3+2 0.250020 0.293390 0.413240 1.190357
Zn12  Zn    Zn3+2 0.250020 0.706610 0.413240 1.126900
Zn13  Zn    Zn3+2 0.750010 0.793400 0.586760 1.115258
Zn14  Zn    Zn3+2 0.750010 0.206600 0.586760 1.153575
Zn15  Zn    Zn3+2 0.250010 0.293400 0.586760 1.118542
Zn16  Zn    Zn3+2 0.250010 0.706600 0.586760 1.120327
O1    O     O_3   0.750020 0.750020 0.500000 -0.578623
O2    O     O_3   0.750020 0.249980 0.500000 -0.566870
O3    O     O_3   0.250020 0.250020 0.500000 -0.577323
O4    O     O_3   0.250020 0.749980 0.500000 -0.565017
O5    O     O_R   0.835450 0.780390 0.731600 -0.625690
O6    O     O_R   0.835450 0.219610 0.731600 -0.607751
O7    O     O_R   0.335450 0.280390 0.731600 -0.626121
O8    O     O_R   0.335450 0.719610 0.731600 -0.619544
O9    O     O_R   0.603870 0.719650 0.268400 -0.607499
O10   O     O_R   0.603870 0.280350 0.268400 -0.619054
O11   O     O_R   0.103870 0.219650 0.268400 -0.622238
O12   O     O_R   0.103870 0.780350 0.268400 -0.603018
O13   O     O_R   0.810750 0.634210 0.560720 -0.583136
O14   O     O_R   0.810750 0.365790 0.560720 -0.586561
O15   O     O_R   0.310750 0.134210 0.560720 -0.577945
O16   O     O_R   0.310750 0.865790 0.560720 -0.586614
O17   O     O_R   0.750010 0.865820 0.439280 -0.572796
O18   O     O_R   0.750010 0.134180 0.439280 -0.595416
O19   O     O_R   0.250010 0.365820 0.439280 -0.574400
O20   O     O_R   0.250010 0.634180 0.439280 -0.591403
O21   O     O_R   0.896180 0.719650 0.560720 -0.625431
O22   O     O_R   0.896180 0.280350 0.560720 -0.613165
O23   O     O_R   0.396180 0.219650 0.560720 -0.614522
O24   O     O_R   0.396180 0.780350 0.560720 -0.613450
O25   O     O_R   0.664570 0.780390 0.560720 -0.594314
O26   O     O_R   0.664570 0.219610 0.560720 -0.555944
O27   O     O_R   0.164570 0.280390 0.560720 -0.598483
O28   O     O_R   0.164570 0.719610 0.560720 -0.584442
O29   O     O_R   0.835460 0.780370 0.439280 -0.559042
O30   O     O_R   0.835460 0.219630 0.439280 -0.609204
O31   O     O_R   0.335460 0.280370 0.439280 -0.562917
O32   O     O_R   0.335460 0.719630 0.439280 -0.607690
O33   O     O_R   0.603860 0.719660 0.439280 -0.588639
O34   O     O_R   0.603860 0.280340 0.439280 -0.583156
O35   O     O_R   0.103860 0.219660 0.439280 -0.587870
O36   O     O_R   0.103860 0.780340 0.439280 -0.568485
O37   O     O_R   0.689310 0.634210 0.439280 -0.566535
O38   O     O_R   0.689310 0.365790 0.439280 -0.595817
O39   O     O_R   0.189310 0.134210 0.439280 -0.576241
O40   O     O_R   0.189310 0.865790 0.439280 -0.592858
O41   O     O_R   0.750010 0.865830 0.560720 -0.616276
O42   O     O_R   0.750010 0.134170 0.560720 -0.570417
O43   O     O_R   0.250010 0.365830 0.560720 -0.612710
O44   O     O_R   0.250010 0.634170 0.560720 -0.598678
O45   O     O_R   0.896180 0.719660 0.731600 -0.567889
O46   O     O_R   0.896180 0.280340 0.731600 -0.611345
O47   O     O_R   0.396180 0.219660 0.731600 -0.566791
O48   O     O_R   0.396180 0.780340 0.731600 -0.610227
O49   O     O_R   0.664580 0.780370 0.268400 -0.599908
O50   O     O_R   0.664580 0.219630 0.268400 -0.570417
O51   O     O_R   0.164580 0.280370 0.268400 -0.591141
O52   O     O_R   0.164580 0.719630 0.268400 -0.574242
C1    C     C_R   0.891586 0.750661 0.780174 0.967355
C2    C     C_R   0.888255 0.252225 0.780831 0.868106
C3    C     C_R   0.391739 0.250818 0.780275 0.959957
C4    C     C_R   0.388267 0.752237 0.780834 0.868576
C5    C     C_R   0.613300 0.746836 0.219889 0.920910
C6    C     C_R   0.606940 0.248352 0.219708 0.916802
C7    C     C_R   0.113085 0.247032 0.219846 0.928927
C8    C     C_R   0.107172 0.748837 0.219602 0.913903
C9    C     C_R   0.749512 0.609871 0.506789 0.937874
C10   C     C_R   0.750015 0.390429 0.504580 0.854841
C11   C     C_R   0.249595 0.109885 0.507053 0.930612
C12   C     C_R   0.250018 0.890444 0.504784 0.853450
C13   C     C_R   0.748072 0.890096 0.497096 0.961934
C14   C     C_R   0.754397 0.109796 0.505828 0.871942
C15   C     C_R   0.248559 0.389952 0.497576 0.974498
C16   C     C_R   0.252114 0.609738 0.503555 0.869154
C17   C     C_R   0.889352 0.749528 0.498693 0.909618
C18   C     C_R   0.890383 0.251406 0.500290 0.844236
C19   C     C_R   0.389396 0.249597 0.498811 0.934347
C20   C     C_R   0.390412 0.751376 0.500347 0.845099
C21   C     C_R   0.609949 0.748966 0.499631 0.944299
C22   C     C_R   0.609060 0.248901 0.498015 0.962495
C23   C     C_R   0.109994 0.248915 0.499729 0.952567
C24   C     C_R   0.109431 0.749331 0.498717 0.940993
C25   C     C_R   0.643949 0.723568 0.688159 0.148623
C26   C     C_R   0.495186 0.165764 0.386423 0.151199
C27   C     C_R   0.144167 0.224356 0.688647 0.147839
C28   C     C_R   0.001303 0.663328 0.397462 0.249311
C29   C     C_R   0.662810 0.728934 0.780982 0.381737
C30   C     C_R   0.437301 0.129295 0.328288 0.409757
C31   C     C_R   0.163027 0.230221 0.781373 0.382240
C32   C     C_R   0.954595 0.620615 0.360107 0.291824
C33   C     C_R   0.617305 0.757244 0.781296 0.354508
C34   C     C_R   0.380322 0.132077 0.321475 0.410071
C35   C     C_R   0.117313 0.258586 0.781191 0.354653
C36   C     C_R   0.902444 0.619535 0.364687 0.301839
C37   C     C_R   0.550129 0.777236 0.687825 0.100791
C38   C     C_R   0.380461 0.170591 0.374764 0.138637
C39   C     C_R   0.049874 0.278039 0.687362 0.101542
C40   C     C_R   0.892755 0.663052 0.397940 0.276121
C41   C     C_R   0.522916 0.758551 0.593990 -0.131650
C42   C     C_R   0.438629 0.208135 0.435010 -0.106393
C43   C     C_R   0.022843 0.258970 0.593858 -0.131871
C44   C     C_R   0.943870 0.705240 0.444829 -0.149229
C45   C     C_R   0.574380 0.741709 0.594160 -0.114312
C46   C     C_R   0.495794 0.206536 0.438794 -0.108743
C47   C     C_R   0.074448 0.242090 0.594329 -0.118154
C48   C     C_R   0.999553 0.705064 0.445698 -0.153555
C49   C     C_R   0.554068 0.744641 0.500127 -0.119239
C50   C     C_R   0.550723 0.246347 0.493589 -0.146052
C51   C     C_R   0.054123 0.244589 0.500258 -0.124223
C52   C     C_R   0.050629 0.747098 0.493247 -0.142165
C53   C     C_R   0.479636 0.749516 0.405844 0.210377
C54   C     C_R   0.548917 0.286573 0.541879 0.225278
C55   C     C_R   0.979645 0.249089 0.405887 0.211825
C56   C     C_R   0.045473 0.788982 0.535145 0.232040
C57   C     C_R   0.425479 0.752511 0.405528 0.222404
C58   C     C_R   0.495902 0.286191 0.543456 0.196677
C59   C     C_R   0.925472 0.252170 0.405518 0.219364
C60   C     C_R   0.991504 0.788924 0.534888 0.207066
C61   C     C_R   0.446871 0.756345 0.499880 -0.121459
C62   C     C_R   0.441837 0.247380 0.491757 -0.150915
C63   C     C_R   0.946819 0.256397 0.499779 -0.120725
C64   C     C_R   0.941847 0.747437 0.491665 -0.149617
C65   C     C_R   0.507485 0.657353 0.087076 0.217805
C66   C     C_R   0.474318 0.322267 0.084074 0.297825
C67   C     C_R   0.005399 0.159167 0.089707 0.308272
C68   C     C_R   0.978489 0.827420 0.082028 0.210301
C69   C     C_R   0.441333 0.630263 0.037669 0.268877
C70   C     C_R   0.447149 0.371460 0.038037 0.270738
C71   C     C_R   0.939249 0.134883 0.045821 0.270879
C72   C     C_R   0.951363 0.876215 0.031797 0.259468
C73   C     C_R   0.373191 0.654882 0.957578 0.407536
C74   C     C_R   0.433229 0.383988 0.950288 0.271537
C75   C     C_R   0.870918 0.157879 0.959101 0.299187
C76   C     C_R   0.944380 0.887183 0.950013 0.385616
C77   C     C_R   0.371057 0.700573 0.912782 0.268280
C78   C     C_R   0.442257 0.346041 0.906182 0.293207
C79   C     C_R   0.870040 0.202536 0.913300 0.324623
C80   C     C_R   0.949072 0.846724 0.904980 0.249725
C81   C     C_R   0.437809 0.721338 0.950955 -0.187080
C82   C     C_R   0.463050 0.295360 0.948469 -0.209709
C83   C     C_R   0.937205 0.222018 0.951148 -0.181749
C84   C     C_R   0.966243 0.796301 0.947748 -0.217036
C85   C     C_R   0.503375 0.707003 0.050523 -0.137942
C86   C     C_R   0.494235 0.287620 0.048305 -0.172834
C87   C     C_R   0.002555 0.207613 0.050786 -0.178161
C88   C     C_R   0.997382 0.790292 0.047913 -0.128850
C89   C     C_R   0.563090 0.742094 0.107458 -0.166734
C90   C     C_R   0.543540 0.245359 0.106619 -0.134230
C91   C     C_R   0.062670 0.242393 0.107433 -0.169383
C92   C     C_R   0.043799 0.746631 0.106459 -0.131490
C93   C     C_R   0.567327 0.778403 0.054070 0.263641
C94   C     C_R   0.537842 0.203028 0.054385 0.186104
C95   C     C_R   0.066908 0.278671 0.053975 0.271487
C96   C     C_R   0.035173 0.702913 0.054345 0.180887
C97   C     C_R   0.508093 0.784196 0.948394 0.341718
C98   C     C_R   0.487523 0.204890 0.946765 0.393530
C99   C     C_R   0.007951 0.284183 0.948292 0.344167
C100  C     C_R   0.984423 0.704268 0.946631 0.393072
C101  C     C_R   0.442831 0.754976 0.894486 -0.141269
C102  C     C_R   0.451089 0.251417 0.893543 -0.063272
C103  C     C_R   0.942689 0.255054 0.894465 -0.141990
C104  C     C_R   0.951047 0.751244 0.893230 -0.062520
C105  C     C_R   0.653858 0.952968 0.501341 0.159622
C106  C     C_R   0.733463 0.040724 0.622888 0.220717
C107  C     C_R   0.135329 0.450962 0.463990 0.156381
C108  C     C_R   0.196306 0.543509 0.574583 0.182887
C109  C     C_R   0.637937 0.976608 0.552367 0.386236
C110  C     C_R   0.683617 0.016130 0.622266 0.368545
C111  C     C_R   0.100166 0.477875 0.485527 0.406731
C112  C     C_R   0.132625 0.522474 0.545021 0.394881
C113  C     C_R   0.736715 0.023772 0.553072 -0.104263
C114  C     C_R   0.711058 0.973863 0.513846 -0.179912
C115  C     C_R   0.218037 0.524123 0.527810 -0.101629
C116  C     C_R   0.198808 0.473036 0.493210 -0.174511
C117  C     C_R   0.745193 0.946607 0.491366 -0.099397
C118  C     C_R   0.764753 0.053255 0.520810 -0.159631
C119  C     C_R   0.244567 0.446147 0.490428 -0.100543
C120  C     C_R   0.258402 0.553082 0.514561 -0.145610
C121  C     C_R   0.786423 0.973298 0.478578 0.456569
C122  C     C_R   0.793403 0.027210 0.488746 0.347072
C123  C     C_R   0.293540 0.472941 0.492532 0.454987
C124  C     C_R   0.298108 0.526949 0.499952 0.347440
C125  C     C_R   0.874354 0.553287 0.702400 0.285020
C126  C     C_R   0.875918 0.447129 0.701220 0.301633
C127  C     C_R   0.375912 0.053213 0.702160 0.286890
C128  C     C_R   0.376674 0.947045 0.700921 0.302061
C129  C     C_R   0.942021 0.527753 0.773667 0.407998
C130  C     C_R   0.942838 0.474267 0.773083 0.412645
C131  C     C_R   0.443473 0.027467 0.772096 0.407624
C132  C     C_R   0.443871 0.973964 0.771752 0.413876
C133  C     C_R   0.812401 0.472788 0.610285 -0.126194
C134  C     C_R   0.811836 0.527437 0.611479 -0.146290
C135  C     C_R   0.312954 0.972789 0.610497 -0.125668
C136  C     C_R   0.312641 0.027455 0.611785 -0.145825
C137  C     C_R   0.747610 0.554246 0.525410 -0.189362
C138  C     C_R   0.748895 0.446245 0.520868 -0.181702
C139  C     C_R   0.248038 0.054298 0.526410 -0.193183
C140  C     C_R   0.249019 0.946266 0.521642 -0.184339
C141  C     C_R   0.680443 0.526899 0.455612 0.225554
C142  C     C_R   0.681699 0.473532 0.448196 0.208241
C143  C     C_R   0.180762 0.027011 0.458094 0.228334
C144  C     C_R   0.181733 0.973584 0.450336 0.206109
N1    N     N_R   0.459092 0.753907 0.310498 0.226456
O53   O     O_R   0.432983 0.797176 0.259273 -0.270632
O54   O     O_R   0.455303 0.712862 0.267305 -0.277566
N2    N     N_R   0.599833 0.329234 0.587118 0.230214
O55   O     O_R   0.575689 0.376353 0.563392 -0.247180
O56   O     O_R   0.670290 0.321345 0.653490 -0.331741
N3    N     N_R   0.959035 0.252991 0.310445 0.230207
O57   O     O_R   0.932218 0.295943 0.258170 -0.274462
O58   O     O_R   0.955586 0.211705 0.268055 -0.286832
N4    N     N_R   0.094871 0.832400 0.577397 0.229410
O59   O     O_R   0.069022 0.879036 0.548017 -0.241799
O60   O     O_R   0.165718 0.825678 0.647909 -0.332317
O61   O     O_3   0.307986 0.634399 0.919349 -0.610082
H1    H     H_    0.318307 0.604779 0.962497 0.411704
O62   O     O_3   0.408502 0.432057 0.904110 -0.654497
H2    H     H_    0.376193 0.445709 0.910345 0.368377
O63   O     O_3   0.804704 0.137258 0.916636 -0.635401
H3    H     H_    0.809144 0.099278 0.924059 0.360657
O64   O     O_3   0.928761 0.936259 0.908643 -0.647839
H4    H     H_    0.932752 0.961273 0.952395 0.407603
N5    N     N_R   0.303680 0.729443 0.839741 0.262691
O65   O     O_R   0.305809 0.779581 0.838921 -0.326092
O66   O     O_R   0.239956 0.706408 0.778000 -0.236007
N6    N     N_R   0.437059 0.360114 0.825160 0.234791
O67   O     O_R   0.482456 0.340483 0.823740 -0.351278
O68   O     O_R   0.391542 0.395496 0.757678 -0.299165
N7    N     N_R   0.803406 0.232033 0.839352 0.263800
O69   O     O_R   0.806917 0.282121 0.839400 -0.330062
O70   O     O_R   0.739065 0.209884 0.777816 -0.226613
N8    N     N_R   0.943735 0.857843 0.822993 0.232332
O71   O     O_R   0.987594 0.835311 0.821304 -0.346426
O72   O     O_R   0.899321 0.893195 0.754349 -0.309709
O73   O     O_3   0.515545 0.819344 0.899913 -0.660469
H5    H     H_    0.473051 0.842564 0.862203 0.393655
O74   O     O_3   0.472453 0.161675 0.891839 -0.676695
H6    H     H_    0.484056 0.130355 0.932453 0.392746
O75   O     O_3   0.015499 0.319272 0.899838 -0.660815
H7    H     H_    0.972986 0.342497 0.861958 0.393744
O76   O     O_3   0.965733 0.660169 0.891641 -0.678381
H8    H     H_    0.976040 0.629534 0.932869 0.393311
O77   O     O_3   0.820111 0.945524 0.457896 -0.654116
H9    H     H_    0.848933 0.968685 0.454048 0.417933
O78   O     O_3   0.831384 0.052927 0.471818 -0.699802
H10   H     H_    0.857247 0.082825 0.518683 0.342882
O79   O     O_3   0.337081 0.444971 0.489119 -0.660617
H11   H     H_    0.370302 0.468198 0.494190 0.418666
O80   O     O_3   0.344370 0.552644 0.497802 -0.707454
H12   H     H_    0.363627 0.584089 0.540170 0.336683
N9    N     N_R   0.609213 0.910890 0.431996 0.200484
O81   O     O_R   0.590639 0.873217 0.457348 -0.368965
O82   O     O_R   0.586170 0.910459 0.342320 -0.351141
N10   N     N_R   0.787441 0.076272 0.703501 0.210570
O83   O     O_R   0.767651 0.114474 0.724165 -0.317705
O84   O     O_R   0.855557 0.073335 0.749968 -0.366132
N11   N     N_R   0.102386 0.404728 0.403900 0.187361
O85   O     O_R   0.082934 0.367483 0.428732 -0.381499
O86   O     O_R   0.087519 0.401133 0.320376 -0.357859
N12   N     N_R   0.248582 0.572467 0.668855 0.251599
O87   O     O_R   0.227867 0.600995 0.701785 -0.293027
O88   O     O_R   0.318767 0.566933 0.727199 -0.345851
O89   O     O_3   0.581146 0.960391 0.540649 -0.613386
H13   H     H_    0.541417 0.945949 0.470908 0.388402
O90   O     O_3   0.676718 0.030035 0.687022 -0.618936
H14   H     H_    0.724691 0.042926 0.752076 0.370395
O91   O     O_3   0.034549 0.461644 0.451129 -0.637507
H15   H     H_    0.007539 0.440068 0.389418 0.386862
O92   O     O_3   0.100317 0.544493 0.572416 -0.634341
H16   H     H_    0.102680 0.582371 0.567693 0.365870
N13   N     N_R   0.611431 0.552351 0.400101 0.260179
O93   O     O_R   0.552512 0.540346 0.305461 -0.228071
O94   O     O_R   0.604828 0.581541 0.449875 -0.285562
N14   N     N_R   0.613639 0.447216 0.367756 0.260782
O95   O     O_R   0.590619 0.440984 0.278824 -0.318557
O96   O     O_R   0.573294 0.431419 0.382034 -0.234519
N15   N     N_R   0.112293 0.052584 0.405331 0.255132
O97   O     O_R   0.051824 0.040006 0.312157 -0.206507
O98   O     O_R   0.108083 0.082534 0.456904 -0.292705
N16   N     N_R   0.113378 0.947190 0.371581 0.259947
O99   O     O_R   0.086967 0.942680 0.280198 -0.274350
O100  O     O_R   0.075559 0.930360 0.389534 -0.241948
O101  O     O_3   0.869026 0.599700 0.731867 -0.679945
H17   H     H_    0.818389 0.602942 0.700937 0.354904
O102  O     O_3   0.872058 0.399652 0.731785 -0.737959
H18   H     H_    0.821452 0.394809 0.700657 0.352665
O103  O     O_3   0.371655 0.099631 0.732888 -0.681557
H19   H     H_    0.321339 0.103127 0.702978 0.354787
O104  O     O_3   0.372918 0.899753 0.732115 -0.739084
H20   H     H_    0.322447 0.895058 0.701538 0.353338
O105  O     O_3   0.006991 0.553506 0.851885 -0.610070
H21   H     H_    0.000070 0.590536 0.833122 0.401889
O106  O     O_3   0.008611 0.449630 0.851165 -0.591628
H22   H     H_    0.003703 0.413814 0.829483 0.405630
O107  O     O_3   0.508889 0.053087 0.849104 -0.612489
H23   H     H_    0.502034 0.090010 0.829668 0.400826
O108  O     O_3   0.509663 0.949170 0.849136 -0.592395
H24   H     H_    0.504066 0.913135 0.827887 0.406474
N17   N     N_R   0.691446 0.695187 0.688386 0.176315
O109  O     O_R   0.760825 0.707131 0.751988 -0.404572
O110  O     O_R   0.666542 0.654903 0.630288 -0.363126
N18   N     N_R   0.553916 0.159157 0.394140 0.167293
O111  O     O_R   0.600606 0.122100 0.451795 -0.386847
O112  O     O_R   0.549195 0.180034 0.324989 -0.381873
N19   N     N_R   0.191884 0.195906 0.689400 0.176851
O113  O     O_R   0.261218 0.207984 0.752993 -0.406515
O114  O     O_R   0.167255 0.155394 0.631935 -0.359947
N20   N     N_R   0.044972 0.665223 0.376073 0.212492
O115  O     O_R   0.091698 0.628660 0.410147 -0.389444
O116  O     O_R   0.024697 0.694991 0.302268 -0.321562
O117  O     O_3   0.725566 0.707720 0.873368 -0.621252
H25   H     H_    0.742604 0.679064 0.859953 0.382595
O118  O     O_3   0.433509 0.089825 0.274950 -0.624835
H26   H     H_    0.471690 0.094116 0.275092 0.390870
O119  O     O_3   0.225990 0.209449 0.874143 -0.620293
H27   H     H_    0.243129 0.180600 0.861249 0.383819
O120  O     O_3   0.958213 0.582098 0.312889 -0.661669
H28   H     H_    0.909516 0.565143 0.260580 0.372320
O121  O     O_3   0.140240 0.266314 0.874190 -0.590008
H29   H     H_    0.096075 0.265495 0.861840 0.377733
O122  O     O_3   0.857008 0.577444 0.331732 -0.646992
H30   H     H_    0.884239 0.545834 0.346235 0.371731
O123  O     O_3   0.640109 0.764327 0.874375 -0.592420
H31   H     H_    0.595800 0.764018 0.861693 0.376375
O124  O     O_3   0.324615 0.095751 0.260385 -0.616907
H32   H     H_    0.282252 0.104807 0.249056 0.400902
N21   N     N_R   0.522763 0.825527 0.687751 0.270531
O125  O     O_R   0.489104 0.857351 0.610369 -0.295756
O126  O     O_R   0.541287 0.842037 0.769788 -0.305139
N22   N     N_R   0.320053 0.171347 0.364494 0.166204
O127  O     O_R   0.314528 0.135368 0.408690 -0.383277
O128  O     O_R   0.262806 0.199160 0.291928 -0.346548
N23   N     N_R   0.021868 0.326215 0.686379 0.269923
O129  O     O_R   0.988800 0.358057 0.609183 -0.299953
O130  O     O_R   0.038341 0.342330 0.767111 -0.306295
N24   N     N_R   0.827725 0.664393 0.377254 0.216365
O131  O     O_R   0.815187 0.627745 0.412243 -0.326855
O132  O     O_R   0.773855 0.694269 0.304058 -0.334177
N25   N     N_R   0.349240 0.755268 0.309222 0.246616
O133  O     O_R   0.322295 0.723362 0.235576 -0.241831
O134  O     O_R   0.307230 0.791045 0.293326 -0.347443
N26   N     N_R   0.499038 0.324557 0.601957 0.219208
O135  O     O_R   0.558824 0.330577 0.699056 -0.246457
O136  O     O_R   0.444918 0.356510 0.556509 -0.293291
N27   N     N_R   0.849222 0.254613 0.309176 0.246510
O137  O     O_R   0.822442 0.222367 0.236067 -0.242069
O138  O     O_R   0.807032 0.290439 0.292688 -0.349527
N28   N     N_R   0.990202 0.829942 0.585031 0.217329
O139  O     O_R   0.047336 0.838623 0.682300 -0.249421
O140  O     O_R   0.935280 0.861830 0.531540 -0.282382
N29   N     N_R   0.632753 0.808286 0.105275 0.262786
O141  O     O_R   0.629170 0.858205 0.094855 -0.243392
O142  O     O_R   0.694335 0.785157 0.152394 -0.259626
N30   N     N_R   0.579915 0.157073 0.109279 0.215793
O143  O     O_R   0.575301 0.132854 0.166927 -0.313290
O144  O     O_R   0.619873 0.137915 0.097520 -0.261511
N31   N     N_R   0.131683 0.309365 0.105247 0.262700
O145  O     O_R   0.127084 0.359342 0.096056 -0.243211
O146  O     O_R   0.193275 0.287136 0.149895 -0.256991
N32   N     N_R   0.074527 0.656203 0.109527 0.213850
O147  O     O_R   0.069735 0.634676 0.168869 -0.305532
O148  O     O_R   0.112292 0.633803 0.096662 -0.263756
N33   N     N_R   0.577712 0.632489 0.163582 0.215097
O149  O     O_R   0.594257 0.605984 0.237962 -0.311617
O150  O     O_R   0.626151 0.637059 0.159966 -0.302701
N34   N     N_R   0.469310 0.304626 0.153528 0.268955
O151  O     O_R   0.481342 0.335863 0.218729 -0.209609
O152  O     O_R   0.450677 0.257105 0.149851 -0.310839
N35   N     N_R   0.074466 0.132288 0.164187 0.250269
O153  O     O_R   0.085782 0.098283 0.226596 -0.250437
O154  O     O_R   0.124327 0.138492 0.163609 -0.337740
N36   N     N_R   0.972578 0.812329 0.151328 0.231641
O155  O     O_R   0.999054 0.841420 0.228291 -0.266060
O156  O     O_R   0.941798 0.768553 0.138590 -0.279249
O157  O     O_3   0.440977 0.580442 0.064877 -0.670756
H33   H     H_    0.485169 0.562398 0.091255 0.397445
O158  O     O_3   0.434880 0.406210 0.080384 -0.616527
H34   H     H_    0.445045 0.441447 0.071501 0.383374
O159  O     O_3   0.943101 0.089935 0.090509 -0.626374
H35   H     H_    0.901910 0.089213 0.084731 0.381168
O160  O     O_3   0.929684 0.913417 0.058457 -0.659831
H36   H     H_    0.910873 0.896488 0.084505 0.403855

loop_
_geom_bond_atom_site_label_1
_geom_bond_atom_site_label_2
_geom_bond_distance
_ccdc_geom_bond_type
C31   C35   1.397840 A    
C65   C69   1.419443 A    
C57   N25   1.439475 S    
C34   O124  1.385348 S    
C74   C78   1.409903 A    
C124  O80   1.382759 S    
O23   C19   1.276268 A    
C68   C72   1.421128 A    
C40   N24   1.433464 S    
N21   O125  1.302733 A    
C39   N23   1.446989 S    
C74   O62   1.380744 S    
O123  H31   0.990982 S    
C67   C71   1.410162 A    
C19   C62   1.450174 S    
N14   O95   1.300872 A    
C86   C90   1.428407 A    
Zn5   O21   1.927389 S    
O42   C14   1.274167 A    
C27   C31   1.417603 A    
C32   C36   1.406424 A    
O46   C2    1.278570 A    
C81   C85   1.400473 A    
C78   C82   1.421084 A    
O34   C22   1.274487 A    
C84   C88   1.403711 A    
N8    O72   1.301127 A    
C133  C138  1.430889 A    
N15   O98   1.301526 A    
Zn3   O3    1.933162 S    
O77   H9    0.989252 S    
C83   C87   1.399972 A    
Zn16  O28   1.928593 S    
O28   C24   1.273908 A    
C73   C77   1.412731 A    
C96   N32   1.437585 S    
N17   O110  1.301154 A    
C94   N30   1.437347 S    
C131  C132  1.388608 A    
O73   H5    0.986633 S    
Zn4   O40   1.935725 S    
C33   C37   1.415524 A    
O27   C23   1.289383 A    
O11   C7    1.280014 A    
C132  O108  1.377786 S    
N1    O54   1.301086 A    
C97   C101  1.417271 A    
O33   C21   1.271960 A    
C123  C124  1.405286 A    
C96   C100  1.403654 A    
N22   O127  1.300530 A    
C28   N20   1.433610 S    
C99   C103  1.416221 A    
C113  C114  1.401282 A    
C126  C133  1.427824 A    
C1    C104  1.470646 S    
C53   N1    1.434645 S    
C118  C122  1.414750 A    
C115  C116  1.403209 A    
O63   H3    0.989851 S    
C9    C137  1.486155 S    
O16   C12   1.282367 A    
O106  H22   0.988168 S    
C140  C144  1.419057 A    
N26   O135  1.301185 A    
Zn12  O4    1.971290 S    
C3    C102  1.473201 S    
Zn13  O5    1.935681 S    
Zn2   O10   1.950268 S    
C126  O102  1.377597 S    
Zn6   O14   1.940454 S    
O47   C3    1.282718 A    
C105  C114  1.421726 A    
C75   C79   1.413332 A    
Zn7   O3    1.942831 S    
C122  O78   1.381851 S    
N12   O88   1.302278 A    
O158  H34   0.989983 S    
C22   C50   1.448792 S    
C55   C59   1.396345 A    
C100  O76   1.377621 S    
O43   C15   1.289764 A    
C51   C55   1.410773 A    
O24   C20   1.271283 A    
Zn11  O19   1.947543 S    
C38   N22   1.430800 S    
C115  C120  1.428032 A    
C82   C102  1.416091 A    
Zn10  O2    1.971290 S    
C11   C139  1.486851 S    
C68   N36   1.437909 S    
C71   O159  1.380030 S    
Zn9   O49   1.939282 S    
O124  H32   0.987828 S    
Zn4   O4    1.942681 S    
O103  H19   0.991835 S    
C57   C61   1.408295 A    
N35   O153  1.298328 A    
O117  H25   0.988881 S    
C58   C62   1.403646 A    
C28   C48   1.434089 A    
C35   C39   1.415249 A    
Zn8   O24   1.938527 S    
C93   C97   1.388438 A    
C67   N35   1.443107 S    
C72   O160  1.381676 S    
C110  O90   1.380431 S    
O25   C21   1.289296 A    
N25   O133  1.301199 A    
C76   O64   1.383231 S    
C79   C83   1.419124 A    
N32   O147  1.301564 A    
C143  N15   1.443576 S    
C127  O103  1.378033 S    
Zn12  O52   1.935725 S    
O75   H7    0.986763 S    
O22   C18   1.271263 A    
C81   C101  1.421444 A    
N2    O56   1.300354 A    
N9    O81   1.300640 A    
C84   C104  1.413124 A    
Zn13  O41   1.931974 S    
O50   C6    1.300319 A    
C5    C89   1.478108 S    
C141  N13   1.443042 S    
N30   O143  1.301532 A    
O79   H11   0.989274 S    
Zn16  O44   1.947494 S    
Zn1   O37   1.940502 S    
N20   O116  1.300010 A    
Zn2   O34   1.927682 S    
C71   C75   1.422128 A    
N6    O68   1.301011 A    
N10   O83   1.301078 A    
Zn6   O22   1.938527 S    
C137  C141  1.410938 A    
N5    O65   1.301538 A    
C42   C46   1.427362 A    
C31   O119  1.381919 S    
O118  H26   0.987749 S    
O91   H15   0.988970 S    
C139  C143  1.410738 A    
O119  H27   0.988812 S    
C20   C61   1.466370 S    
N34   O152  1.301599 A    
O61   H1    0.989974 S    
C127  C131  1.402133 A    
Zn10  O50   1.935725 S    
C58   N26   1.439010 S    
C87   C91   1.414306 A    
C88   C92   1.431895 A    
C37   N21   1.447312 S    
O49   C5    1.272255 A    
C48   C52   1.429197 A    
O5    C1    1.290798 A    
O26   C22   1.273128 A    
O31   C19   1.271663 A    
N4    O60   1.300959 A    
C53   C57   1.396456 A    
O101  H17   0.991842 S    
C69   O157  1.381116 S    
C138  C142  1.418838 A    
N24   O132  1.300617 A    
C141  C142  1.396886 A    
Zn5   O45   1.950315 S    
N7    O70   1.301163 A    
N28   O140  1.300653 A    
Zn7   O47   1.950315 S    
Zn8   O48   1.943141 S    
C45   C49   1.412357 A    
C43   C63   1.425955 A    
N27   O138  1.301534 A    
C21   C49   1.450770 S    
C30   O118  1.385555 S    
C98   C102  1.411125 A    
C47   C51   1.412475 A    
N23   O130  1.299736 A    
C41   C61   1.425967 A    
C23   C51   1.450959 S    
O51   C7    1.271756 A    
C36   O122  1.381233 S    
C25   C29   1.417788 A    
C44   C48   1.425325 A    
O8    C4    1.277598 A    
C60   N28   1.437669 S    
Zn9   O1    1.940584 S    
C37   C41   1.419797 A    
Zn7   O23   1.927389 S    
C12   C140  1.490904 S    
C39   C43   1.419809 A    
C80   C84   1.420547 A    
C121  O77   1.385330 S    
C113  C118  1.428468 A    
C117  C121  1.412138 A    
C79   N7    1.442540 S    
N13   O94   1.301586 A    
C130  O106  1.377688 S    
Zn1   O1    1.933162 S    
O40   C12   1.277426 A    
C116  C119  1.412737 A    
Zn13  O1    1.971588 S    
O29   C17   1.272066 A    
C120  C124  1.414518 A    
C4    C101  1.481601 S    
Zn14  O6    1.939235 S    
Zn3   O11   1.943098 S    
C24   C52   1.447517 S    
Zn15  O27   1.919350 S    
O102  H18   0.991935 S    
C126  C130  1.407129 A    
C33   O123  1.378528 S    
C28   C32   1.400418 A    
C54   N2    1.441379 S    
O9    C5    1.280378 A    
C2    C103  1.481674 S    
C129  C130  1.388650 A    
O41   C13   1.291707 A    
C108  C112  1.416175 A    
O13   C9    1.282428 A    
C70   O158  1.380598 S    
O18   C14   1.303183 A    
O6    C2    1.277226 A    
O78   H10   0.990967 S    
Zn9   O29   1.928639 S    
N36   O155  1.301858 A    
C77   N5    1.442976 S    
Zn11  O31   1.928639 S    
N7    O69   1.301391 A    
Zn12  O32   1.919389 S    
Zn13  O25   1.919350 S    
C109  O89   1.380246 S    
O76   H8    0.990040 S    
N1    O53   1.300760 A    
Zn15  O3    1.971588 S    
N29   O142  1.301197 A    
Zn11  O3    1.940584 S    
C14   C118  1.481228 S    
C92   C96   1.408875 A    
N22   O128  1.299923 A    
N33   O150  1.301351 A    
C128  O104  1.377640 S    
Zn5   O1    1.942831 S    
C26   C30   1.411843 A    
C7    C91   1.476982 S    
C32   O120  1.383066 S    
N16   O99   1.301028 A    
C133  C134  1.419001 A    
C55   N3    1.434735 S    
O35   C23   1.272003 A    
C94   C98   1.403442 A    
C134  C137  1.420035 A    
N26   O136  1.300787 A    
O92   H16   0.990007 S    
O32   C20   1.298496 A    
C106  C110  1.419453 A    
C128  C132  1.406950 A    
C56   C60   1.388966 A    
N19   O113  1.300713 A    
Zn9   O17   1.947543 S    
N21   O126  1.299971 A    
Zn14  O42   1.947494 S    
C6    C90   1.480666 S    
C108  N12   1.446110 S    
O108  H24   0.988110 S    
O7    C3    1.290663 A    
Zn2   O38   1.935725 S    
C107  N11   1.437284 S    
N3    O57   1.300766 A    
Zn3   O35   1.938828 S    
C127  C136  1.425565 A    
C25   N17   1.436881 S    
C125  C134  1.424643 A    
C40   C44   1.433133 A    
O37   C9    1.273615 A    
O104  H20   0.991944 S    
C10   C138  1.488864 S    
O39   C11   1.275088 A    
N15   O97   1.300900 A    
C136  C139  1.420706 A    
N11   O85   1.300616 A    
N8    O71   1.301647 A    
C80   N8    1.441951 S    
C25   C45   1.425749 A    
C44   C64   1.429925 A    
C128  C135  1.427287 A    
C70   C74   1.419336 A    
O36   C24   1.272785 A    
O52   C8    1.303482 A    
O12   C8    1.273195 A    
C89   C93   1.409707 A    
C36   C40   1.401001 A    
C93   N29   1.436785 S    
O157  H33   0.988912 S    
C135  C140  1.430719 A    
C69   C73   1.414138 A    
O19   C15   1.276454 A    
Zn15  O43   1.931974 S    
O105  H21   0.990663 S    
C72   C76   1.410548 A    
C65   N33   1.438349 S    
N32   O148  1.301361 A    
C125  O101  1.377481 S    
C142  N14   1.432101 S    
Zn6   O46   1.943141 S    
C59   C63   1.408158 A    
C27   N19   1.436782 S    
O120  H28   0.989944 S    
O122  H30   0.990899 S    
C30   C34   1.386690 A    
N11   O86   1.301363 A    
C66   C86   1.422074 A    
C129  O105  1.379748 S    
N14   O96   1.301016 A    
N30   O144  1.301361 A    
C42   C62   1.431384 A    
C123  O79   1.385540 S    
C85   C89   1.413580 A    
C121  C122  1.406206 A    
C111  C112  1.397405 A    
C100  C104  1.409465 A    
C95   N31   1.436303 S    
N10   O84   1.301487 A    
C109  C110  1.397591 A    
N12   O87   1.299978 A    
C114  C117  1.412313 A    
C77   C81   1.419642 A    
C107  C116  1.424650 A    
O38   C10   1.276883 A    
C108  C115  1.421449 A    
N23   O129  1.302528 A    
Zn2   O2    1.942681 S    
O121  H29   0.990868 S    
Zn14  O2    1.940875 S    
N31   O145  1.301296 A    
C76   C80   1.407825 A    
C26   C46   1.436736 A    
C83   C103  1.422486 A    
O160  H36   0.988021 S    
N17   O109  1.300743 A    
N6    O67   1.301699 A    
C59   N27   1.439404 S    
Zn8   O4    1.933308 S    
C26   N18   1.430673 S    
Zn4   O36   1.927682 S    
C65   C85   1.413912 A    
C98   O74   1.378379 S    
O21   C17   1.276368 A    
C17   C64   1.451031 S    
C50   C54   1.405662 A    
C68   C88   1.425212 A    
C18   C63   1.466413 S    
N35   O154  1.301424 A    
C67   C87   1.413764 A    
O62   H2    0.989954 S    
C49   C53   1.410609 A    
N27   O137  1.301170 A    
C27   C47   1.425745 A    
Zn10  O30   1.919389 S    
Zn12  O20   1.932016 S    
C105  N9    1.439343 S    
N18   O112  1.301120 A    
Zn16  O4    1.940875 S    
Zn14  O26   1.928593 S    
Zn15  O7    1.935681 S    
Zn16  O8    1.939235 S    
Zn1   O9    1.943098 S    
C15   C119  1.460518 S    
N4    O59   1.301262 A    
Zn3   O39   1.940502 S    
C112  O92   1.377761 S    
C60   C64   1.404384 A    
C106  C113  1.425212 A    
C13   C117  1.467622 S    
Zn4   O12   1.950268 S    
Zn11  O51   1.939282 S    
Zn5   O13   1.935685 S    
C73   O61   1.382575 S    
Zn6   O2    1.933308 S    
C78   N6    1.443106 S    
N19   O114  1.301037 A    
Zn7   O15   1.935685 S    
Zn8   O16   1.940454 S    
C97   O73   1.370795 S    
N2    O55   1.301345 A    
N31   O146  1.300838 A    
C29   O117  1.381985 S    
N9    O82   1.301434 A    
C107  C111  1.417197 A    
N13   O93   1.301174 A    
C75   O63   1.380330 S    
O107  H23   0.990694 S    
C54   C58   1.388391 A    
C95   C99   1.387049 A    
C143  C144  1.398468 A    
N20   O115  1.299709 A    
N3    O58   1.301080 A    
N18   O111  1.300350 A    
C105  C109  1.416226 A    
C35   O121  1.378284 S    
O89   H13   0.989378 S    
Zn10  O18   1.932016 S    
N5    O66   1.301079 A    
C46   C50   1.433164 A    
C66   N34   1.442175 S    
O90   H14   0.988333 S    
C91   C95   1.410139 A    
O80   H12   0.990389 S    
C144  N16   1.431807 S    
N34   O151  1.301537 A    
C38   C42   1.435449 A    
O45   C1    1.281016 A    
C8    C92   1.480157 S    
N36   O156  1.300811 A    
C119  C123  1.408969 A    
C56   N4    1.440894 S    
C66   C70   1.410257 A    
O74   H6    0.990016 S    
O15   C11   1.281264 A    
C41   C45   1.402145 A    
N29   O141  1.301324 A    
C99   O75   1.370916 S    
C131  O107  1.379546 S    
N33   O149  1.297490 A    
O44   C16   1.273003 A    
N24   O131  1.300439 A    
O159  H35   0.989847 S    
O17   C13   1.278635 A    
O20   C16   1.301801 A    
C125  C129  1.402047 A    
O10   C6    1.276583 A    
C34   C38   1.411371 A    
N16   O100  1.300946 A    
O48   C4    1.278239 A    
N28   O139  1.301077 A    
C16   C120  1.476283 S    
C90   C94   1.408955 A    
C106  N10   1.438270 S    
O14   C10   1.281962 A    
C111  O91   1.381588 S    
N25   O134  1.301519 A    
C82   C86   1.402905 A    
O64   H4    0.990111 S    
C43   C47   1.402164 A    
C135  C136  1.419295 A    
Zn1   O33   1.938828 S    
C29   C33   1.398059 A    
C52   C56   1.405008 A    
O30   C18   1.298526 A    
