data_mof_unit_8372.cif
_audit_creation_date              2012-12-10T17:56:47-0500
_audit_creation_method            fapswitch 2.2
_symmetry_space_group_name_H-M    P1
_symmetry_Int_Tables_number       1
_space_group_crystal_system       triclinic
_cell_length_a                    10.820193
_cell_length_b                    9.758686
_cell_length_c                    10.886942
_cell_angle_alpha                 92.419595
_cell_angle_beta                  95.57412
_cell_angle_gamma                 90.283192
_cell_volume                      1143.0584703

loop_
_atom_site_label
_atom_site_type_symbol
_atom_type_description
_atom_site_fract_x
_atom_site_fract_y
_atom_site_fract_z
_atom_type_partial_charge
C1    C     C_R   0.262722 0.499749 0.498621 0.760471
C2    C     C_R   0.736957 0.500011 0.496753 0.761316
C3    C     C_R   0.934149 0.620448 0.469785 -0.189196
C4    C     C_R   0.062373 0.620703 0.472266 -0.182755
C5    C     C_R   0.432477 0.067397 0.407589 0.180107
C6    C     C_R   0.570893 0.075393 0.589646 0.210271
C7    C     C_R   0.422513 0.920617 0.415697 0.216240
C8    C     C_R   0.584083 0.929568 0.576086 0.171376
C9    C     C_R   0.506705 0.498122 0.263405 0.766680
C10   C     C_R   0.493846 0.503632 0.736913 0.781834
C11   C     C_R   0.618225 0.725663 0.140377 -0.218879
C12   C     C_R   0.502456 0.767374 0.906321 -0.233409
C13   C     C_R   0.607721 0.859290 0.099797 0.221185
C14   C     C_R   0.536984 0.881086 0.986508 0.232539
C15   C     C_R   0.517533 0.632092 0.946769 0.051964
C16   C     C_R   0.553834 0.616538 0.072975 0.053023
C17   C     C_R   0.515766 0.497137 0.129431 -0.084434
C18   C     C_R   0.485628 0.512099 0.871291 -0.091777
C19   C     C_R   0.462882 0.387845 0.054981 -0.222825
C20   C     C_R   0.453634 0.392675 0.927761 -0.205265
C21   C     C_R   0.064494 0.377505 0.510575 -0.191052
C22   C     C_R   0.936448 0.377117 0.506247 -0.183187
C23   C     C_R   0.870740 0.499453 0.490732 -0.014398
C24   C     C_R   0.128259 0.499483 0.494516 -0.013604
Cu1   Cu    Cu3+1 0.500000 0.640660 0.500000 0.921625
Cu2   Cu    Cu3+1 0.500000 0.359340 0.500000 0.939422
H1    H     H_    0.424447 0.299851 0.093541 0.156642
H2    H     H_    0.415155 0.304492 0.873480 0.155625
H3    H     H_    0.669698 0.709229 0.228886 0.172603
H4    H     H_    0.450323 0.786690 0.819300 0.184594
H5    H     H_    0.113132 0.282517 0.527612 0.145290
H6    H     H_    0.889529 0.280975 0.515513 0.149797
H7    H     H_    0.885321 0.714445 0.450164 0.136270
H8    H     H_    0.109504 0.715633 0.456593 0.149814
N1    N     N_R   0.500000 0.852070 0.500000 -0.183083
N2    N     N_R   0.500000 0.147940 0.500000 -0.198237
O1    O     O_R   0.319640 0.618740 0.499990 -0.592970
O2    O     O_R   0.680360 0.618740 0.500010 -0.589937
O3    O     O_R   0.319620 0.381170 0.499990 -0.573110
O4    O     O_R   0.680380 0.381170 0.500010 -0.570989
O5    O     O_R   0.500000 0.618810 0.319650 -0.580207
O6    O     O_R   0.500000 0.618810 0.680350 -0.591426
O7    O     O_R   0.499970 0.381240 0.319640 -0.583733
O8    O     O_R   0.500030 0.381240 0.680360 -0.579936
C25   C     C_3   0.667248 0.973179 0.183617 -0.892480
H9    H     H_    0.633331 0.968929 0.276276 0.231548
H10   H     H_    0.769413 0.958981 0.193925 0.228393
H11   H     H_    0.648580 0.076942 0.149699 0.239350
C26   C     C_3   0.487154 0.020229 0.955236 -0.958945
H12   H     H_    0.562557 0.097886 0.961377 0.239229
H13   H     H_    0.436737 0.018913 0.861374 0.222913
H14   H     H_    0.419650 0.052111 0.020340 0.233199
C27   C     C_3   0.384097 0.125721 0.285045 -0.322475
C28   C     C_3   0.261985 0.204043 0.284949 -0.750772
H15   H     H_    0.211967 0.177905 0.365097 0.241020
H16   H     H_    0.277521 0.315900 0.282751 0.256238
H17   H     H_    0.200097 0.175268 0.200145 0.201755
H18   H     H_    0.461019 0.174548 0.246052 0.206440
H19   H     H_    0.366643 0.046844 0.210687 0.163069
C29   C     C_3   0.619982 0.136869 0.716223 -0.328865
C30   C     C_3   0.742541 0.215916 0.723256 -0.767185
H20   H     H_    0.803553 0.169320 0.657420 0.228204
H21   H     H_    0.727920 0.325967 0.708380 0.269161
H22   H     H_    0.791252 0.210095 0.817545 0.212032
H23   H     H_    0.547668 0.188212 0.763058 0.209605
H24   H     H_    0.637002 0.053786 0.781165 0.181247
C31   C     C_3   0.335055 0.842287 0.319024 -0.778725
H25   H     H_    0.244638 0.895780 0.305999 0.191535
H26   H     H_    0.377450 0.832251 0.230326 0.219155
H27   H     H_    0.310823 0.738383 0.337444 0.269444
C32   C     C_3   0.698999 0.862224 0.636146 -0.771880
H28   H     H_    0.763348 0.930059 0.696024 0.192693
H29   H     H_    0.675316 0.775256 0.691462 0.262026
H30   H     H_    0.757375 0.831777 0.562569 0.228787

loop_
_geom_bond_atom_site_label_1
_geom_bond_atom_site_label_2
_ccdc_geom_bond_type
Cu1   O6    S    
Cu2   O7    S    
C32   H30   S    
C27   H18   S    
C6    N2    A    
C28   H16   S    
C2    O4    A    
Cu1   O2    S    
C10   O6    A    
C19   H1    S    
C11   C16   A    
C2    O2    A    
C15   C18   A    
C9    O5    A    
C19   C20   A    
C12   C15   A    
C1    O1    A    
C5    C27   S    
C26   H14   S    
Cu1   O1    S    
C21   C22   A    
C31   H27   S    
C26   H13   S    
C27   H19   S    
C29   H24   S    
C32   H28   S    
Cu1   Cu2   S    
C27   C28   S    
C30   H22   S    
C13   C25   S    
C7    C31   S    
C11   C13   A    
Cu2   O4    S    
C21   H5    S    
C22   H6    S    
C25   H11   S    
Cu1   N1    S    
C28   H15   S    
C9    C17   S    
C17   C19   A    
C10   C18   S    
C29   H23   S    
C18   C20   A    
C25   H10   S    
C30   H20   S    
C4    C24   A    
C4    H8    S    
Cu2   O3    S    
C9    O7    A    
C14   C26   S    
C15   C16   A    
C3    H7    S    
Cu2   O8    S    
C31   H25   S    
C5    N2    A    
C6    C29   S    
C32   H29   S    
C7    N1    A    
C11   H3    S    
C1    C24   S    
C30   H21   S    
C26   H12   S    
C21   C24   A    
Cu1   O5    S    
C2    C23   S    
C5    C7    A    
C1    O3    A    
C22   C23   A    
C16   C17   A    
C8    C32   S    
C6    C8    A    
C20   H2    S    
C12   H4    S    
C3    C23   A    
C13   C14   A    
C10   O8    A    
C28   H17   S    
C3    C4    A    
Cu2   N2    S    
C12   C14   A    
C29   C30   S    
C31   H26   S    
C8    N1    A    
C25   H9    S    
