data_mof_unit_21192.cif
_audit_creation_date              2013-03-05T15:51:31-0500
_audit_creation_method            fapswitch 2.2
_symmetry_space_group_name_H-M    P1
_symmetry_Int_Tables_number       1
_space_group_crystal_system       triclinic
_cell_length_a                    15.879709
_cell_length_b                    10.797519
_cell_length_c                    9.61761
_cell_angle_alpha                 89.934032
_cell_angle_beta                  89.983496
_cell_angle_gamma                 92.07337
_cell_volume                      1647.96866248

loop_
_atom_site_label
_atom_site_type_symbol
_atom_site_description
_atom_site_fract_x
_atom_site_fract_y
_atom_site_fract_z
_atom_type_partial_charge
O1    O     O_R   0.499990 0.319640 0.618810 -0.587916
O2    O     O_R   0.500000 0.319660 0.381240 -0.581933
C1    C     C_R   0.498170 0.262825 0.500101 0.796340
O3    O     O_R   0.379430 0.499990 0.618840 -0.536730
O4    O     O_R   0.379440 0.500020 0.381260 -0.569132
C2    C     C_R   0.340351 0.497892 0.499982 0.870920
Cu1   Cu    Cu3+1 0.499990 0.499990 0.640660 0.989621
Cu2   Cu    Cu3+1 0.500010 0.500010 0.359340 0.989786
O5    O     O_R   0.500000 0.680340 0.618760 -0.572118
O6    O     O_R   0.500010 0.680360 0.381190 -0.579568
O7    O     O_R   0.620560 0.499980 0.618740 -0.600652
O8    O     O_R   0.620570 0.500010 0.381160 -0.591873
C3    C     C_R   0.496505 0.737186 0.500068 0.949217
C4    C     C_R   0.659604 0.500393 0.499927 0.803209
C5    C     C_3   0.045325 0.380666 0.563822 -0.556593
C6    C     C_3   0.049767 0.515215 0.342691 0.799644
C7    C     C_3   0.950719 0.508599 0.343415 0.082866
H1    H     H_    0.922984 0.298786 0.501673 0.226259
H2    H     H_    0.068114 0.296516 0.511931 0.267499
H3    H     H_    0.928767 0.420510 0.292683 0.134882
C8    C     C_1   0.749250 0.501129 0.499699 -0.116088
C9    C     C_3   0.082970 0.501111 0.495715 -0.082130
C10   C     C_3   0.947745 0.380320 0.561684 -0.438080
C11   C     C_3   0.917042 0.502189 0.496231 -0.007601
C12   C     C_3   0.954342 0.611531 0.584353 -0.393594
C13   C     C_3   0.051969 0.611071 0.584555 0.540806
C14   C     C_1   0.824796 0.501700 0.498674 0.038716
C15   C     C_1   0.175211 0.499796 0.498428 0.108317
C16   C     C_1   0.250711 0.498626 0.499670 -0.030040
H4    H     H_    0.074120 0.600806 0.693664 0.140988
H5    H     H_    0.931271 0.602383 0.693362 0.166544
H6    H     H_    0.067041 0.374821 0.673643 0.220326
H7    H     H_    0.923305 0.369899 0.669747 0.225574
H8    H     H_    0.932218 0.701801 0.546537 0.257927
H9    H     H_    0.607752 0.118256 0.383877 0.176071
C17   C     C_R   0.357270 0.125943 0.626492 -0.228911
H10   H     H_    0.354989 0.225870 0.625546 0.158097
C18   C     C_R   0.290296 0.060962 0.688889 -0.281141
H11   H     H_    0.240493 0.112631 0.735767 0.210206
C19   C     C_R   0.286904 0.931499 0.690164 0.326376
C20   C     C_R   0.352209 0.867466 0.626062 0.550778
C21   C     C_R   0.422660 0.932118 0.565188 -0.141051
C22   C     C_R   0.424457 0.063349 0.565448 0.037991
C23   C     C_R   0.492263 0.129020 0.500418 -0.128357
C24   C     C_R   0.556071 0.067042 0.433777 -0.235344
C25   C     C_R   0.555739 0.939336 0.434523 0.561067
C26   C     C_R   0.490481 0.871103 0.500251 -0.188077
H12   H     H_    0.404678 0.360888 0.129018 0.152379
C27   C     C_R   0.612231 0.662994 0.143239 -0.084426
H13   H     H_    0.617341 0.670787 0.252623 0.234374
C28   C     C_R   0.667343 0.742382 0.071166 -0.083560
H14   H     H_    0.710465 0.804247 0.127158 0.216684
C29   C     C_R   0.667146 0.742804 0.927969 -0.206688
H15   H     H_    0.710060 0.805067 0.871889 0.177509
C30   C     C_R   0.611980 0.663641 0.855985 -0.135200
H16   H     H_    0.617097 0.672088 0.746465 0.198394
C31   C     C_R   0.554986 0.580387 0.925082 0.214845
C32   C     C_R   0.555042 0.580207 0.074487 0.172599
N1    N     N_R   0.500800 0.501210 0.147910 -0.206971
C33   C     C_R   0.447638 0.423611 0.073943 -0.010332
H17   H     H_    0.404771 0.360829 0.871242 0.138036
C34   C     C_R   0.447678 0.423600 0.926184 -0.010209
N2    N     N_R   0.500820 0.501290 0.852040 -0.198447
N3    N     N_R   0.216468 0.865832 0.754867 0.182680
O9    O     O_R   0.149499 0.924373 0.790196 -0.292228
O10   O     O_R   0.219871 0.748610 0.785124 -0.260407
F1    F     F_    0.343705 0.742930 0.617522 -0.642996
F2    F     F_    0.621301 0.882026 0.374918 -0.699405
F3    F     F_    0.078476 0.629930 0.292329 -0.526622
N4    N     N_R   0.082879 0.419504 0.250297 0.085360
O11   O     O_R   0.057882 0.303766 0.261252 -0.381286
O12   O     O_R   0.135640 0.450921 0.151718 -0.262986
N5    N     N_R   0.914589 0.609825 0.262839 0.170831
O13   O     O_R   0.928665 0.725436 0.296386 -0.246446
O14   O     O_R   0.867545 0.583804 0.155265 -0.342232
F4    F     F_    0.084953 0.723723 0.536134 -0.536347

loop_
_geom_bond_atom_site_label_1
_geom_bond_atom_site_label_2
_geom_bond_distance
_ccdc_geom_bond_type
C12   H5    1.113582 S    
C30   H16   1.059996 S    
N5    O13   1.301199 A    
C11   C14   1.464849 S    
Cu1   Cu2   2.705625 S    
C20   F1    1.349170 S    
C24   C25   1.378740 A    
C5    H2    1.109206 S    
C4    C8    1.423299 S    
C15   C16   1.199515 T    
Cu2   N1    2.033510 S    
C18   H11   1.082719 S    
O7    C4    1.299831 A    
C7    H3    1.114196 S    
C33   C34   1.421090 A    
C20   C21   1.422615 A    
O5    C3    1.297620 A    
C5    C9    1.555415 S    
C6    C7    1.571907 S    
C27   C28   1.387512 A    
C13   F4    1.386788 S    
C10   C11   1.552491 S    
C31   N2    1.382504 A    
N4    O11   1.301591 A    
C12   H8    1.108956 S    
C5    C10   1.549552 S    
C8    C14   1.199468 T    
N1    C33   1.367962 A    
C9    C15   1.465581 S    
C7    N5    1.472416 S    
N5    O14   1.301293 A    
O3    Cu1   1.925984 S    
H12   C33   1.081738 S    
C29   C30   1.387397 A    
C1    C23   1.444408 S    
C7    C11   1.564452 S    
H1    C10   1.113103 S    
C5    H6    1.113608 S    
C6    N4    1.474881 S    
C11   C12   1.554023 S    
O3    C2    1.300697 A    
C3    C26   1.452575 S    
C10   H7    1.113455 S    
C12   C13   1.550466 S    
C29   H15   1.083084 S    
C27   C32   1.415608 A    
C28   H14   1.083068 S    
C28   C29   1.377216 A    
N3    O10   1.301429 A    
Cu1   O7    1.926133 S    
C22   C23   1.413048 A    
C25   F2    1.357402 S    
C34   N2    1.367978 A    
Cu2   O8    1.925985 S    
Cu1   N2    2.033079 S    
C19   C20   1.409270 A    
O8    C4    1.299693 A    
C13   H4    1.113533 S    
C30   C31   1.417119 A    
C21   C22   1.416239 A    
H9    C24   1.084407 S    
C23   C24   1.391031 A    
Cu1   O5    1.958443 S    
C25   C26   1.399848 A    
C17   H10   1.080916 S    
C6    C9    1.572542 S    
O1    Cu1   1.958879 S    
O2    Cu2   1.958443 S    
C6    F3    1.390797 S    
O6    C3    1.300315 A    
O4    Cu2   1.926132 S    
C19   N3    1.442987 S    
N3    O9    1.301862 A    
C17   C18   1.388590 A    
O2    C1    1.296667 A    
C32   N1    1.383195 A    
C18   C19   1.397011 A    
C31   C32   1.436921 A    
O4    C2    1.299257 A    
C21   C26   1.426840 A    
H17   C34   1.081875 S    
C2    C16   1.423765 S    
Cu2   O6    1.958878 S    
C27   H13   1.058378 S    
C9    C13   1.557710 S    
C17   C22   1.411548 A    
N4    O12   1.301602 A    
O1    C1    1.296528 A    
