data_mof_unit_66479.cif
_audit_creation_date              2013-03-05T15:41:44-0500
_audit_creation_method            fapswitch 2.2
_symmetry_space_group_name_H-M    P1
_symmetry_Int_Tables_number       1
_space_group_crystal_system       triclinic
_cell_length_a                    8.225334
_cell_length_b                    14.93782
_cell_length_c                    15.103191
_cell_angle_alpha                 97.397168
_cell_angle_beta                  99.94154
_cell_angle_gamma                 97.129437
_cell_volume                      1792.17301132

loop_
_atom_site_label
_atom_site_type_symbol
_atom_site_description
_atom_site_fract_x
_atom_site_fract_y
_atom_site_fract_z
_atom_type_partial_charge
P1    P     P_3+3 0.004200 0.709230 0.580350 0.463926
O1    O     O_2   0.174080 0.723060 0.553930 -0.370411
O2    O     O_3   0.901570 0.609580 0.550840 -0.360832
O3    O     O_3   0.370350 0.665080 0.388270 -0.347436
O4    O     O_2   0.285203 0.824311 0.449154 -0.396834
O5    O     O_3   0.056905 0.734028 0.699091 -0.596680
O6    O     O_3   0.349521 0.810830 0.285755 -0.540853
H1    H     H_    0.290716 0.676999 0.220385 0.143134
C1    C     C_3   0.348069 0.768132 0.127638 -0.984735
H2    H     H_    0.217758 0.781875 0.109443 0.289374
H3    H     H_    0.435765 0.830593 0.126325 0.255417
P2    P     P_3+3 0.305000 0.425570 0.290900 0.531854
P3    P     P_3+3 0.886960 0.617186 0.223780 0.510976
O7    O     O_2   0.134790 0.452800 0.278150 -0.375612
O8    O     O_3   0.937650 0.618620 0.340860 -0.326097
O9    O     O_2   0.007170 0.561820 0.179722 -0.344699
O10   O     O_3   0.266549 0.306272 0.263986 -0.552071
O11   O     O_3   0.934917 0.728015 0.199897 -0.536512
C2    C     C_3   0.911730 0.790583 0.272895 0.476075
H4    H     H_    0.006450 0.789337 0.334492 0.153144
H5    H     H_    0.785126 0.775260 0.288484 0.026849
C3    C     C_3   0.932426 0.886367 0.248223 -0.985536
H6    H     H_    0.058732 0.904016 0.232850 0.286745
H7    H     H_    0.836859 0.890326 0.187724 0.250227
C4    C     C_3   0.759260 0.331213 0.251977 0.212734
H8    H     H_    0.635961 0.354772 0.239564 0.098019
H9    H     H_    0.854754 0.389514 0.286558 0.155808
C5    C     C_3   0.801997 0.293891 0.161084 0.003629
H10   H     H_    0.709425 0.233201 0.127651 0.173725
H11   H     H_    0.927654 0.272713 0.172936 0.146863
Ba1   Ba    Ba6+2 0.154730 0.543770 0.458180 1.612735
C6    C     C_3   0.081397 0.654981 0.736395 0.431440
H12   H     H_    0.182364 0.624795 0.709951 0.084172
H13   H     H_    0.965939 0.604574 0.719896 0.128707
C7    C     C_3   0.129391 0.681006 0.839325 -1.016466
H14   H     H_    0.251261 0.726750 0.858020 0.268191
H15   H     H_    0.139204 0.619369 0.872201 0.224029
H16   H     H_    0.032545 0.716786 0.865319 0.275400
C8    C     C_3   0.219953 0.268187 0.337553 0.427191
H17   H     H_    0.105588 0.292977 0.353420 0.060360
H18   H     H_    0.321475 0.285438 0.398529 0.135598
C9    C     C_3   0.184820 0.164758 0.311460 -0.980750
H19   H     H_    0.079199 0.145268 0.252606 0.256868
H20   H     H_    0.152017 0.132203 0.369175 0.221307
H21   H     H_    0.297303 0.138906 0.292925 0.270516
P4    P     P_3+3 0.806080 0.290760 0.419570 0.482991
O12   O     O_2   0.636200 0.276890 0.446040 -0.339722
O13   O     O_3   0.908720 0.390410 0.449080 -0.393179
O14   O     O_3   0.439930 0.334910 0.611650 -0.326445
O15   O     O_3   0.748042 0.258148 0.301279 -0.608853
P5    P     P_3+3 0.915547 0.382941 0.776690 0.545938
O16   O     O_3   0.402060 0.547860 0.609750 -0.389479
O17   O     O_3   0.872630 0.381370 0.659060 -0.368795
O18   O     O_2   0.795418 0.439965 0.818624 -0.298811
O19   O     O_3   0.853917 0.272112 0.796315 -0.440041
Ba2   Ba    Ba6+2 0.655430 0.456220 0.541750 1.610956
P6    P     P_3+3 0.409377 0.783951 0.395164 0.446410
C10   C     C_3   0.378102 0.740334 0.221808 0.482691
H22   H     H_    0.508567 0.726532 0.237443 0.021273
H23   H     H_    0.368554 0.712238 0.076582 0.221664
O20   O     O_3   0.408220 0.452130 0.390170 -0.327767
C11   C     C_3   0.583002 0.738130 0.685598 0.376088
H24   H     H_    0.708737 0.723095 0.677031 0.070794
H25   H     H_    0.493198 0.714970 0.620347 0.113444
C12   C     C_3   0.587923 0.841395 0.709068 -0.689897
H26   H     H_    0.624287 0.875950 0.652986 0.160138
H27   H     H_    0.460162 0.855248 0.714797 0.198536
P7    P     P_3+3 0.499410 0.576790 0.723858 0.449027
O21   O     O_2   0.675490 0.547140 0.721820 -0.362110
O22   O     O_3   0.532281 0.695493 0.756036 -0.585872
H28   H     H_    0.917094 0.936569 0.305990 0.229591
C13   C     C_3   0.972938 0.218387 0.773034 0.416452
H29   H     H_    0.998776 0.226327 0.704360 0.057562
H30   H     H_    0.089931 0.237572 0.824857 0.115110
C14   C     C_3   0.907733 0.118293 0.771441 -0.897931
H31   H     H_    0.790623 0.097050 0.720070 0.262245
H32   H     H_    0.001948 0.075649 0.753244 0.226502
H33   H     H_    0.883278 0.107000 0.839480 0.269097
P8    P     P_3+3 0.398163 0.215746 0.603748 0.485720
C15   C     C_3   0.415809 0.188069 0.771721 0.863731
H34   H     H_    0.279266 0.172853 0.745874 -0.137574
O23   O     O_2   0.487576 0.176267 0.529465 -0.378899
O24   O     O_3   0.507293 0.181892 0.701273 -0.558303
C16   C     C_3   0.462585 0.117914 0.833255 -0.029382
H35   H     H_    0.596720 0.134099 0.865773 0.178363
H36   H     H_    0.440547 0.048718 0.792356 0.062263
C17   C     C_R   0.173136 0.171308 0.562503 0.121418
C18   C     C_R   0.104117 0.078326 0.554860 0.001384
C19   C     C_R   0.962205 0.891666 0.540601 -0.040967
C20   C     C_R   0.125346 0.924491 0.588346 -0.091298
C21   C     C_R   0.196198 0.014995 0.593089 -0.201175
C22   C     C_R   0.890924 0.798445 0.532145 0.208342
H37   H     H_    0.201161 0.881050 0.623076 0.161459
H38   H     H_    0.323848 0.034507 0.628230 0.146567
C23   C     C_R   0.723392 0.772411 0.491799 -0.474927
C24   C     C_R   0.913334 0.204028 0.476297 0.259446
C25   C     C_R   0.843651 0.110104 0.465619 -0.031573
C26   C     C_R   0.937545 0.047910 0.507813 0.029364
C27   C     C_R   0.683581 0.076008 0.413867 -0.084515
C28   C     C_R   0.611404 0.985759 0.410202 -0.170334
C29   C     C_R   0.699800 0.923883 0.453539 -0.034054
C30   C     C_R   0.866498 0.954402 0.500602 0.013619
C31   C     C_R   0.627623 0.832172 0.450894 0.178589
C32   C     C_R   0.074491 0.232865 0.526782 -0.501652
H39   H     H_    0.485295 0.965414 0.372549 0.185041
H40   H     H_    0.609840 0.118562 0.376374 0.177816
H41   H     H_    0.664679 0.704765 0.495257 0.215494
H42   H     H_    0.128461 0.303742 0.532904 0.168572
C33   C     C_R   0.233338 0.463828 0.764795 -0.419695
C34   C     C_R   0.134640 0.432057 0.823883 0.144230
C35   C     C_R   0.199139 0.443859 0.917469 -0.215962
C36   C     C_R   0.363072 0.490632 0.953928 0.148056
C37   C     C_R   0.454070 0.528310 0.892252 -0.179626
C38   C     C_R   0.390136 0.514775 0.799105 0.325314
C39   C     C_R   0.600515 0.550258 0.089359 -0.237608
C40   C     C_R   0.666969 0.565570 0.182135 0.160185
C41   C     C_R   0.413321 0.483779 0.211441 0.208812
C42   C     C_R   0.347288 0.467212 0.117815 -0.286525
C43   C     C_R   0.436360 0.503604 0.054663 0.089747
C44   C     C_R   0.568514 0.537985 0.243315 0.065289
H43   H     H_    0.683141 0.573603 0.046478 0.170352
H44   H     H_    0.117213 0.417962 0.959749 0.169764
H45   H     H_    0.227411 0.424878 0.096499 0.189334
H46   H     H_    0.573299 0.570895 0.913898 0.123810
H47   H     H_    0.183115 0.455157 0.692598 0.144604
Cl1   Cl    Cl    0.800884 0.375206 0.085100 -0.585647
C45   C     C_R   0.708728 0.879592 0.796530 0.293423
C46   C     C_R   0.650565 0.901935 0.877615 -0.091937
C47   C     C_R   0.763842 0.934306 0.959149 -0.151060
C48   C     C_R   0.935520 0.944435 0.960319 -0.061148
C49   C     C_R   0.994105 0.923033 0.879784 -0.081117
C50   C     C_R   0.881204 0.891481 0.798083 -0.171636
H48   H     H_    0.517949 0.893388 0.877938 0.129111
H49   H     H_    0.718538 0.950983 0.021528 0.137009
H50   H     H_    0.023052 0.968990 0.023555 0.144953
H51   H     H_    0.126919 0.930927 0.880521 0.169278
H52   H     H_    0.927786 0.876838 0.735940 0.145553
Cl2   Cl    Cl    0.469360 0.299592 0.836265 -0.546377
Cl3   Cl    Cl    0.340275 0.115865 0.919926 -0.660684
Cl4   Cl    Cl    0.637142 0.573410 0.359996 -0.579431

loop_
_geom_bond_atom_site_label_1
_geom_bond_atom_site_label_2
_geom_bond_distance
_ccdc_geom_bond_type
O5    C6    1.394061 S    
C17   C18   1.416030 A    
C29   C30   1.420565 A    
C39   H43   1.074355 S    
C19   C30   1.423931 A    
Ba1   O20   2.891760 S    
C35   C36   1.421370 A    
P2    C41   1.853558 S    
Ba1   O16   2.776312 S    
C15   C16   1.528836 S    
C46   C47   1.398934 A    
P8    C17   1.856072 S    
C25   C26   1.423480 A    
C8    H18   1.109848 S    
C4    C5    1.528758 S    
C28   H39   1.079490 S    
P3    O11   1.751386 S    
C12   C45   1.506599 S    
C5    H10   1.111156 S    
C7    H15   1.105929 S    
C16   H36   1.110513 S    
O11   C2    1.406034 S    
C15   O24   1.405435 S    
C39   C40   1.391576 A    
P1    Ba1   3.379448 S    
C11   O22   1.404703 S    
C1    C10   1.520702 S    
O10   C8    1.400277 S    
C42   C43   1.420549 A    
C11   H25   1.110831 S    
H1    C10   1.110325 S    
C45   C50   1.403430 A    
C48   H50   1.082542 S    
C16   Cl3   1.784356 S    
C23   C31   1.395563 A    
P7    O21   1.570303 D    
C12   H27   1.111494 S    
P2    O10   1.752192 S    
C44   Cl4   1.745412 S    
Ba1   Ba2   4.588224 S    
C1    H2    1.110845 S    
O7    Ba1   2.847087 S    
O6    C10   1.405327 S    
O19   C13   1.402608 S    
O16   P7    1.744667 S    
C29   C31   1.416575 A    
C35   H44   1.076557 S    
C9    H20   1.107653 S    
C13   C14   1.520211 S    
C36   C37   1.419821 A    
C25   C27   1.406965 A    
C5    Cl1   1.774986 S    
C8    C9    1.522796 S    
P6    C31   1.857707 S    
P4    O13   1.585714 S    
P1    O5    1.749851 S    
O3    Ba1   2.808124 S    
C6    C7    1.522522 S    
C7    H16   1.110848 S    
C16   H35   1.110424 S    
C13   H30   1.111073 S    
C49   H51   1.082105 S    
C41   C44   1.395615 A    
C8    H17   1.104953 S    
C13   H29   1.111998 S    
C10   H22   1.108969 S    
C26   C30   1.428519 A    
C22   C23   1.391928 A    
C40   C44   1.397501 A    
O1    Ba1   2.847249 S    
P1    O2    1.585687 S    
C9    H21   1.110766 S    
C6    H13   1.106082 S    
O3    P6    1.751076 S    
C14   H31   1.110513 S    
C11   H24   1.110478 S    
C4    O15   1.400785 S    
C36   C43   1.514618 S    
C14   H32   1.110339 S    
O2    Ba2   2.835068 S    
C27   C28   1.394175 A    
C18   C21   1.403390 A    
C24   C25   1.425902 A    
C2    C3    1.521103 S    
C34   C35   1.401447 A    
C4    H8    1.107910 S    
C19   C22   1.422980 A    
O2    Ba1   2.901907 S    
C1    H3    1.110805 S    
C23   H41   1.076208 S    
C33   C38   1.391089 A    
C33   H47   1.082231 S    
P2    O7    1.493675 D    
Ba2   O21   2.847195 S    
P1    C22   1.870308 S    
C39   C43   1.418262 A    
Ba1   O13   2.834397 S    
P3    O8    1.741999 S    
P2    Ba1   3.391108 S    
C3    H7    1.110735 S    
C4    H9    1.104368 S    
C9    H19   1.110658 S    
C45   C46   1.405956 A    
C3    H28   1.110162 S    
C32   H42   1.081904 S    
C20   H37   1.077152 S    
C37   C38   1.393370 A    
O17   Ba2   2.737514 S    
O13   Ba2   2.902893 S    
C27   H40   1.078152 S    
P4    O12   1.515786 D    
C11   C12   1.531505 S    
C2    H5    1.109793 S    
C3    H6    1.110775 S    
C15   H34   1.108079 S    
P8    O23   1.539328 D    
O8    Ba1   2.737016 S    
P5    C34   1.840538 S    
O14   Ba2   2.807430 S    
P4    O15   1.755194 S    
C41   C42   1.402545 A    
O4    P6    1.544482 D    
C1    H23   1.110904 S    
C6    H12   1.101658 S    
P5    O18   1.545683 D    
C2    H4    1.109334 S    
C24   C32   1.395992 A    
C48   C49   1.397991 A    
C47   C48   1.398178 A    
C46   H48   1.083339 S    
C21   H38   1.077426 S    
P8    O24   1.754702 S    
P2    O20   1.565190 S    
C20   C21   1.391970 A    
C37   H46   1.074339 S    
C15   Cl2   1.780722 S    
P1    O1    1.515419 D    
C5    H11   1.110072 S    
C28   C29   1.403441 A    
P5    O19   1.748019 S    
C42   H45   1.076563 S    
C49   C50   1.397533 A    
C14   H33   1.110181 S    
P3    C40   1.843967 S    
C47   H49   1.082757 S    
C17   C32   1.398836 A    
O14   P8    1.755052 S    
P4    C24   1.870676 S    
P7    O22   1.751322 S    
C12   H26   1.111345 S    
P3    O9    1.546903 D    
P4    Ba2   3.380070 S    
Ba2   O20   2.775836 S    
C7    H14   1.110888 S    
C50   H52   1.080577 S    
P5    O17   1.747030 S    
C19   C20   1.404490 A    
C33   C34   1.394373 A    
O6    P6    1.753029 S    
C18   C26   1.419407 A    
O16   Ba2   2.890867 S    
P7    C38   1.837043 S    
O12   Ba2   2.847689 S    
