data_mof_unit_13000.cif
_audit_creation_date              2012-10-26T21:33:23-0400
_audit_creation_method            fapswitch 2.2
_symmetry_space_group_name_H-M    P1
_symmetry_Int_Tables_number       1
_space_group_crystal_system       triclinic
_cell_length_a                    28.251248
_cell_length_b                    18.451043
_cell_length_c                    16.985576
_cell_angle_alpha                 89.357453
_cell_angle_beta                  60.226366
_cell_angle_gamma                 89.559739
_cell_volume                      7684.70124679

loop_
_atom_site_label
_atom_site_type_symbol
_atom_type_description
_atom_site_fract_x
_atom_site_fract_y
_atom_site_fract_z
_atom_type_partial_charge
C1    C     C_R   0.702173 0.270239 0.676230 0.922004
C2    C     C_R   0.098356 0.499711 0.501160 0.066967
C3    C     C_R   0.202479 0.199402 0.887922 0.120900
C4    C     C_R   0.079673 0.090815 0.927683 0.928882
C5    C     C_R   0.932305 0.893872 0.060562 0.881130
C6    C     C_R   0.928575 0.103005 0.062897 0.933381
C7    C     C_R   0.068618 0.894446 0.939442 0.849782
C8    C     C_R   0.579375 0.591463 0.927952 0.937871
C9    C     C_R   0.432641 0.393603 0.060245 0.861267
C10   C     C_R   0.423518 0.595995 0.068710 0.941108
C11   C     C_R   0.569153 0.394801 0.939130 0.853066
C12   C     C_R   0.572187 0.118034 0.435635 0.109407
C13   C     C_R   0.405999 0.001348 0.481802 0.075326
C14   C     C_R   0.427649 0.882206 0.564741 0.106703
C15   C     C_R   0.476974 0.120890 0.421177 0.114462
C16   C     C_R   0.522857 0.879364 0.579236 0.108775
C17   C     C_R   0.072815 0.625216 0.432339 0.103308
C18   C     C_R   0.961851 0.368255 0.465942 0.097105
C19   C     C_R   0.978862 0.627846 0.413568 0.109112
C20   C     C_R   0.040306 0.371227 0.521144 0.102593
C21   C     C_R   0.561476 0.176985 0.393704 -0.182284
C22   C     C_R   0.438377 0.823240 0.606612 -0.182480
C23   C     C_R   0.514023 0.178672 0.387231 -0.189270
C24   C     C_R   0.593865 0.998847 0.518521 0.069839
C25   C     C_R   0.485804 0.821583 0.613173 -0.178335
C26   C     C_R   0.058508 0.688318 0.401607 -0.181591
C27   C     C_R   0.977921 0.303726 0.490691 -0.184698
C28   C     C_R   0.011257 0.690073 0.394138 -0.193340
C29   C     C_R   0.015272 0.305677 0.521823 -0.181283
C30   C     C_R   0.488324 0.060575 0.460945 0.037255
C31   C     C_R   0.511469 0.939717 0.539572 0.032669
C32   C     C_R   0.535652 0.059500 0.469090 0.038288
C33   C     C_R   0.464141 0.940791 0.531421 0.037127
C34   C     C_R   0.995263 0.563456 0.438360 0.039544
C35   C     C_R   0.079381 0.373532 0.548500 -0.221964
C36   C     C_R   0.026824 0.435004 0.490658 0.032893
C37   C     C_R   0.040859 0.562884 0.451496 0.038943
C38   C     C_R   0.985079 0.434170 0.468459 0.035841
C39   C     C_R   0.967125 0.498990 0.447379 -0.044899
C40   C     C_R   0.055028 0.499415 0.482024 -0.044711
C41   C     C_R   0.452750 0.001002 0.491613 -0.041905
C42   C     C_R   0.547051 0.999275 0.508882 -0.044063
C43   C     C_R   0.895032 0.433028 0.439621 0.056428
C44   C     C_R   0.129137 0.563176 0.486305 0.052580
C45   C     C_R   0.112062 0.435789 0.532291 0.062189
C46   C     C_R   0.930220 0.628898 0.409689 -0.239186
C47   C     C_R   0.897903 0.565578 0.428958 0.064986
C48   C     C_R   0.372251 0.939785 0.506948 0.050615
C49   C     C_R   0.627652 0.060361 0.493264 0.051508
C50   C     C_R   0.607779 0.936440 0.551672 0.062811
C51   C     C_R   0.392142 0.063695 0.448500 0.067340
C52   C     C_R   0.843205 0.434761 0.443817 -0.108798
C53   C     C_R   0.169395 0.563200 0.514209 -0.112402
C54   C     C_R   0.159547 0.435952 0.542022 -0.108353
C55   C     C_R   0.844372 0.565250 0.439544 -0.115560
C56   C     C_R   0.330605 0.938004 0.482815 -0.108789
C57   C     C_R   0.922207 0.368006 0.440221 -0.230812
C58   C     C_R   0.669372 0.062056 0.517222 -0.113483
C59   C     C_R   0.658517 0.935651 0.550598 -0.112704
C60   C     C_R   0.341475 0.064407 0.449369 -0.118588
C61   C     C_R   0.819897 0.500200 0.441196 -0.289318
C62   C     C_R   0.183680 0.500241 0.541374 -0.293316
C63   C     C_R   0.315462 0.000279 0.455701 -0.283186
C64   C     C_R   0.684558 0.999755 0.544210 -0.281729
C65   C     C_3   0.597753 0.303224 0.064341 -0.439652
C66   C     C_3   0.584244 0.226531 0.104294 -0.757150
C67   C     C_3   0.314704 0.556189 0.084952 -0.427861
C68   C     C_R   0.118511 0.623460 0.444042 -0.238092
C69   C     C_3   0.309077 0.507703 0.163139 -0.830672
C70   C     C_3   0.417654 0.279824 0.943528 -0.418191
C71   C     C_3   0.419837 0.198438 0.925907 -0.699579
C72   C     C_3   0.682013 0.567265 0.941545 -0.386054
C73   C     C_3   0.696746 0.507758 0.870933 -0.790705
C74   C     C_3   0.093872 0.796760 0.063416 -0.435319
C75   C     C_3   0.081703 0.718293 0.097569 -0.765253
C76   C     C_3   0.892666 0.184550 0.941799 -0.381078
C77   C     C_3   0.879945 0.119123 0.900531 -0.743979
C78   C     C_3   0.917766 0.779824 0.943365 -0.422712
C79   C     C_R   0.571027 0.877655 0.584170 -0.222452
C80   C     C_3   0.920117 0.698464 0.925507 -0.696505
C81   C     C_3   0.181314 0.067101 0.944644 -0.383129
C82   C     C_3   0.195665 0.005516 0.876740 -0.792432
C83   C     C_R   0.428870 0.122517 0.416064 -0.233908
C84   C     C_R   0.381387 0.882934 0.554708 -0.233202
C85   C     C_R   0.298552 0.732243 0.323572 0.892417
C86   C     C_R   0.618494 0.117239 0.445538 -0.233397
C87   C     C_R   0.714490 0.255050 0.959969 -0.114023
C88   C     C_R   0.271440 0.714205 0.051657 -0.098442
C89   C     C_R   0.289909 0.252051 0.035262 -0.103114
C90   C     C_R   0.734974 0.717736 0.934828 -0.089871
C91   C     C_R   0.211499 0.748093 0.960763 -0.118519
C92   C     C_R   0.776671 0.233332 0.048304 -0.114377
C93   C     C_R   0.789996 0.751591 0.035100 -0.102950
C94   C     C_R   0.235002 0.217523 0.935085 -0.089722
C95   C     C_R   0.727491 0.184054 0.975416 0.463739
C96   C     C_R   0.296317 0.273980 0.325067 0.896680
C97   C     C_R   0.254957 0.787003 0.047712 0.471737
C98   C     C_R   0.247187 0.199819 0.068209 0.469375
C99   C     C_R   0.783103 0.760927 0.896260 0.473020
C100  C     C_R   0.232811 0.677875 0.955576 0.465855
C101  C     C_R   0.765083 0.304283 0.030469 0.482101
C102  C     C_R   0.747309 0.699276 0.067785 0.469192
C103  C     C_R   0.283220 0.260550 0.896240 0.473617
C104  C     C_R   0.756606 0.174286 0.022097 -0.335103
C105  C     C_R   0.224205 0.801955 0.004826 -0.326873
C106  C     C_R   0.215954 0.192872 0.024910 -0.329907
C107  C     C_R   0.699425 0.736287 0.676799 0.903690
C108  C     C_R   0.803187 0.785849 0.952139 -0.284518
C109  C     C_R   0.264723 0.663491 0.996074 -0.325098
C110  C     C_R   0.733285 0.314099 0.988491 -0.343310
C111  C     C_R   0.716173 0.692322 0.024282 -0.323943
C112  C     C_R   0.303197 0.285956 0.952066 -0.289623
C113  C     C_R   0.629799 0.303768 0.960456 0.167102
C114  C     C_R   0.334237 0.633028 0.086996 0.122893
C115  C     C_R   0.375270 0.298956 0.040882 0.136283
C116  C     C_R   0.667753 0.638109 0.910771 0.101656
C117  C     C_R   0.128095 0.801514 0.960087 0.161454
C118  C     C_R   0.202494 0.771146 0.675839 0.899572
C119  C     C_R   0.861902 0.184295 0.045274 0.149701
C120  C     C_R   0.875334 0.798729 0.040773 0.133007
C121  C     C_R   0.168045 0.137270 0.910913 0.102923
C122  C     C_R   0.608295 0.335538 0.907292 -0.128144
C123  C     C_R   0.376027 0.640647 0.109725 -0.060653
C124  C     C_R   0.393995 0.334279 0.094459 -0.122944
C125  C     C_R   0.626057 0.638564 0.886229 -0.081453
C126  C     C_R   0.107519 0.835090 0.906837 -0.128220
C127  C     C_R   0.886841 0.158503 0.096062 -0.131869
C128  C     C_R   0.893961 0.834169 0.094452 -0.128309
C129  C     C_R   0.797238 0.228978 0.324320 0.884488
C130  C     C_R   0.126569 0.137482 0.885820 -0.077849
C131  C     C_R   0.630076 0.318496 0.817087 -0.281349
C132  C     C_R   0.367814 0.682648 0.181664 -0.275957
C133  C     C_R   0.370006 0.320597 0.185540 -0.285315
C134  C     C_R   0.631187 0.681219 0.815761 -0.290424
C135  C     C_R   0.129964 0.819476 0.816115 -0.277063
C136  C     C_R   0.867119 0.178409 0.184511 -0.286644
C137  C     C_R   0.870174 0.820096 0.185402 -0.277838
C138  C     C_R   0.131752 0.180077 0.815298 -0.297485
C139  C     C_R   0.678187 0.280924 0.773238 -0.090466
C140  C     C_R   0.796427 0.773723 0.324991 0.897396
C141  C     C_R   0.318588 0.716815 0.229163 -0.057324
C142  C     C_R   0.320032 0.288376 0.228939 -0.079730
C143  C     C_R   0.675005 0.726085 0.774081 -0.102644
C144  C     C_R   0.178433 0.782734 0.772322 -0.081960
C145  C     C_R   0.818901 0.215197 0.228991 -0.067777
C146  C     C_R   0.820243 0.787765 0.228787 -0.081127
C147  C     C_R   0.175367 0.225231 0.773918 -0.101568
C148  C     C_R   0.705482 0.259076 0.820438 -0.146752
C149  C     C_R   0.285191 0.727218 0.189051 -0.112176
C150  C     C_R   0.292245 0.273516 0.181026 -0.147497
C151  C     C_R   0.199515 0.236051 0.676802 0.909512
C152  C     C_R   0.702957 0.746024 0.820198 -0.105307
C153  C     C_R   0.205598 0.761494 0.819509 -0.149626
C154  C     C_R   0.789145 0.233268 0.184584 -0.152903
C155  C     C_R   0.792468 0.772744 0.180873 -0.134509
C156  C     C_R   0.203274 0.245178 0.820086 -0.105897
C157  C     C_R   0.696791 0.127758 0.517212 0.903009
C158  C     C_R   0.303205 0.872258 0.482804 0.896831
C159  C     C_R   0.308996 0.129736 0.464035 0.904045
C160  C     C_R   0.691011 0.870298 0.535894 0.864329
C161  C     C_R   0.196661 0.628015 0.517175 0.908371
C162  C     C_R   0.920214 0.499226 0.437770 0.071407
C163  C     C_R   0.808450 0.370869 0.465927 0.903476
C164  C     C_R   0.809181 0.629694 0.463558 0.903476
C165  C     C_R   0.191547 0.370876 0.532840 0.865490
C166  C     C_R   0.681876 0.270437 0.914047 0.179028
C167  C     C_R   0.297809 0.692024 0.107902 0.091093
C168  C     C_R   0.319955 0.273727 0.085209 0.151276
C169  C     C_R   0.702237 0.700130 0.887865 0.122764
C170  C     C_R   0.180507 0.769062 0.913815 0.172895
C171  C     C_R   0.810322 0.218306 0.092445 0.141068
C172  C     C_R   0.820102 0.773121 0.085065 0.154793
H1    H     H_    0.025827 0.255716 0.543661 0.146448
H2    H     H_    0.216635 0.500429 0.556788 0.204288
H3    H     H_    0.280541 0.999884 0.445344 0.199543
H4    H     H_    0.719532 0.000119 0.554423 0.204782
H5    H     H_    0.083254 0.326192 0.582874 0.172564
H6    H     H_    0.919091 0.678800 0.389023 0.169704
H7    H     H_    0.913992 0.316119 0.421316 0.184025
H8    H     H_    0.145541 0.669323 0.417514 0.177916
H9    H     H_    0.578529 0.831540 0.616484 0.161903
H10   H     H_    0.421427 0.168574 0.383592 0.162468
H11   H     H_    0.352365 0.839523 0.586672 0.171373
H12   H     H_    0.000083 0.740015 0.373263 0.144341
H13   H     H_    0.647553 0.160593 0.413441 0.170692
H14   H     H_    0.723612 0.368476 0.976608 0.195200
H15   H     H_    0.285051 0.612091 0.980535 0.196031
H16   H     H_    0.331719 0.330137 0.926917 0.192597
H17   H     H_    0.678875 0.661327 0.058637 0.194426
H18   H     H_    0.211433 0.857148 0.002940 0.197653
H19   H     H_    0.765177 0.119845 0.036132 0.210472
H20   H     H_    0.831667 0.830082 0.927242 0.193111
H21   H     H_    0.178487 0.162274 0.059657 0.193338
H22   H     H_    0.611489 0.339261 0.778778 0.192908
H23   H     H_    0.959901 0.252359 0.489668 0.146609
H24   H     H_    0.396274 0.681171 0.207092 0.177955
H25   H     H_    0.388536 0.340023 0.223990 0.191265
H26   H     H_    0.604734 0.673771 0.787131 0.183718
H27   H     H_    0.111611 0.840622 0.777621 0.193510
H28   H     H_    0.887904 0.161354 0.220848 0.189035
H29   H     H_    0.888719 0.839527 0.223832 0.188617
H30   H     H_    0.105326 0.172638 0.786609 0.182066
H31   H     H_    0.745475 0.234181 0.784459 0.185365
H32   H     H_    0.248223 0.758969 0.222847 0.195978
H33   H     H_    0.249491 0.260674 0.218901 0.205623
H34   H     H_    0.082935 0.736948 0.385976 0.152219
H35   H     H_    0.727970 0.793650 0.797579 0.213927
H36   H     H_    0.246291 0.738815 0.783077 0.187306
H37   H     H_    0.749231 0.258246 0.221587 0.186574
H38   H     H_    0.749727 0.759929 0.218777 0.205181
H39   H     H_    0.228203 0.292894 0.797591 0.214041
H40   H     H_    0.646050 0.075755 0.906755 0.390018
H41   H     H_    0.251284 0.927499 0.200569 0.402255
H42   H     H_    0.279792 0.086185 0.213652 0.382103
H43   H     H_    0.843447 0.721603 0.653750 0.392095
H44   H     H_    0.156747 0.577223 0.869955 0.387965
H45   H     H_    0.493585 0.774978 0.644509 0.149262
H46   H     H_    0.769212 0.440167 0.180323 0.401162
H47   H     H_    0.779231 0.586752 0.214721 0.379131
H48   H     H_    0.343759 0.219543 0.654100 0.392102
H49   H     H_    0.565153 0.195033 0.072058 0.286283
H50   H     H_    0.620908 0.197846 0.096013 0.283602
H51   H     H_    0.554890 0.229370 0.178210 0.221261
H52   H     H_    0.620633 0.332520 0.091577 0.222773
H53   H     H_    0.557466 0.329559 0.091848 0.227585
H54   H     H_    0.349017 0.495966 0.157707 0.264509
H55   H     H_    0.282184 0.534080 0.229282 0.254028
H56   H     H_    0.506214 0.225299 0.355972 0.140630
H57   H     H_    0.290633 0.455078 0.161833 0.251801
H58   H     H_    0.272613 0.557152 0.096041 0.226953
H59   H     H_    0.342187 0.530282 0.018828 0.239389
H60   H     H_    0.424737 0.167654 0.978016 0.261291
H61   H     H_    0.382495 0.179815 0.926411 0.281930
H62   H     H_    0.455222 0.186346 0.858151 0.248310
H63   H     H_    0.412538 0.310852 0.892360 0.234923
H64   H     H_    0.459053 0.294649 0.930343 0.195983
H65   H     H_    0.661539 0.493576 0.862391 0.241212
H66   H     H_    0.731025 0.525769 0.804420 0.271722
H67   H     H_    0.410536 0.777787 0.632919 0.152736
H68   H     H_    0.709586 0.458161 0.892755 0.246409
H69   H     H_    0.718579 0.573032 0.949003 0.256641
H70   H     H_    0.648020 0.549190 0.008120 0.235308
H71   H     H_    0.063693 0.688618 0.062221 0.280587
H72   H     H_    0.118921 0.689664 0.087275 0.280346
H73   H     H_    0.051982 0.717636 0.171485 0.229055
H74   H     H_    0.114425 0.825088 0.095402 0.220232
H75   H     H_    0.053320 0.822252 0.089130 0.220920
H76   H     H_    0.917892 0.100038 0.840273 0.238779
H77   H     H_    0.862494 0.073385 0.949672 0.268427
H78   H     H_    0.589350 0.222397 0.367277 0.149544
H79   H     H_    0.850861 0.134601 0.877222 0.260164
H80   H     H_    0.883541 0.235225 0.915781 0.220172
H81   H     H_    0.937264 0.187115 0.916227 0.203811
H82   H     H_    0.925078 0.667637 0.977528 0.261075
H83   H     H_    0.882808 0.679749 0.925961 0.282502
H84   H     H_    0.955527 0.686540 0.857716 0.248619
H85   H     H_    0.912579 0.810872 0.892279 0.235583
H86   H     H_    0.959126 0.794793 0.930252 0.195678
H87   H     H_    0.160845 0.991816 0.866955 0.242877
H88   H     H_    0.230988 0.021175 0.810159 0.268968
H89   H     H_    0.779690 0.500531 0.447870 0.200071
H90   H     H_    0.206782 0.956228 0.902112 0.250276
H91   H     H_    0.217809 0.073045 0.952241 0.254935
H92   H     H_    0.146958 0.050801 0.011769 0.235172
O1    O     O_R   0.746490 0.236330 0.638080 -0.618120
O2    O     O_R   0.325830 0.813840 0.483730 -0.638358
O3    O     O_R   0.325830 0.186160 0.483730 -0.629993
O4    O     O_R   0.674170 0.813840 0.516270 -0.633469
O5    O     O_R   0.174170 0.686160 0.516270 -0.639158
O6    O     O_R   0.825830 0.313840 0.483730 -0.647539
O7    O     O_R   0.825830 0.686160 0.483730 -0.633312
O8    O     O_R   0.174170 0.313840 0.516270 -0.644911
O9    O     O_R   0.739960 0.127620 0.525000 -0.620805
O10   O     O_R   0.260040 0.872380 0.475000 -0.624849
O11   O     O_R   0.260040 0.127620 0.475000 -0.616335
O12   O     O_R   0.253510 0.763670 0.361920 -0.638137
O13   O     O_R   0.739960 0.872380 0.525000 -0.622916
O14   O     O_R   0.239960 0.627620 0.525000 -0.615274
O15   O     O_R   0.760040 0.372380 0.475000 -0.620147
O16   O     O_R   0.760040 0.627620 0.475000 -0.616756
O17   O     O_R   0.239960 0.372380 0.525000 -0.619894
O18   O     O_R   0.680700 0.294870 0.629350 -0.621511
O19   O     O_R   0.319300 0.705130 0.370650 -0.621638
O20   O     O_R   0.319300 0.294870 0.370650 -0.641678
O21   O     O_R   0.680700 0.705130 0.629350 -0.631729
O22   O     O_R   0.180700 0.794870 0.629350 -0.627553
O23   O     O_R   0.253510 0.236330 0.361920 -0.601243
O24   O     O_R   0.819300 0.205130 0.370650 -0.638052
O25   O     O_R   0.819300 0.794870 0.370650 -0.642405
O26   O     O_R   0.180700 0.205130 0.629350 -0.632007
O27   O     O_R   0.062020 0.072840 0.007170 -0.620964
O28   O     O_R   0.937980 0.927160 0.992830 -0.613093
O29   O     O_R   0.937980 0.072840 0.992830 -0.605527
O30   O     O_R   0.062020 0.927160 0.007170 -0.631866
O31   O     O_R   0.562020 0.572840 0.007170 -0.616853
O32   O     O_R   0.437980 0.427160 0.992830 -0.617490
O33   O     O_R   0.437980 0.572840 0.992830 -0.610613
O34   O     O_R   0.746490 0.763670 0.638080 -0.590397
O35   O     O_R   0.562020 0.427160 0.007170 -0.634781
O36   O     O_R   0.947860 0.073950 0.109290 -0.609679
O37   O     O_R   0.052140 0.926050 0.890710 -0.624883
O38   O     O_R   0.052140 0.073950 0.890710 -0.628671
O39   O     O_R   0.947860 0.926050 0.109290 -0.619432
O40   O     O_R   0.447860 0.573950 0.109290 -0.617777
O41   O     O_R   0.552140 0.426050 0.890710 -0.624522
O42   O     O_R   0.552140 0.573950 0.890710 -0.618818
O43   O     O_R   0.447860 0.426050 0.109290 -0.628471
O44   O     O_2   0.753287 0.091612 0.840867 -0.304760
O45   O     O_R   0.246490 0.736330 0.638080 -0.625216
O46   O     O_2   0.704357 0.041822 0.995164 -0.290332
O47   O     O_3   0.649658 0.118394 0.938276 -0.571860
O48   O     O_2   0.334207 0.848617 0.069732 -0.295791
O49   O     O_2   0.284388 0.927060 0.019025 -0.249953
O50   O     O_3   0.234515 0.885920 0.187168 -0.569839
O51   O     O_2   0.189351 0.158362 0.242797 -0.336305
O52   O     O_2   0.218824 0.063706 0.128646 -0.257861
O53   O     O_3   0.291660 0.118685 0.160350 -0.549922
O54   O     O_2   0.816309 0.847755 0.750393 -0.307779
O55   O     O_2   0.885088 0.771542 0.757498 -0.305080
O56   O     O_R   0.753510 0.263670 0.361920 -0.637356
O57   O     O_3   0.817816 0.709314 0.718100 -0.553735
O58   O     O_2   0.262771 0.603017 0.804078 -0.307991
O59   O     O_2   0.220381 0.534591 0.946896 -0.288327
O60   O     O_3   0.157854 0.614737 0.910256 -0.566950
O61   O     O_2   0.848184 0.368505 0.036942 -0.312367
O62   O     O_2   0.789700 0.446171 0.003095 -0.252929
O63   O     O_3   0.751103 0.399336 0.168488 -0.548476
O64   O     O_2   0.689408 0.658620 0.242679 -0.332815
O65   O     O_2   0.717955 0.563579 0.129285 -0.250666
O66   O     O_3   0.791464 0.617690 0.160008 -0.553002
O67   O     O_R   0.753510 0.736330 0.361920 -0.600764
O68   O     O_2   0.316911 0.346391 0.749419 -0.301689
O69   O     O_2   0.385324 0.270168 0.757644 -0.304619
O70   O     O_3   0.317982 0.207740 0.718544 -0.555697
O71   O     O_R   0.246490 0.263670 0.638080 -0.589269
O72   O     O_R   0.674170 0.186160 0.516270 -0.635830
S1    S     S_3+6 0.709209 0.106163 0.936542 0.000188
S2    S     S_3+6 0.279226 0.863783 0.079347 0.026725
S3    S     S_3+6 0.235201 0.133677 0.152875 0.007718
S4    S     S_3+6 0.826855 0.774373 0.777986 0.000507
S5    S     S_3+6 0.219325 0.604977 0.902316 0.005343
S6    S     S_3+6 0.790622 0.381830 0.057423 0.033918
S7    S     S_3+6 0.734977 0.633335 0.152821 0.011232
S8    S     S_3+6 0.327146 0.273180 0.777866 0.001999
Zn1   Zn    Zn3+2 0.792340 0.208750 0.507670 0.976976
Zn2   Zn    Zn3+2 0.494040 0.500000 0.919480 0.962744
Zn3   Zn    Zn3+2 0.005960 1.000000 0.080520 0.948688
Zn4   Zn    Zn3+2 0.994040 1.000000 0.919480 0.944723
Zn5   Zn    Zn3+2 0.207660 0.791250 0.492330 0.978542
Zn6   Zn    Zn3+2 0.207660 0.208750 0.492330 0.996987
Zn7   Zn    Zn3+2 0.792340 0.791250 0.507670 1.000666
Zn8   Zn    Zn3+2 0.292340 0.708750 0.507670 0.997589
Zn9   Zn    Zn3+2 0.707660 0.291250 0.492330 0.985056
Zn10  Zn    Zn3+2 0.707660 0.708750 0.492330 1.008515
Zn11  Zn    Zn3+2 0.292340 0.291250 0.507670 1.008462
Zn12  Zn    Zn3+2 0.505960 0.500000 0.080520 0.950069

loop_
_geom_bond_atom_site_label_1
_geom_bond_atom_site_label_2
_ccdc_geom_bond_type
O12   Zn5   S    
C158  O2    A    
C31   C42   A    
H44   O60   S    
C152  H35   S    
C66   H50   S    
C50   C79   A    
C14   C33   A    
C19   C46   A    
C16   C31   A    
C96   O20   A    
C157  O72   A    
C80   H82   S    
C124  C133  A    
C50   C59   A    
O51   S3    D    
C6    C127  S    
O22   Zn5   S    
C52   C61   A    
C10   O40   A    
O52   S3    D    
C24   C42   A    
C71   H62   S    
C151  O71   A    
C140  O25   A    
C13   C51   A    
C117  C170  A    
O17   Zn11  S    
C113  C122  A    
C91   C100  A    
C117  C126  A    
C129  C145  S    
C88   C97   A    
C97   C105  A    
O28   Zn4   S    
O33   Zn2   S    
C67   H59   S    
C100  C109  A    
O45   Zn8   S    
C24   C50   A    
C102  C111  A    
C26   H34   S    
C163  O6    A    
C82   H88   S    
C137  C146  A    
C127  C136  A    
O53   S3    S    
O1    Zn1   S    
C113  C166  A    
C4    C130  S    
C101  C110  A    
C81   C121  S    
C103  C112  A    
C78   C120  S    
C153  H36   S    
C59   C160  S    
C150  C168  A    
C65   H53   S    
O36   Zn3   S    
C88   C109  A    
O15   Zn9   S    
C111  H17   S    
C100  S5    S    
C54   C165  S    
C107  C143  S    
C130  C138  A    
C51   C83   A    
C102  S7    S    
C15   C30   A    
C22   H67   S    
O70   S8    S    
C16   C25   A    
C72   C116  S    
C133  H25   S    
C80   H84   S    
C65   C113  S    
H40   O47   S    
C72   C73   S    
C107  O34   A    
C11   O35   A    
C8    O31   A    
C70   C115  S    
C98   C106  A    
C85   O12   A    
C12   C86   A    
C101  S6    S    
C161  O14   A    
C16   C79   A    
C18   C38   A    
C4    O27   A    
C61   H89   S    
C135  H27   S    
C138  H30   S    
O31   Zn12  S    
C163  O15   A    
O30   Zn3   S    
C5    C128  S    
C3    C156  A    
C78   H85   S    
C70   H63   S    
C7    C126  S    
C136  H28   S    
C92   C104  A    
C52   C163  S    
C2    C40   A    
C86   H13   S    
C85   O19   A    
C118  O45   A    
H46   O63   S    
C65   H52   S    
C3    C121  A    
C119  C171  A    
C93   C172  S    
C165  O8    A    
C123  C132  A    
C27   C29   A    
C91   C105  A    
C121  C130  A    
C69   H54   S    
O58   S5    D    
C114  C167  A    
C87   C110  A    
C109  H15   S    
C99   C108  A    
C133  C142  A    
O71   Zn11  S    
C37   C40   A    
C99   S4    S    
C38   C39   A    
C78   C80   S    
C43   C52   A    
C140  O67   A    
C96   O23   A    
C47   C162  A    
C2    C44   A    
C22   C25   A    
C87   C95   A    
C153  C170  A    
C30   C41   A    
C64   H4    S    
O68   S8    D    
C134  C143  A    
C156  H39   S    
C90   C111  A    
O25   Zn7   S    
C2    C45   A    
C58   C64   A    
O40   Zn12  S    
C139  C148  A    
H47   O66   S    
C34   C39   A    
C72   H70   S    
H43   O57   S    
C85   C141  S    
C21   H78   S    
C147  C151  S    
C69   H57   S    
O2    Zn8   S    
C44   C53   A    
C4    O38   A    
C39   C162  A    
C19   C28   A    
C5    O39   A    
C114  C123  A    
C7    O37   A    
O56   Zn9   S    
C164  O7    A    
C160  O4    A    
C116  C125  A    
C76   H80   S    
C11   C122  S    
C145  C154  A    
O62   S6    D    
C122  C131  A    
C132  C141  A    
C110  H14   S    
O14   Zn8   S    
C49   C86   A    
C66   H51   S    
C58   C157  S    
C81   H91   S    
O55   S4    D    
C151  O26   A    
C14   C22   A    
C28   H12   S    
C73   H66   S    
C10   O33   A    
C137  H29   S    
C55   C61   A    
C90   C169  S    
C154  C171  A    
C71   H61   S    
C131  C139  A    
C43   C57   A    
C43   C162  A    
C108  H20   S    
C51   C60   A    
C115  C168  A    
O46   S1    D    
O61   S6    D    
O27   Zn3   S    
C125  C134  A    
C35   H5    S    
C11   O41   A    
O72   Zn9   S    
C34   C37   A    
C148  C166  A    
C90   C99   A    
C25   H45   S    
C149  C167  A    
C60   C159  S    
C14   C84   A    
C13   C41   A    
C23   H56   S    
O19   Zn8   S    
C6    O29   A    
C89   C112  A    
O16   Zn10  S    
C107  O21   A    
C67   C114  S    
O50   S2    S    
C93   C108  A    
C157  O9    A    
C74   H74   S    
C8    O42   A    
O43   Zn12  S    
C134  H26   S    
H41   O50   S    
H42   O53   S    
C75   H72   S    
C155  C172  A    
O42   Zn2   S    
C146  C155  A    
O69   S8    D    
C82   H90   S    
C70   C71   S    
O66   S7    S    
O47   S1    S    
C1    C139  S    
C66   H49   S    
C103  S8    S    
C7    O30   A    
C129  O24   A    
O59   S5    D    
O34   Zn7   S    
C165  O17   A    
O9    Zn1   S    
C73   H68   S    
C10   C123  S    
C140  C146  S    
C57   H7    S    
O57   S4    S    
C15   C83   A    
O13   Zn7   S    
C161  O5    A    
C104  H19   S    
O67   Zn10  S    
C79   H9    S    
C89   C168  S    
C112  H16   S    
O63   S6    S    
C98   S3    S    
C18   C57   A    
C88   C167  S    
C78   H86   S    
C70   H64   S    
O35   Zn12  S    
C147  C156  A    
C149  H32   S    
O11   Zn6   S    
C92   C101  A    
C143  C152  A    
C126  C135  A    
C21   C23   A    
C77   H77   S    
C97   S2    S    
C5    O28   A    
O64   S7    D    
O54   S4    D    
C46   C47   A    
C17   C68   A    
C115  C124  A    
O29   Zn4   S    
C82   H87   S    
C105  H18   S    
C155  H38   S    
C160  O13   A    
O26   Zn6   S    
C93   C102  A    
C120  C128  A    
O48   S2    D    
O23   Zn6   S    
C54   C62   A    
C89   C98   A    
O8    Zn6   S    
C77   H76   S    
C33   C41   A    
C142  C150  A    
C36   C38   A    
C6    O36   A    
C152  C169  A    
C118  O22   A    
C20   C36   A    
C8    C125  S    
C32   C42   A    
O49   S2    D    
C62   H2    S    
C80   H83   S    
C46   H6    S    
O41   Zn2   S    
C81   C82   S    
C141  C149  A    
C59   C64   A    
O21   Zn10  S    
C60   C63   A    
C17   C26   A    
C55   C164  S    
C154  H37   S    
C118  C144  S    
O7    Zn7   S    
C1    O18   A    
C87   C166  S    
O38   Zn4   S    
C92   C171  S    
C159  O3    A    
C95   S1    S    
C9    C124  S    
O3    Zn11  S    
C144  C153  A    
O37   Zn4   S    
O65   S7    D    
C56   C158  S    
C67   H58   S    
C71   H60   S    
C31   C33   A    
C77   H79   S    
O4    Zn10  S    
C136  C145  A    
C75   H73   S    
C15   C23   A    
C12   C32   A    
O60   S5    S    
C20   C35   A    
C69   H55   S    
C158  O10   A    
C106  H21   S    
C20   C29   A    
C76   C119  S    
C74   C75   S    
C36   C40   A    
H48   O70   S    
C76   C77   S    
C120  C172  A    
C12   C21   A    
C68   H8    S    
C49   C58   A    
C48   C84   A    
C83   H10   S    
O5    Zn5   S    
C67   C69   S    
C128  C137  A    
C129  O56   A    
O6    Zn1   S    
C73   H65   S    
C53   C62   A    
O24   Zn1   S    
C9    O43   A    
C138  C147  A    
C56   C63   A    
C1    O1    A    
C17   C37   A    
C76   H81   S    
O20   Zn11  S    
C135  C144  A    
C45   C54   A    
C44   C68   A    
C131  H22   S    
C95   C104  A    
C47   C55   A    
C24   C49   A    
C48   C56   A    
C74   C117  S    
C94   C106  A    
C91   C170  S    
O39   Zn3   S    
C72   H69   S    
C84   H11   S    
C18   C27   A    
C150  H33   S    
C29   H1    S    
C19   C34   A    
C94   C103  A    
C13   C48   A    
C63   H3    S    
C26   C28   A    
C159  O11   A    
C30   C32   A    
C74   H75   S    
C53   C161  S    
C116  C169  A    
C3    C94   S    
O44   S1    D    
C75   H71   S    
O18   Zn9   S    
C96   C142  S    
C27   H23   S    
C81   H92   S    
C65   C66   S    
C132  H24   S    
O10   Zn5   S    
C164  O16   A    
O32   Zn2   S    
C9    O32   A    
C148  H31   S    
C119  C127  A    
C35   C45   A    
