data_mof_unit_7433.cif
_audit_creation_date              2013-03-05T15:55:42-0500
_audit_creation_method            fapswitch 2.2
_symmetry_space_group_name_H-M    P1
_symmetry_Int_Tables_number       1
_space_group_crystal_system       triclinic
_cell_length_a                    6.927988
_cell_length_b                    17.599445
_cell_length_c                    19.450712
_cell_angle_alpha                 108.563693
_cell_angle_beta                  89.516785
_cell_angle_gamma                 90.579192
_cell_volume                      2248.05838879

loop_
_atom_site_label
_atom_site_type_symbol
_atom_site_description
_atom_site_fract_x
_atom_site_fract_y
_atom_site_fract_z
_atom_type_partial_charge
O1    O     O_R   0.494330 0.415710 0.413720 -0.600439
O2    O     O_R   0.819360 0.430070 0.560210 -0.579157
O3    O     O_R   0.994320 0.584290 0.586280 -0.567947
C1    C     C_R   0.649984 0.414646 0.581557 1.019624
O4    O     O_R   0.823740 0.406290 0.412670 -0.607258
O5    O     O_R   0.998730 0.560340 0.437690 -0.603461
C2    C     C_R   0.654794 0.383105 0.384676 0.905323
O6    O     O_R   0.489920 0.439660 0.562310 -0.602925
O7    O     O_3   0.662330 0.550570 0.508380 -0.265225
V1    V     V_3+5 0.935370 0.490620 0.498440 1.188590
O8    O     O_R   0.328720 0.569930 0.439790 -0.589301
C3    C     C_R   0.160487 0.588039 0.420782 0.954461
O9    O     O_R   0.324340 0.593710 0.587330 -0.587139
C4    C     C_R   0.155270 0.615152 0.616527 0.987996
V2    V     V_3+5 0.435940 0.509380 0.501560 1.184644
O10   O     O_3   0.159110 0.449430 0.491620 -0.285270
C5    C     C_R   0.291408 0.739951 0.705639 -0.096463
H1    H     H_    0.414673 0.735943 0.670058 0.144005
C6    C     C_R   0.281226 0.804791 0.769871 -0.105653
H2    H     H_    0.397681 0.848494 0.782442 0.119746
C7    C     C_R   0.120929 0.814215 0.816473 -0.182806
C8    C     C_R   0.973124 0.756272 0.798301 -0.238191
H3    H     H_    0.851724 0.761322 0.834932 0.176515
C9    C     C_R   0.985290 0.688959 0.735500 0.386036
C10   C     C_R   0.143877 0.681586 0.686936 -0.297582
C11   C     C_R   0.005725 0.628172 0.322923 -0.251687
C12   C     C_R   0.152709 0.641597 0.374897 -0.191444
C13   C     C_R   0.289318 0.704535 0.381141 0.223588
C14   C     C_R   0.286003 0.747198 0.329963 0.128811
C15   C     C_R   0.135173 0.732657 0.278361 -0.006509
C16   C     C_R   0.994579 0.673597 0.275645 0.101299
C17   C     C_R   0.429340 0.804502 0.329083 -0.216991
C18   C     C_R   0.420003 0.847989 0.280559 -0.199158
C19   C     C_R   0.268356 0.835476 0.231062 0.229093
C20   C     C_R   0.124696 0.777394 0.229381 0.029849
C21   C     C_R   0.972438 0.763556 0.178305 -0.032124
C22   C     C_R   0.831409 0.703800 0.176445 0.337627
C23   C     C_R   0.845450 0.659501 0.224811 -0.281280
C24   C     C_R   0.260787 0.879496 0.182493 -0.164934
C25   C     C_R   0.111587 0.866622 0.131743 -0.179395
C26   C     C_R   0.969531 0.808307 0.129456 -0.145485
H4    H     H_    0.899786 0.581101 0.318655 0.153196
H5    H     H_    0.551990 0.815734 0.365057 0.150773
H6    H     H_    0.532993 0.891360 0.281496 0.126932
H7    H     H_    0.371088 0.924305 0.184454 0.119901
H8    H     H_    0.860759 0.797231 0.087925 0.186545
H9    H     H_    0.737081 0.614079 0.223169 0.179172
C27   C     C_R   0.478870 0.193068 0.874649 -0.127306
C28   C     C_R   0.624141 0.136749 0.871012 -0.174459
C29   C     C_R   0.774812 0.128356 0.820704 -0.165029
C30   C     C_R   0.777992 0.173823 0.773012 0.189904
C31   C     C_R   0.630815 0.230014 0.776412 0.018646
C32   C     C_R   0.482236 0.241167 0.828773 -0.046743
C33   C     C_R   0.928405 0.164270 0.722659 -0.241323
C34   C     C_R   0.935297 0.209048 0.674588 0.279882
C35   C     C_R   0.786794 0.264773 0.676661 0.129554
C36   C     C_R   0.634063 0.275338 0.728031 -0.045386
C37   C     C_R   0.485602 0.331387 0.731166 0.092233
C38   C     C_R   0.338444 0.344152 0.785047 0.051456
C39   C     C_R   0.339776 0.299810 0.834475 0.320120
C40   C     C_R   0.788308 0.310692 0.629090 -0.241833
C41   C     C_R   0.641052 0.365224 0.630750 -0.151558
C42   C     C_R   0.490289 0.374701 0.681111 -0.157929
H10   H     H_    0.363144 0.199149 0.913748 0.173440
H11   H     H_    0.887742 0.085159 0.817657 0.114198
H12   H     H_    0.041769 0.121669 0.721024 0.129564
H13   H     H_    0.903411 0.304115 0.589750 0.150537
H14   H     H_    0.379539 0.417746 0.681670 0.153718
C43   C     C_R   0.811720 0.276360 0.281477 -0.139034
H15   H     H_    0.952497 0.295598 0.304631 0.120351
C44   C     C_R   0.800582 0.212567 0.216498 -0.122430
H16   H     H_    0.933331 0.184500 0.191709 0.123137
C45   C     C_R   0.620941 0.185369 0.184119 -0.124211
C46   C     C_R   0.452738 0.223726 0.218574 -0.130191
H17   H     H_    0.311971 0.204482 0.195414 0.122925
C47   C     C_R   0.463877 0.287524 0.283559 -0.127688
H18   H     H_    0.331139 0.315595 0.308355 0.124268
C48   C     C_R   0.643526 0.314717 0.315937 -0.121240
O11   O     O_R   0.774940 0.060470 0.937800 -0.587480
O12   O     O_R   0.440880 0.093730 0.087350 -0.602126
O13   O     O_R   0.266130 0.939630 0.062280 -0.585263
C49   C     C_R   0.609765 0.116971 0.115384 0.924410
O14   O     O_R   0.445480 0.069960 0.939820 -0.604729
O15   O     O_R   0.270770 0.915690 0.913690 -0.592373
C50   C     C_R   0.614900 0.085778 0.918811 0.948888
O16   O     O_R   0.770300 0.084410 0.086380 -0.598372
O17   O     O_3   0.602600 0.949510 0.991670 -0.262431
V3    V     V_3+5 0.329470 0.009370 0.001550 1.176283
O18   O     O_R   0.940760 0.906160 0.912560 -0.602255
C51   C     C_R   0.109965 0.883187 0.884605 0.951193
O19   O     O_R   0.936150 0.929930 0.060100 -0.599998
C52   C     C_R   0.104117 0.914808 0.081635 0.952945
V4    V     V_3+5 0.828930 0.990450 0.998310 1.178220
O20   O     O_3   0.105670 0.050490 0.008320 -0.273037
N1    N     N_R   0.674707 0.685932 0.125581 0.239647
O21   O     O_R   0.568504 0.743161 0.117895 -0.420641
O22   O     O_R   0.617675 0.612051 0.096125 -0.339871
C53   C     C_3   0.101887 0.195919 0.621667 -1.038565
H19   H     H_    0.046986 0.173027 0.565281 0.249003
H20   H     H_    0.181114 0.253098 0.629505 0.256690
H21   H     H_    0.206445 0.151756 0.629085 0.253402
C54   C     C_3   0.185007 0.406967 0.791227 -0.755665
H22   H     H_    0.099589 0.390976 0.740518 0.231694
H23   H     H_    0.081996 0.413695 0.836504 0.283754
H24   H     H_    0.254626 0.466478 0.800514 0.251179
N2    N     N_R   0.203166 0.317464 0.893209 0.231202
O23   O     O_R   0.022987 0.296539 0.881086 -0.405423
O24   O     O_R   0.260959 0.351689 0.959455 -0.349493
N3    N     N_R   0.842474 0.626556 0.724706 0.233844
O25   O     O_R   0.896462 0.552605 0.711245 -0.413586
O26   O     O_R   0.663004 0.644738 0.741886 -0.413016
C55   C     C_3   0.428482 0.730436 0.444393 -0.988810
H25   H     H_    0.382849 0.710484 0.490631 0.245947
H26   H     H_    0.575334 0.707707 0.426051 0.259966
H27   H     H_    0.432947 0.796810 0.467437 0.231391

loop_
_geom_bond_atom_site_label_1
_geom_bond_atom_site_label_2
_geom_bond_distance
_ccdc_geom_bond_type
O17   V3    2.152356 S    
V4    O20   2.159783 S    
C45   C46   1.406220 A    
C6    H2    1.083205 S    
C1    O6    1.298265 A    
C55   H26   1.110681 S    
C43   C48   1.406199 A    
C13   C55   1.518221 S    
C13   C14   1.425430 A    
C11   C12   1.405393 A    
C14   C15   1.418998 A    
C46   C47   1.400216 A    
C15   C20   1.418710 A    
C21   C22   1.420409 A    
C6    C7    1.404794 A    
C22   C23   1.404408 A    
C47   C48   1.408532 A    
O11   V4    1.995991 S    
C14   C17   1.412087 A    
N3    O26   1.301145 A    
O5    C3    1.298644 A    
C15   C16   1.406187 A    
C27   H10   1.082694 S    
N2    O23   1.299924 A    
V2    O10   2.159698 S    
C1    C41   1.484491 S    
C35   C36   1.421420 A    
C22   N1    1.438551 S    
C54   H24   1.110406 S    
C19   C20   1.412540 A    
C43   C44   1.400102 A    
C42   H14   1.081251 S    
O13   C52   1.296177 A    
O8    V2    1.994289 S    
N1    O21   1.300330 A    
C26   H8    1.079563 S    
O1    V2    2.002226 S    
O7    V1    2.152464 S    
C40   C41   1.400862 A    
C24   H7    1.084660 S    
O14   V3    2.001585 S    
C38   C39   1.418240 A    
C7    C8    1.403177 A    
C38   C54   1.517758 S    
C21   C26   1.414426 A    
C54   H22   1.109944 S    
O15   C51   1.296175 A    
O4    V1    2.001515 S    
C55   H25   1.107309 S    
C32   C39   1.413317 A    
C29   C30   1.404719 A    
C7    C51   1.487076 S    
C8    H3    1.083515 S    
C27   C32   1.411946 A    
V3    O20   1.704005 S    
C46   H17   1.082729 S    
C3    C12   1.491790 S    
C30   C31   1.414077 A    
C28   C50   1.483938 S    
C9    C10   1.422509 A    
O12   C49   1.301041 A    
O19   C52   1.298418 A    
C44   C45   1.408509 A    
C37   C38   1.423005 A    
C49   O16   1.296176 A    
C25   C52   1.483166 S    
C19   C24   1.401085 A    
C20   C21   1.420355 A    
O2    C1    1.296207 A    
C41   C42   1.400199 A    
O16   V4    2.008028 S    
O19   V4    1.994205 S    
C40   H13   1.081653 S    
C34   C35   1.420021 A    
C5    H1    1.083233 S    
C47   H18   1.082749 S    
C54   H23   1.106176 S    
C23   H9    1.084309 S    
O3    C4    1.296094 A    
C2    C48   1.489166 S    
C27   C28   1.405233 A    
O14   C50   1.296105 A    
C28   C29   1.401008 A    
O6    V2    1.995401 S    
C53   H20   1.108932 S    
O9    V2    2.002154 S    
C8    C9    1.407685 A    
O2    V1    2.001677 S    
C45   C49   1.489166 S    
O11   C50   1.298375 A    
C39   N2    1.434954 S    
C31   C32   1.412256 A    
C11   H4    1.084804 S    
O4    C2    1.300989 A    
C37   C42   1.414765 A    
C33   C34   1.401884 A    
C25   C26   1.405388 A    
O1    C2    1.296220 A    
C18   H6    1.084001 S    
C9    N3    1.436634 S    
O15   V3    2.002075 S    
O5    V1    1.999519 S    
O8    C3    1.298655 A    
N1    O22   1.301604 A    
C33   H12   1.084561 S    
C53   H21   1.110942 S    
C16   C23   1.400888 A    
C30   C33   1.398171 A    
C5    C10   1.406863 A    
C17   C18   1.393812 A    
O7    V2    1.709492 S    
C44   H16   1.082751 S    
O12   V3    2.001525 S    
O3    V1    2.002099 S    
V1    O10   1.704066 S    
N3    O25   1.301370 A    
C36   C37   1.419792 A    
N2    O24   1.301183 A    
O17   V4    1.707575 S    
C34   C53   1.509594 S    
C5    C6    1.400168 A    
C17   H5    1.081324 S    
C18   C19   1.398760 A    
C4    C10   1.493097 S    
O18   V4    2.002203 S    
C43   H15   1.082730 S    
C29   H11   1.084497 S    
O13   V3    1.999469 S    
C31   C36   1.414075 A    
C24   C25   1.401527 A    
C11   C16   1.400470 A    
C53   H19   1.110155 S    
C12   C13   1.425650 A    
C35   C40   1.408949 A    
O18   C51   1.300824 A    
O9    C4    1.303133 A    
C55   H27   1.110212 S    
