data_mof_unit_20627.cif
_audit_creation_date              2012-12-11T17:41:37-0500
_audit_creation_method            fapswitch 2.2
_symmetry_space_group_name_H-M    P1
_symmetry_Int_Tables_number       1
_space_group_crystal_system       triclinic
_cell_length_a                    15.495704
_cell_length_b                    14.99524
_cell_length_c                    14.828398
_cell_angle_alpha                 109.612625
_cell_angle_beta                  121.305954
_cell_angle_gamma                 59.276831
_cell_volume                      2519.12456049

loop_
_atom_site_label
_atom_site_type_symbol
_atom_type_description
_atom_site_fract_x
_atom_site_fract_y
_atom_site_fract_z
_atom_type_partial_charge
C1    C     C_R   0.804229 0.937352 0.773639 -0.163292
C2    C     C_R   0.139681 0.366916 0.073355 -0.118700
C3    C     C_R   0.746156 0.877442 0.034832 -0.233443
C4    C     C_R   0.246530 0.320174 0.078769 -0.222043
C5    C     C_R   0.719287 0.983609 0.041864 -0.082839
C6    C     C_R   0.285334 0.219816 0.028683 -0.072078
C7    C     C_R   0.801709 0.014922 0.067830 0.639638
C8    C     C_R   0.215833 0.166650 0.971203 0.605658
C9    C     C_R   0.911052 0.939326 0.089808 -0.294358
C10   C     C_R   0.109577 0.213427 0.968706 -0.292351
C11   C     C_R   0.936825 0.833771 0.082025 -0.177755
C12   C     C_R   0.251050 0.002667 0.207756 -0.115868
C13   C     C_R   0.071522 0.313506 0.018775 -0.091666
C14   C     C_R   0.598881 0.089477 0.128516 -0.214409
C15   C     C_R   0.408495 0.156594 0.944009 -0.183271
C16   C     C_R   0.200805 0.275732 0.443734 -0.140268
C17   C     C_R   0.762599 0.710490 0.513415 -0.125902
C18   C     C_R   0.496048 0.123018 0.126859 0.027515
C19   C     C_R   0.509719 0.089238 0.937566 0.042078
C20   C     C_R   0.398937 0.169582 0.036393 0.115910
C21   C     C_R   0.608066 0.060993 0.033745 0.126330
C22   C     C_2   0.026042 0.353211 0.473344 0.460852
C23   C     C_R   0.139632 0.276168 0.486886 -0.043305
C24   C     C_2   0.866690 0.603406 0.397031 0.462997
C25   C     C_2   0.962658 0.415199 0.394413 -0.127187
C26   C     C_2   0.869753 0.513562 0.400741 -0.131344
C27   C     C_2   0.984591 0.954420 0.842524 -0.231210
C28   C     C_2   0.174221 0.866718 0.097399 -0.232799
C29   C     C_R   0.154214 0.837912 0.624583 -0.155027
C30   C     C_R   0.804187 0.246327 0.488790 -0.250448
C31   C     C_R   0.264767 0.766730 0.647382 0.525245
C32   C     C_R   0.706175 0.318746 0.500730 0.540927
C33   C     C_R   0.292774 0.700006 0.563200 -0.261665
C34   C     C_R   0.798393 0.701647 0.440440 -0.051023
C35   C     C_R   0.710666 0.355564 0.603657 -0.186132
C36   C     C_R   0.207519 0.708590 0.457119 0.512902
C37   C     C_R   0.814473 0.320760 0.693726 0.468477
C38   C     C_R   0.098418 0.781718 0.437785 -0.139744
C39   C     C_R   0.910542 0.251215 0.678936 -0.163253
C40   C     C_R   0.595186 0.229162 0.555002 -0.113952
C41   C     C_R   0.406987 0.786673 0.517032 -0.130091
C42   C     C_R   0.071819 0.845696 0.520818 -0.323953
C43   C     C_R   0.905614 0.213293 0.577547 -0.220272
C44   C     C_R   0.413149 0.513670 0.577651 -0.207322
C45   C     C_R   0.505245 0.324695 0.539711 0.093031
C46   C     C_R   0.603785 0.536975 0.643273 -0.219512
C47   C     C_R   0.510647 0.425600 0.580619 0.085117
C48   C     C_R   0.500949 0.622882 0.610358 0.040957
C49   C     C_R   0.608362 0.437899 0.615371 0.095604
C50   C     C_R   0.404816 0.612848 0.586333 0.038116
C51   C     C_2   0.047791 0.883159 0.912211 -0.103138
C52   C     C_2   0.146509 0.891444 0.004410 -0.076012
C53   C     C_R   0.410465 0.051498 0.734935 -0.107653
C54   C     C_R   0.589881 0.020245 0.285412 -0.129292
C55   C     C_R   0.409898 0.306422 0.473334 -0.114034
C56   C     C_R   0.498027 0.706002 0.576034 0.084585
C57   C     C_R   0.590577 0.714397 0.592889 -0.117679
C58   C     C_R   0.595472 0.978428 0.807047 -0.139082
C59   C     C_R   0.406727 0.093994 0.213075 -0.091957
C60   C     C_R   0.200112 0.184649 0.534812 -0.128290
C61   C     C_R   0.762490 0.802206 0.420699 -0.104812
C62   C     C_R   0.803999 0.029221 0.683415 -0.154665
C63   C     C_R   0.251203 0.909198 0.298098 -0.139337
C64   C     C_R   0.867623 0.975921 0.772190 0.152398
C65   C     C_R   0.225484 0.922499 0.197170 0.142557
C66   C     C_3   0.777107 0.142676 0.995891 -0.242421
C67   C     C_R   0.505805 0.042678 0.831201 0.066364
C68   C     C_3   0.200741 0.056863 0.819063 -0.246489
C69   C     C_R   0.496652 0.080835 0.204262 0.092173
C70   C     C_R   0.854267 0.802860 0.053641 -0.087878
H1    H     H_    0.833404 0.879783 0.823014 0.103933
H2    H     H_    0.299315 0.361611 0.122558 0.162838
H3    H     H_    0.975948 0.963127 0.114783 0.154036
H4    H     H_    0.057221 0.171723 0.929435 0.146202
H5    H     H_    0.674630 0.065204 0.200336 0.123889
H6    H     H_    0.333535 0.189325 0.874263 0.114092
H7    H     H_    0.816417 0.513292 0.427222 0.139323
H8    H     H_    0.989937 0.403766 0.335610 0.131584
H9    H     H_    0.986773 0.901218 0.504767 0.160145
H10   H     H_    0.980919 0.158763 0.567789 0.147434
H11   H     H_    0.173506 0.328364 0.390042 0.106307
H12   H     H_    0.241795 0.034249 0.146189 0.107774
H13   H     H_    0.778010 0.648735 0.549158 0.114130
H14   H     H_    0.131493 0.886710 0.688273 0.145449
H15   H     H_    0.802299 0.216636 0.410675 0.141124
H16   H     H_    0.033464 0.788600 0.357438 0.153617
H17   H     H_    0.989738 0.226683 0.747021 0.140252
H18   H     H_    0.339652 0.505483 0.558252 0.141565
H19   H     H_    0.680395 0.542924 0.670965 0.137767
H20   H     H_    0.681212 0.211475 0.606612 0.094976
H21   H     H_    0.321361 0.814127 0.499639 0.101096
H22   H     H_    0.324817 0.094657 0.722275 0.084974
H23   H     H_    0.143105 0.817691 0.099799 0.136292
H24   H     H_    0.675460 0.004260 0.312352 0.086159
H25   H     H_    0.324477 0.363056 0.443313 0.109690
H26   H     H_    0.675914 0.675563 0.647826 0.092027
H27   H     H_    0.682073 0.955756 0.857543 0.110513
H28   H     H_    0.322025 0.149018 0.177534 0.103691
H29   H     H_    0.169981 0.152793 0.562355 0.084313
H30   H     H_    0.775652 0.824909 0.368506 0.094842
H31   H     H_    0.834593 0.054550 0.649912 0.098626
H32   H     H_    0.242232 0.852512 0.318365 0.122583
H33   H     H_    0.179020 0.938732 0.000846 0.155400
H34   H     H_    0.015967 0.005460 0.843932 0.131869
H35   H     H_    0.017366 0.831998 0.912053 0.135890
H36   H     H_    0.715428 0.123558 0.918044 0.137848
H37   H     H_    0.861326 0.101780 0.997626 0.144353
H38   H     H_    0.752539 0.227580 0.003921 0.183429
H39   H     H_    0.185875 0.121203 0.783879 0.097225
H40   H     H_    0.121145 0.053922 0.794254 0.124427
H41   H     H_    0.252256 0.983224 0.786753 0.211499
H42   H     H_    0.932691 0.671552 0.376278 0.317313
H43   H     H_    0.048630 0.324074 0.604166 0.313245
H44   H     H_    0.416461 0.714390 0.759290 0.325224
H45   H     H_    0.021002 0.775594 0.099539 0.145627
H46   H     H_    0.616554 0.320906 0.348122 0.314962
H47   H     H_    0.307577 0.610308 0.390758 0.333794
H48   H     H_    0.752173 0.390668 0.797299 0.315416
H49   H     H_    0.989558 0.349255 0.016326 0.167214
H50   H     H_    0.874609 0.721220 0.048439 0.135244
H51   H     H_    0.110099 0.444196 0.112462 0.147210
H52   H     H_    0.683448 0.852894 0.016157 0.159647
N1    N     N_R   0.705410 0.966550 0.689210 -0.044269
N2    N     N_R   0.556610 0.796750 0.548620 -0.041978
N3    N     N_R   0.556610 0.951620 0.703500 -0.042344
N4    N     N_R   0.443390 0.048380 0.296500 -0.048799
N5    N     N_R   0.294590 0.131500 0.522480 -0.034989
N6    N     N_R   0.705410 0.868500 0.477520 -0.036462
N7    N     N_R   0.705410 0.023370 0.632390 -0.043970
N8    N     N_R   0.294590 0.976630 0.367610 -0.045099
N9    N     N_R   0.294590 0.033450 0.310790 -0.047768
N10   N     N_R   0.294590 0.188320 0.465660 -0.035810
N11   N     N_R   0.705410 0.811680 0.534340 -0.034471
N12   N     N_R   0.556610 0.157790 0.497330 -0.044427
N13   N     N_R   0.443390 0.842210 0.502670 -0.042816
N14   N     N_R   0.443390 0.997080 0.657540 -0.043892
N15   N     N_R   0.556610 0.002920 0.342460 -0.042446
N16   N     N_R   0.443390 0.203250 0.451380 -0.045691
Ni1   Ni    Ni4+2 0.629830 0.882720 0.617850 0.216945
Ni2   Ni    Ni4+2 0.370170 0.117280 0.382150 0.218759
Ni3   Ni    Ni4+2 0.629830 0.013030 0.487540 0.212609
Ni4   Ni    Ni4+2 0.370170 0.986970 0.512460 0.213814
O1    O     O_3   0.776986 0.119707 0.080580 -0.623226
O2    O     O_3   0.258805 0.064279 0.930432 -0.613764
O3    O     O_3   0.935973 0.600880 0.362939 -0.755819
O4    O     O_3   0.988100 0.369513 0.546446 -0.753504
O5    O     O_3   0.340652 0.763151 0.752791 -0.752410
O6    O     O_3   0.605533 0.355218 0.413595 -0.752906
O7    O     O_3   0.226708 0.647993 0.370221 -0.765934
O8    O     O_3   0.826192 0.352334 0.796842 -0.777624

loop_
_geom_bond_atom_site_label_1
_geom_bond_atom_site_label_2
_ccdc_geom_bond_type
C63   C65   A    
N4    N15   A    
C12   N9    A    
C29   C42   A    
C10   H4    S    
C14   C18   A    
N2    Ni1   S    
C39   H17   S    
C66   H37   S    
C60   H29   S    
C41   N13   A    
C7    O1    S    
C11   C70   A    
C47   C49   A    
C46   H19   S    
N3    Ni1   S    
C59   N4    A    
C15   C19   A    
C53   N14   A    
C46   C49   A    
N4    Ni2   S    
C1    H1    S    
C55   N16   A    
C38   H16   S    
C14   C21   A    
C19   C21   A    
C24   C26   D    
H44   O5    S    
C38   C42   A    
C24   O3    S    
C8    C10   A    
C52   H33   S    
C36   O7    S    
C54   N15   A    
N7    Ni3   S    
N1    Ni1   S    
C27   H34   S    
C33   C36   A    
C56   C57   A    
C48   C56   S    
C63   N8    A    
H48   O8    S    
C2    C13   A    
N5    N10   A    
N14   Ni4   S    
N9    Ni2   S    
N13   Ni4   S    
C22   O4    S    
C70   H50   S    
C57   H26   S    
C35   C49   S    
C62   C64   A    
C31   C33   A    
C19   C67   S    
C11   H45   S    
N6    Ni3   S    
C37   O8    S    
C44   C47   A    
C62   H31   S    
C31   O5    S    
C18   C69   S    
C48   C50   A    
C15   H6    S    
C42   H9    S    
N1    N7    A    
C62   N7    A    
C40   C45   A    
C58   H27   S    
C9    H3    S    
C66   H36   S    
C63   H32   S    
C53   C67   A    
C13   H49   S    
C27   C51   D    
C45   C47   S    
C23   C60   A    
C46   C48   A    
C26   H7    S    
C51   C52   S    
C32   C35   A    
C3    C70   A    
C29   H14   S    
C55   H25   S    
C5    C7    A    
C39   C43   A    
C66   O1    S    
C25   C26   S    
C40   N12   A    
C22   C25   D    
C34   C61   A    
C24   C34   S    
C25   H8    S    
C15   C20   A    
C17   H13   S    
N5    Ni4   S    
H43   O4    S    
C2    C4    A    
C1    N1    A    
C41   C56   A    
C51   H35   S    
C53   H22   S    
H42   O3    S    
C12   H12   S    
C8    O2    S    
C68   H40   S    
C30   H15   S    
C9    C11   A    
N16   Ni2   S    
C59   C69   A    
N3    N14   A    
C4    C6    A    
C41   H21   S    
N11   Ni1   S    
C16   C23   A    
C17   N11   A    
C30   C43   A    
C61   H30   S    
C17   C34   A    
C1    C64   A    
C4    H2    S    
H46   O6    S    
C2    H51   S    
C44   C50   A    
C7    C9    A    
N15   Ni3   S    
N2    N13   A    
C35   C37   A    
N8    Ni4   S    
C60   N5    A    
C66   H38   S    
C3    C5    A    
C10   C13   A    
N12   N16   A    
C68   O2    S    
C6    C8    A    
C3    H52   S    
C32   O6    S    
N10   Ni2   S    
C6    C20   S    
C12   C65   A    
C14   H5    S    
C36   C38   A    
C28   C65   S    
C33   C50   S    
C29   C31   A    
N6    N11   A    
N12   Ni3   S    
C30   C32   A    
C28   C52   D    
C54   C69   A    
C16   H11   S    
C43   H10   S    
N8    N9    A    
C61   N6    A    
C18   C20   A    
C68   H39   S    
C16   N10   A    
C54   H24   S    
C27   C64   S    
C58   C67   A    
C5    C21   S    
C45   C55   A    
C58   N3    A    
C37   C39   A    
C59   H28   S    
C22   C23   S    
C28   H23   S    
H47   O7    S    
C40   H20   S    
C44   H18   S    
C68   H41   S    
C57   N2    A    
