data_mof_unit_44446.cif
_audit_creation_date              2012-12-10T17:44:31-0500
_audit_creation_method            fapswitch 2.2
_symmetry_space_group_name_H-M    P1
_symmetry_Int_Tables_number       1
_space_group_crystal_system       triclinic
_cell_length_a                    9.940432
_cell_length_b                    10.633713
_cell_length_c                    15.575319
_cell_angle_alpha                 93.368018
_cell_angle_beta                  67.825293
_cell_angle_gamma                 93.63841
_cell_volume                      1520.44706231

loop_
_atom_site_label
_atom_site_type_symbol
_atom_type_description
_atom_site_fract_x
_atom_site_fract_y
_atom_site_fract_z
_atom_type_partial_charge
C1    C     C_R   0.502894 0.739530 0.502617 0.853420
C2    C     C_R   0.404118 0.542450 0.916741 0.099332
C3    C     C_R   0.260088 0.499077 0.968815 0.153065
C4    C     C_R   0.503994 0.571882 0.960989 0.070707
C5    C     C_R   0.465320 0.539337 0.054420 0.062260
C6    C     C_R   0.319722 0.497077 0.104976 -0.197434
C7    C     C_R   0.219236 0.478489 0.062644 -0.202700
C8    C     C_R   0.641204 0.632795 0.914645 -0.222741
C9    C     C_R   0.743034 0.650692 0.955657 -0.220972
C10   C     C_R   0.711789 0.608223 0.044133 0.145991
C11   C     C_R   0.573707 0.551139 0.093788 0.090875
C12   C     C_R   0.408809 0.502228 0.675618 0.865437
C13   C     C_R   0.816734 0.624656 0.084061 -0.290548
C14   C     C_R   0.787169 0.586390 0.174113 -0.049812
C15   C     C_R   0.548836 0.506301 0.180991 -0.210613
C16   C     C_R   0.620448 0.858516 0.327220 -0.121256
C17   C     C_R   0.646259 0.913121 0.243221 -0.138746
C18   C     C_R   0.590248 0.029419 0.242927 -0.198534
C19   C     C_R   0.514602 0.094507 0.327022 -0.038927
C20   C     C_R   0.517594 0.051368 0.411118 -0.046836
C21   C     C_R   0.553071 0.926440 0.411713 0.089611
C22   C     C_R   0.516839 0.871759 0.497491 -0.126795
C23   C     C_R   0.498729 0.259674 0.494281 0.924348
C24   C     C_R   0.475271 0.942221 0.580335 -0.323878
C25   C     C_R   0.465221 0.070688 0.579106 0.482375
C26   C     C_R   0.486532 0.125326 0.494841 -0.199324
C27   C     C_R   0.802763 0.671339 0.617753 -0.126586
C28   C     C_R   0.843722 0.754049 0.677030 -0.209275
C29   C     C_R   0.979096 0.747228 0.682216 -0.195186
C30   C     C_R   0.076418 0.660623 0.625670 -0.116881
C31   C     C_R   0.041063 0.579153 0.561829 0.144024
C32   C     C_R   0.898155 0.581967 0.559788 0.074235
C33   C     C_R   0.958005 0.423651 0.440460 0.539957
C34   C     C_R   0.592083 0.503886 0.324069 0.853160
C35   C     C_R   0.102985 0.428359 0.438484 -0.214022
C36   C     C_R   0.351186 0.510141 0.776740 -0.052325
C37   C     C_R   0.649554 0.526486 0.223732 -0.136241
C38   C     C_R   0.160075 0.472512 0.925486 -0.218887
C39   C     C_R   0.205231 0.479272 0.829555 -0.213070
C40   C     C_R   0.447596 0.544952 0.820521 -0.267694
H1    H     H_    0.110456 0.442514 0.102554 0.184729
H2    H     H_    0.921490 0.670203 0.045445 0.174753
H3    H     H_    0.452028 0.897702 0.645631 0.145848
H4    H     H_    0.656244 0.764592 0.326069 0.130978
H5    H     H_    0.700015 0.861349 0.178514 0.174390
H6    H     H_    0.594295 0.062299 0.177446 0.190048
H7    H     H_    0.696382 0.681114 0.618461 0.191872
H8    H     H_    0.768997 0.822853 0.720122 0.149063
H9    H     H_    0.447909 0.457855 0.218977 0.184993
H10   H     H_    0.009535 0.810201 0.729726 0.139937
H11   H     H_    0.178798 0.661445 0.632937 0.190691
H12   H     H_    0.184927 0.376193 0.385213 0.183049
H13   H     H_    0.847125 0.697486 0.917578 0.148966
H14   H     H_    0.048765 0.441902 0.965262 0.151539
H15   H     H_    0.128538 0.453809 0.796508 0.162246
H16   H     H_    0.559365 0.566025 0.777522 0.158847
H17   H     H_    0.278150 0.479826 0.178051 0.163267
H18   H     H_    0.671029 0.671592 0.847464 0.152042
N1    N     N_R   0.856800 0.501200 0.500850 -0.151196
N2    N     N_R   0.142390 0.501280 0.500880 -0.135397
O1    O     O_R   0.385310 0.683220 0.500000 -0.618592
O2    O     O_R   0.614640 0.683250 0.500010 -0.641825
O3    O     O_R   0.319840 0.499980 0.632240 -0.650559
O4    O     O_R   0.549160 0.500000 0.632250 -0.625949
O5    O     O_R   0.385360 0.316750 0.499990 -0.581794
O6    O     O_R   0.614690 0.316780 0.500000 -0.579540
O7    O     O_R   0.450840 0.500000 0.367750 -0.614369
O8    O     O_R   0.680160 0.500020 0.367760 -0.539312
Zn1   Zn    Zn3+2 0.346880 0.499980 0.499990 0.954170
Zn2   Zn    Zn3+2 0.653120 0.500020 0.500010 1.003947
C41   C     C_2   0.397131 0.172526 0.327098 0.899160
O9    O     O_2   0.282847 0.173738 0.394428 -0.653919
O10   O     O_R   0.408061 0.228539 0.245660 -0.840765
H19   H     H_    0.313022 0.263010 0.249771 0.322010
O11   O     O_3   0.443472 0.143533 0.659366 -0.609870
C42   C     C_3   0.293070 0.144748 0.713781 0.085781
H20   H     H_    0.230871 0.056520 0.705778 0.127411
H21   H     H_    0.246129 0.225753 0.694568 0.165261
C43   C     C_3   0.272702 0.160822 0.815580 -0.801897
H22   H     H_    0.338388 0.244126 0.826416 0.278656
H23   H     H_    0.156261 0.173899 0.858764 0.208713
H24   H     H_    0.308354 0.075731 0.837760 0.248702
O12   O     O_3   0.922889 0.353617 0.373640 -0.551089
C44   C     C_3   0.932441 0.223754 0.383532 0.057509
H25   H     H_    0.852917 0.193026 0.451947 0.167345
H26   H     H_    0.043155 0.199980 0.376521 0.172571
C45   C     C_3   0.898207 0.150182 0.307101 -0.743818
H27   H     H_    0.985382 0.169261 0.238680 0.248665
H28   H     H_    0.890220 0.047523 0.318921 0.227174
H29   H     H_    0.793793 0.179704 0.306332 0.260827
C46   C     C_2   0.899571 0.619771 0.213594 0.884197
O13   O     O_2   0.938439 0.541381 0.252516 -0.583661
O14   O     O_R   0.967777 0.740139 0.201006 -0.821873
H30   H     H_    0.044644 0.751527 0.229263 0.346551

loop_
_geom_bond_atom_site_label_1
_geom_bond_atom_site_label_2
_ccdc_geom_bond_type
C30   H11   S    
C16   C21   A    
C34   C37   S    
O10   H19   S    
C19   C41   S    
C19   C20   A    
C44   C45   S    
C4    C8    A    
C1    O2    A    
O6    Zn2   S    
O14   H30   S    
O12   C44   S    
C42   H21   S    
C23   O6    A    
C28   C29   A    
C44   H26   S    
C5    C11   A    
C3    C7    A    
C5    C6    A    
C12   O4    A    
C27   H7    S    
O2    Zn2   S    
C18   C19   A    
C23   C26   S    
C15   C37   A    
C8    H18   S    
C11   C15   A    
C44   H25   S    
C39   H15   S    
O3    Zn1   S    
C3    C38   A    
C8    C9    A    
C40   H16   S    
C42   C43   S    
O4    Zn2   S    
C12   C36   S    
C9    C10   A    
C16   H4    S    
C7    H1    S    
C1    C22   S    
C33   N1    A    
C21   C22   A    
C6    H17   S    
C18   H6    S    
C13   H2    S    
C29   H10   S    
C38   C39   A    
C36   C40   A    
C42   H20   S    
C34   O8    A    
C46   O13   D    
C43   H23   S    
C12   O3    A    
C16   C17   A    
C25   C26   A    
C35   N2    A    
O7    Zn1   S    
C31   N2    A    
C2    C4    A    
O11   C42   S    
C29   C30   A    
C46   O14   S    
C31   C32   A    
C38   H14   S    
C17   C18   A    
C24   C25   A    
C33   O12   S    
C45   H28   S    
C22   C24   A    
C9    H13   S    
C35   H12   S    
C41   O10   S    
O1    Zn1   S    
C28   H8    S    
C27   C32   A    
C36   C39   A    
C17   H5    S    
C4    C5    A    
C10   C13   A    
C1    O1    A    
C34   O7    A    
C43   H24   S    
C6    C7    A    
C23   O5    A    
C2    C3    A    
C41   O9    D    
C14   C37   A    
C30   C31   A    
C20   C26   A    
N2    Zn1   S    
O5    Zn1   S    
C33   C35   A    
C15   H9    S    
C14   C46   S    
C10   C11   A    
N1    Zn2   S    
C43   H22   S    
C2    C40   A    
C20   C21   A    
C45   H27   S    
O8    Zn2   S    
C45   H29   S    
C27   C28   A    
C24   H3    S    
C32   N1    A    
C25   O11   S    
C13   C14   A    
