data_mof_unit_51994.cif
_audit_creation_date              2012-12-10T18:53:05-0500
_audit_creation_method            fapswitch 2.2
_symmetry_space_group_name_H-M    P1
_symmetry_Int_Tables_number       1
_space_group_crystal_system       triclinic
_cell_length_a                    9.837597
_cell_length_b                    10.671274
_cell_length_c                    16.627279
_cell_angle_alpha                 90.014688
_cell_angle_beta                  84.79321
_cell_angle_gamma                 89.801332
_cell_volume                      1738.31325847

loop_
_atom_site_label
_atom_site_type_symbol
_atom_type_description
_atom_site_fract_x
_atom_site_fract_y
_atom_site_fract_z
_atom_type_partial_charge
C1    C     C_R   0.499581 0.739892 0.501171 0.902292
C2    C     C_R   0.500401 0.260149 0.498653 0.903574
C3    C     C_R   0.600918 0.933369 0.452786 -0.294342
C4    C     C_R   0.398672 0.066780 0.546575 -0.293433
C5    C     C_R   0.602170 0.062363 0.450309 0.105329
C6    C     C_R   0.397214 0.937824 0.548924 0.107803
C7    C     C_R   0.500817 0.127853 0.497996 -0.036090
C8    C     C_R   0.498940 0.872266 0.501521 -0.036778
C9    C     C_R   0.935571 0.417613 0.452881 -0.080259
C10   C     C_R   0.064384 0.582248 0.547240 -0.081322
C11   C     C_R   0.079421 0.417473 0.453045 -0.073392
C12   C     C_R   0.920468 0.582186 0.547247 -0.072401
C13   C     C_R   0.480637 0.499278 0.653725 0.892527
C14   C     C_R   0.519523 0.492823 0.346716 0.885611
C15   C     C_R   0.468123 0.477846 0.740544 -0.060593
C16   C     C_R   0.534886 0.450955 0.263109 -0.054687
C17   C     C_R   0.572066 0.515296 0.787788 0.088007
C18   C     C_R   0.449902 0.355974 0.237092 0.095062
C19   C     C_R   0.569072 0.474321 0.867234 -0.243632
C20   C     C_R   0.472631 0.310314 0.158675 -0.261639
C21   C     C_R   0.464237 0.395465 0.900025 0.156468
C22   C     C_R   0.578264 0.358799 0.105843 0.156703
C23   C     C_R   0.355670 0.364143 0.854555 0.131584
C24   C     C_R   0.669593 0.447030 0.133294 0.143347
C25   C     C_R   0.358546 0.405768 0.774703 -0.290415
C26   C     C_R   0.646841 0.492610 0.212243 -0.291564
C27   C     C_2   0.461998 0.356809 0.984541 -0.211830
C28   C     C_2   0.577774 0.336378 0.019197 -0.227265
H1    H     H_    0.715182 0.561931 0.233822 0.149935
H2    H     H_    0.278425 0.376937 0.738119 0.159393
H3    H     H_    0.674835 0.332053 0.982498 0.162291
H4    H     H_    0.364637 0.362565 0.020929 0.173049
H5    H     H_    0.404494 0.240039 0.137978 0.143687
H6    H     H_    0.648444 0.505923 0.903475 0.156711
H7    H     H_    0.677715 0.880991 0.415639 0.155654
H8    H     H_    0.321858 0.119155 0.583720 0.154254
H9    H     H_    0.887076 0.351849 0.415156 0.138153
H10   H     H_    0.112862 0.647877 0.585058 0.138517
H11   H     H_    0.139806 0.351203 0.415737 0.141294
H12   H     H_    0.859857 0.647830 0.585057 0.138758
N1    N     N_R   0.142790 0.500030 0.500020 -0.077044
N2    N     N_R   0.857210 0.499970 0.499980 -0.077473
O1    O     O_R   0.385380 0.683250 0.500010 -0.599882
O2    O     O_R   0.614620 0.316750 0.499990 -0.601815
O3    O     O_R   0.614710 0.683220 0.500000 -0.630838
O4    O     O_R   0.385290 0.316780 0.500000 -0.629729
O5    O     O_R   0.371780 0.500040 0.615800 -0.627441
O6    O     O_R   0.628220 0.499960 0.384200 -0.622138
O7    O     O_R   0.601110 0.500010 0.615800 -0.592792
O8    O     O_R   0.398890 0.499990 0.384200 -0.592176
Zn1   Zn    Zn3+2 0.346870 0.500020 0.500000 0.954636
Zn2   Zn    Zn3+2 0.653130 0.499980 0.500000 0.956488
N3    N     N_3   0.680327 0.595293 0.755413 -0.453672
H13   H     H_    0.679675 0.675873 0.791238 0.177360
H14   H     H_    0.772937 0.548639 0.760068 0.185543
N4    N     N_3   0.342640 0.303461 0.290621 -0.446763
H15   H     H_    0.361232 0.207391 0.295801 0.176966
H16   H     H_    0.250753 0.314726 0.264344 0.172493
N5    N     N_3   0.245155 0.287903 0.889118 -0.478186
H17   H     H_    0.284214 0.198098 0.897575 0.180990
H18   H     H_    0.170184 0.278579 0.848798 0.177479
N6    N     N_3   0.779581 0.495302 0.079393 -0.475684
H19   H     H_    0.850013 0.422549 0.067572 0.172164
H20   H     H_    0.830920 0.566423 0.107421 0.181513
N7    N     N_3   0.703008 0.126485 0.398013 -0.455550
H21   H     H_    0.799428 0.099836 0.413847 0.180365
H22   H     H_    0.694323 0.096446 0.338839 0.176269
N8    N     N_3   0.295663 0.873839 0.600796 -0.456758
H23   H     H_    0.303148 0.904315 0.660001 0.174720
H24   H     H_    0.199596 0.900250 0.584268 0.180596

loop_
_geom_bond_atom_site_label_1
_geom_bond_atom_site_label_2
_ccdc_geom_bond_type
C12   H12   S    
C23   N5    S    
C4    H8    S    
N6    H19   S    
C14   C16   S    
C18   N4    S    
C1    C8    S    
C5    C7    A    
N3    H14   S    
N6    H20   S    
C2    C7    S    
C3    H7    S    
C10   H10   S    
O7    Zn2   S    
O1    Zn1   S    
O2    Zn2   S    
C27   C28   D    
C9    H9    S    
O8    Zn1   S    
C21   C27   S    
C3    C5    A    
N5    H17   S    
C16   C18   A    
C22   C28   S    
N3    H13   S    
C2    O4    A    
C10   N1    A    
C11   H11   S    
C9    C11   A    
C1    O3    A    
C9    N2    A    
C14   O8    A    
C10   C12   A    
C4    C7    A    
C13   O7    A    
C20   H5    S    
C6    N8    S    
C17   C19   A    
N1    Zn1   S    
N4    H16   S    
C11   N1    A    
C18   C20   A    
C13   C15   S    
C21   C23   A    
C16   C26   A    
C24   N6    S    
C22   C24   A    
N5    H18   S    
C4    C6    A    
C15   C25   A    
C20   C22   A    
C12   N2    A    
C17   N3    S    
O6    Zn2   S    
C23   C25   A    
N4    H15   S    
C3    C8    A    
C26   H1    S    
C5    N7    S    
N7    H21   S    
N2    Zn2   S    
C25   H2    S    
C15   C17   A    
N8    H24   S    
C14   O6    A    
C6    C8    A    
O3    Zn2   S    
C19   C21   A    
C27   H4    S    
C13   O5    A    
O4    Zn1   S    
C1    O1    A    
C28   H3    S    
O5    Zn1   S    
C24   C26   A    
C2    O2    A    
N8    H23   S    
N7    H22   S    
C19   H6    S    
