data_mof_unit_15423.cif
_audit_creation_date              2012-12-11T14:41:01-0500
_audit_creation_method            fapswitch 2.2
_symmetry_space_group_name_H-M    P1
_symmetry_Int_Tables_number       1
_space_group_crystal_system       triclinic
_cell_length_a                    6.943019
_cell_length_b                    17.784612
_cell_length_c                    18.945952
_cell_angle_alpha                 90.000048
_cell_angle_beta                  89.999911
_cell_angle_gamma                 89.999884
_cell_volume                      2339.42529391

loop_
_atom_site_label
_atom_site_type_symbol
_atom_type_description
_atom_site_fract_x
_atom_site_fract_y
_atom_site_fract_z
_atom_type_partial_charge
O1    O     O_R   0.377350 0.828520 0.186660 -0.538628
O2    O     O_R   0.622650 0.171480 0.813340 -0.538628
O3    O     O_R   0.122650 0.171480 0.686660 -0.538628
O4    O     O_R   0.877350 0.828520 0.313340 -0.538628
O5    O     O_R   0.877350 0.671480 0.313340 -0.538628
O6    O     O_R   0.122650 0.328520 0.686660 -0.538628
O7    O     O_R   0.622650 0.328520 0.813340 -0.538628
O8    O     O_R   0.377350 0.671480 0.186660 -0.538628
O9    O     O_R   0.707090 0.671930 0.178410 -0.540732
O10   O     O_R   0.292910 0.328070 0.821590 -0.540732
O11   O     O_R   0.792910 0.328070 0.678410 -0.540732
O12   O     O_R   0.207090 0.671930 0.321590 -0.540732
O13   O     O_R   0.207090 0.828070 0.321590 -0.540731
O14   O     O_R   0.792910 0.171930 0.678410 -0.540731
O15   O     O_R   0.292910 0.171930 0.821590 -0.540732
O16   O     O_R   0.707090 0.828070 0.178410 -0.540731
C1    C     C_R   0.539669 0.645638 0.161524 0.711070
C2    C     C_R   0.460330 0.354362 0.838476 0.711070
C3    C     C_R   0.960331 0.354362 0.661524 0.711070
C4    C     C_R   0.039669 0.645638 0.338476 0.711070
C5    C     C_R   0.039669 0.854363 0.338475 0.711069
C6    C     C_R   0.960331 0.145637 0.661524 0.711069
C7    C     C_R   0.460331 0.145638 0.838476 0.711069
C8    C     C_R   0.539669 0.854362 0.161524 0.711069
O17   O     O_3   0.543850 0.750000 0.294270 -0.368337
O18   O     O_3   0.456150 0.250000 0.705730 -0.368337
O19   O     O_3   0.956150 0.250000 0.794270 -0.368337
O20   O     O_3   0.043850 0.750000 0.205730 -0.368337
V1    V     V_3+5 0.818700 0.750000 0.241790 1.402675
V2    V     V_3+5 0.181300 0.250000 0.758210 1.402675
V3    V     V_3+5 0.681300 0.250000 0.741790 1.402675
V4    V     V_3+5 0.318700 0.750000 0.258210 1.402675
C9    C     C_R   0.958532 0.416229 0.608631 -0.113117
C10   C     C_R   0.041468 0.583771 0.391368 -0.113117
C11   C     C_R   0.541468 0.583771 0.108631 -0.113116
C12   C     C_R   0.458532 0.416229 0.891368 -0.113117
C13   C     C_R   0.458534 0.083770 0.891368 -0.113115
C14   C     C_R   0.541466 0.916230 0.108632 -0.113115
C15   C     C_R   0.041466 0.916230 0.391367 -0.113116
C16   C     C_R   0.958534 0.083770 0.608633 -0.113116
C17   C     C_R   0.216453 0.478277 0.444614 0.159283
C18   C     C_R   0.783547 0.521723 0.555386 0.159283
C19   C     C_R   0.283548 0.521724 0.944614 0.159282
C20   C     C_R   0.716452 0.478276 0.055386 0.159282
C21   C     C_R   0.716448 0.021725 0.055388 0.159286
C22   C     C_R   0.283552 0.978275 0.944612 0.159286
C23   C     C_R   0.783551 0.978275 0.555388 0.159284
C24   C     C_R   0.216449 0.021725 0.444612 0.159284
C25   C     C_R   0.196377 0.533045 0.391758 -0.165827
C26   C     C_R   0.803623 0.466955 0.608242 -0.165827
C27   C     C_R   0.303621 0.466954 0.891759 -0.165826
C28   C     C_R   0.696379 0.533045 0.108241 -0.165826
C29   C     C_R   0.696370 0.966958 0.108244 -0.165827
C30   C     C_R   0.303629 0.033042 0.891755 -0.165826
C31   C     C_R   0.803628 0.033042 0.608244 -0.165828
C32   C     C_R   0.196371 0.966958 0.391756 -0.165828
C33   C     C_R   0.902842 0.578943 0.444810 -0.237752
C34   C     C_R   0.097157 0.421057 0.555190 -0.237752
C35   C     C_R   0.597159 0.421057 0.944809 -0.237753
C36   C     C_R   0.402840 0.578943 0.055191 -0.237753
C37   C     C_R   0.402846 0.921054 0.055188 -0.237749
C38   C     C_R   0.597154 0.078946 0.944812 -0.237749
C39   C     C_R   0.097156 0.078945 0.555189 -0.237749
C40   C     C_R   0.902844 0.921055 0.444811 -0.237749
C41   C     C_R   0.920464 0.525409 0.499947 0.106924
C42   C     C_R   0.079535 0.474591 0.500053 0.106924
C43   C     C_R   0.579536 0.474591 0.999947 0.106923
C44   C     C_R   0.420464 0.525408 0.000053 0.106923
C45   C     C_R   0.420467 0.974590 0.000052 0.106923
C46   C     C_R   0.579533 0.025410 0.999948 0.106923
C47   C     C_R   0.079534 0.025410 0.500052 0.106922
C48   C     C_R   0.920466 0.974590 0.499948 0.106922
H1    H     H_    0.214350 0.380973 0.555852 0.141679
H2    H     H_    0.785650 0.619027 0.444147 0.141679
H3    H     H_    0.285644 0.619025 0.055855 0.141679
H4    H     H_    0.714356 0.380975 0.944145 0.141679
H5    H     H_    0.714341 0.119033 0.944152 0.141675
H6    H     H_    0.285659 0.880967 0.055848 0.141675
H7    H     H_    0.785656 0.880969 0.444150 0.141676
H8    H     H_    0.214344 0.119031 0.555850 0.141676
H9    H     H_    0.696341 0.463497 0.649694 0.125940
H10   H     H_    0.303659 0.536503 0.350306 0.125940
H11   H     H_    0.803660 0.536503 0.149694 0.125939
H12   H     H_    0.196339 0.463496 0.850306 0.125939
H13   H     H_    0.196353 0.036498 0.850301 0.125937
H14   H     H_    0.803647 0.963502 0.149699 0.125937
H15   H     H_    0.303648 0.963502 0.350302 0.125937
H16   H     H_    0.696352 0.036498 0.649698 0.125937
C49   C     C_3   0.385314 0.424907 0.440631 -0.810248
H17   H     H_    0.479251 0.436885 0.394518 0.212151
H18   H     H_    0.474978 0.429897 0.488877 0.222505
H19   H     H_    0.332298 0.366254 0.435600 0.209583
C50   C     C_3   0.614686 0.575093 0.559369 -0.810248
H20   H     H_    0.520749 0.563115 0.605481 0.212151
H21   H     H_    0.667702 0.633745 0.564400 0.209583
H22   H     H_    0.525022 0.570103 0.511123 0.222505
C51   C     C_3   0.114698 0.575098 0.940627 -0.810237
H23   H     H_    0.020768 0.563124 0.894511 0.212147
H24   H     H_    0.025022 0.570109 0.988871 0.222500
H25   H     H_    0.167730 0.633749 0.935599 0.209583
C52   C     C_3   0.885302 0.424902 0.059373 -0.810238
H26   H     H_    0.979232 0.436876 0.105489 0.212147
H27   H     H_    0.832270 0.366251 0.064401 0.209583
H28   H     H_    0.974978 0.429891 0.011129 0.222500
C53   C     C_3   0.885307 0.075095 0.059370 -0.810246
H29   H     H_    0.979254 0.063113 0.105480 0.212151
H30   H     H_    0.974963 0.070109 0.011122 0.222503
H31   H     H_    0.832290 0.133747 0.064406 0.209584
C54   C     C_3   0.114693 0.924905 0.940629 -0.810246
H32   H     H_    0.020746 0.936887 0.894520 0.212151
H33   H     H_    0.167709 0.866253 0.935594 0.209584
H34   H     H_    0.025037 0.929891 0.988878 0.222503
C55   C     C_3   0.614692 0.924904 0.559371 -0.810237
H35   H     H_    0.520750 0.936883 0.605483 0.212150
H36   H     H_    0.525031 0.929892 0.511123 0.222501
H37   H     H_    0.667713 0.866251 0.564403 0.209582
C56   C     C_3   0.385308 0.075096 0.440629 -0.810237
H38   H     H_    0.479250 0.063117 0.394517 0.212150
H39   H     H_    0.332287 0.133748 0.435597 0.209582
H40   H     H_    0.474968 0.070108 0.488877 0.222501

loop_
_geom_bond_atom_site_label_1
_geom_bond_atom_site_label_2
_ccdc_geom_bond_type
C33   H2    S    
C17   C49   S    
C9    C34   A    
C28   H11   S    
C18   C50   S    
C38   H5    S    
O14   V3    S    
C12   C35   A    
C13   C38   A    
O5    C4    A    
C15   C40   A    
C53   H30   S    
O11   C3    A    
C50   H20   S    
C16   C39   A    
O20   V1    S    
C56   H39   S    
C38   C46   A    
C23   C55   S    
C31   H16   S    
C22   C45   A    
O13   V4    S    
C35   C43   A    
C34   C42   A    
C19   C44   A    
C18   C41   A    
C8    C14   S    
C29   H14   S    
C49   H18   S    
O4    V1    S    
O9    V1    S    
C55   H37   S    
C4    C10   S    
C20   C28   A    
O17   V4    S    
O15   C7    A    
O11   V3    S    
O18   V3    S    
O16   C8    A    
O12   V4    S    
O19   V2    S    
C22   C30   A    
C17   C25   A    
C51   H24   S    
C21   C53   S    
C51   H23   S    
O5    V1    S    
C39   H8    S    
O17   V1    S    
C53   H31   S    
O7    V3    S    
O19   V3    S    
C43   C44   A    
O8    V4    S    
C52   H26   S    
O20   V4    S    
C3    C9    S    
C54   H34   S    
C32   H15   S    
O16   V1    S    
C7    C13   S    
O1    V4    S    
O2    V3    S    
C25   H10   S    
O3    V2    S    
O6    C3    A    
C10   C33   A    
O10   V2    S    
C15   C32   A    
C5    C15   S    
C37   H6    S    
O7    C2    A    
C6    C16   S    
O12   C4    A    
O13   C5    A    
C49   H19   S    
C24   C56   S    
C12   C27   A    
C18   C26   A    
C13   C30   A    
O9    C1    A    
O6    V2    S    
C39   C47   A    
O18   V2    S    
C50   H22   S    
O14   C6    A    
C40   H7    S    
C56   H40   S    
C24   C47   A    
O2    C7    A    
C51   H25   S    
O15   V2    S    
C23   C31   A    
C55   H35   S    
C52   H27   S    
C37   C45   A    
C24   C32   A    
C10   C25   A    
C21   C46   A    
C19   C51   S    
C33   C41   A    
C20   C43   A    
C16   C31   A    
C30   H13   S    
C20   C52   S    
C17   C42   A    
C52   H28   S    
C53   H29   S    
C36   H3    S    
O8    C1    A    
C14   C37   A    
C54   H33   S    
C9    C26   A    
C47   C48   A    
C54   H32   S    
O4    C5    A    
C19   C27   A    
C14   C29   A    
O10   C2    A    
C35   H4    S    
C40   C48   A    
C26   H9    S    
C45   C46   A    
C23   C48   A    
C21   C29   A    
C36   C44   A    
O1    C8    A    
C50   H21   S    
C41   C42   A    
C22   C54   S    
C11   C28   A    
C11   C36   A    
O3    C6    A    
C1    C11   S    
C49   H17   S    
C56   H38   S    
C2    C12   S    
C27   H12   S    
C34   H1    S    
C55   H36   S    
