data_mof_unit_27751.cif
_audit_creation_date              2012-12-11T15:10:44-0500
_audit_creation_method            fapswitch 2.2
_symmetry_space_group_name_H-M    P1
_symmetry_Int_Tables_number       1
_space_group_crystal_system       triclinic
_cell_length_a                    21.106934
_cell_length_b                    7.239086
_cell_length_c                    18.278391
_cell_angle_alpha                 90.001141
_cell_angle_beta                  93.502444
_cell_angle_gamma                 90.000474
_cell_volume                      2787.62862039

loop_
_atom_site_label
_atom_site_type_symbol
_atom_type_description
_atom_site_fract_x
_atom_site_fract_y
_atom_site_fract_z
_atom_type_partial_charge
O1    O     O_R   0.448880 0.506250 0.415280 -0.529489
O2    O     O_R   0.551120 0.006250 0.584720 -0.529487
O3    O     O_R   0.434830 0.174000 0.557310 -0.520547
O4    O     O_R   0.565170 0.674000 0.442690 -0.520547
C1    C     C_R   0.416963 0.344570 0.579625 0.696336
C2    C     C_R   0.583037 0.844569 0.420375 0.696333
O5    O     O_R   0.441680 0.176440 0.414130 -0.530126
O6    O     O_R   0.558320 0.676440 0.585870 -0.530125
O7    O     O_R   0.558020 0.007570 0.440520 -0.519492
O8    O     O_R   0.441980 0.507570 0.559480 -0.519495
C3    C     C_R   0.427964 0.344758 0.388324 0.675604
C4    C     C_R   0.572035 0.844762 0.611676 0.675608
O9    O     O_3   0.538160 0.339670 0.508820 -0.364055
O10   O     O_3   0.461840 0.839670 0.491180 -0.364059
V1    V     V_3+5 0.492920 0.064260 0.498360 1.422791
V2    V     V_3+5 0.507080 0.564260 0.501640 1.422786
C5    C     C_R   0.876201 0.995849 0.686515 -0.193523
C6    C     C_R   0.123811 0.496029 0.313475 -0.193521
H1    H     H_    0.896276 0.029393 0.634939 0.159878
H2    H     H_    0.103741 0.529655 0.365046 0.159865
C7    C     C_R   0.889337 0.943539 0.817752 -0.110738
C8    C     C_R   0.110664 0.443563 0.182248 -0.110735
C9    C     C_R   0.583988 0.805934 0.745445 -0.159121
C10   C     C_R   0.416003 0.305807 0.254560 -0.159112
C11   C     C_R   0.619441 0.799650 0.812019 -0.120406
C12   C     C_R   0.380547 0.299476 0.187989 -0.120410
C13   C     C_R   0.684450 0.835020 0.815514 -0.157494
C14   C     C_R   0.315542 0.334894 0.184492 -0.157494
C15   C     C_R   0.716103 0.878817 0.751734 0.081759
C16   C     C_R   0.283895 0.378791 0.248267 0.081762
C17   C     C_R   0.679004 0.887658 0.683373 0.067308
C18   C     C_R   0.320998 0.387688 0.316625 0.067308
C19   C     C_R   0.783231 0.913423 0.753481 0.084834
C20   C     C_R   0.216770 0.413442 0.246518 0.084829
C21   C     C_R   0.811025 0.958649 0.687111 0.112477
C22   C     C_R   0.188983 0.458774 0.312882 0.112484
C23   C     C_R   0.773761 0.966868 0.621160 -0.180332
C24   C     C_R   0.226251 0.467047 0.378830 -0.180331
C25   C     C_R   0.708990 0.931403 0.619160 -0.190621
C26   C     C_R   0.291019 0.431533 0.380832 -0.190635
C27   C     C_R   0.823884 0.905592 0.818502 -0.236268
C28   C     C_R   0.176113 0.405557 0.181501 -0.236269
C29   C     C_R   0.915937 0.989290 0.750828 -0.025790
C30   C     C_R   0.084073 0.489422 0.249165 -0.025775
C31   C     C_R   0.612653 0.850131 0.680757 -0.081145
C32   C     C_R   0.387345 0.350108 0.319243 -0.081155
H3    H     H_    0.806097 0.873310 0.871018 0.097463
H4    H     H_    0.193895 0.373196 0.128989 0.097472
H5    H     H_    0.708510 0.826693 0.869073 0.107953
H6    H     H_    0.291479 0.326524 0.130935 0.107953
H7    H     H_    0.596328 0.765723 0.861560 0.119818
H8    H     H_    0.403655 0.265471 0.138453 0.119818
H9    H     H_    0.682479 0.938960 0.566628 0.112118
H10   H     H_    0.317532 0.439134 0.433361 0.112138
C33   C     C_1   0.864758 0.938908 0.132386 -0.166913
C34   C     C_1   0.135242 0.438906 0.867614 -0.166912
C35   C     C_1   0.821998 0.924784 0.176256 0.012607
C36   C     C_1   0.178002 0.424782 0.823744 0.012614
C37   C     C_1   0.771479 0.905622 0.228428 0.003115
C38   C     C_1   0.228521 0.405622 0.771572 0.003113
C39   C     C_1   0.728898 0.888997 0.272405 0.002496
C40   C     C_1   0.271102 0.388997 0.727595 0.002493
C41   C     C_1   0.678286 0.869912 0.324467 0.001473
C42   C     C_1   0.321714 0.369914 0.675533 0.001472
C43   C     C_1   0.635377 0.855896 0.368153 -0.204563
C44   C     C_1   0.364623 0.355898 0.631847 -0.204563
O11   O     O_R   0.058070 0.289240 0.940580 -0.513817
O12   O     O_R   0.941930 0.789240 0.059420 -0.513813
O13   O     O_R   0.058330 0.616740 0.085880 -0.535262
O14   O     O_R   0.941670 0.116740 0.914120 -0.535258
C45   C     C_R   0.071759 0.448884 0.111987 0.744524
C46   C     C_R   0.928241 0.948879 0.888013 0.744544
O15   O     O_R   0.065180 0.619040 0.942700 -0.517395
O16   O     O_R   0.934820 0.119040 0.057300 -0.517403
O17   O     O_R   0.948870 0.787780 0.915270 -0.525925
O18   O     O_R   0.051130 0.287780 0.084730 -0.525926
C47   C     C_R   0.083116 0.450331 0.920108 0.700490
C48   C     C_R   0.916884 0.950332 0.079891 0.700489
O19   O     O_3   0.961870 0.453310 0.991210 -0.367254
O20   O     O_3   0.038130 0.953310 0.008790 -0.367251
V3    V     V_3+5 0.007070 0.728770 0.001630 1.492507
V4    V     V_3+5 0.992930 0.228770 0.998370 1.492495
C49   C     C_2   0.984778 0.030708 0.745494 0.737912
O21   O     O_2   0.024094 0.979138 0.793049 -0.563757
O22   O     O_R   0.004918 0.127034 0.684745 -0.661831
H11   H     H_    0.052569 0.146670 0.687089 0.302880
C50   C     C_2   0.015236 0.530908 0.254495 0.737926
O23   O     O_2   0.975912 0.479253 0.206963 -0.563754
O24   O     O_R   0.995111 0.627394 0.315214 -0.661830
H12   H     H_    0.947461 0.647064 0.312870 0.302877
H13   H     H_    0.794985 0.000918 0.570338 0.132915
H14   H     H_    0.205032 0.501177 0.429648 0.132914
H15   H     H_    0.533660 0.775498 0.744311 0.106585
H16   H     H_    0.466328 0.275325 0.255697 0.106590

loop_
_geom_bond_atom_site_label_1
_geom_bond_atom_site_label_2
_ccdc_geom_bond_type
C16   C18   A    
C50   O23   D    
C41   C43   T    
C9    C31   A    
C15   C19   A    
C13   C15   A    
C29   C49   S    
C8    C45   S    
O11   C47   A    
O2    C4    A    
C2    O7    A    
C5    C29   A    
C25   H9    S    
O22   H11   S    
O5    C3    A    
O12   V3    S    
C21   C23   A    
C10   C12   A    
C10   H16   S    
C45   O18   A    
O20   V3    S    
C35   C37   S    
C36   C38   S    
C24   H14   S    
C38   C40   T    
O13   C45   A    
C40   C42   S    
C19   C21   A    
C7    C29   A    
C14   H6    S    
C2    C43   S    
C8    C30   A    
C17   C25   A    
C20   C28   A    
C30   C50   S    
C20   C22   A    
O5    V1    S    
O6    V2    S    
O16   V4    S    
C46   O17   A    
O15   V3    S    
O12   C48   A    
C37   C39   T    
C16   C20   A    
C7    C46   S    
O4    C2    A    
O18   V4    S    
C33   C48   S    
C23   H13   S    
C4    C31   S    
C34   C47   S    
C9    H15   S    
C42   C44   T    
O4    V2    S    
C11   H7    S    
C12   H8    S    
C49   O21   D    
O6    C4    A    
C39   C41   S    
C27   H3    S    
O1    V2    S    
C28   H4    S    
O2    V1    S    
C7    C27   A    
C49   O22   S    
C26   H10   S    
C33   C35   T    
C17   C31   A    
C6    C30   A    
O3    V1    S    
C18   C32   A    
O17   V3    S    
C1    C44   S    
O3    C1    A    
O19   V4    S    
C11   C13   A    
C12   C14   A    
C10   C32   A    
C14   C16   A    
O7    V1    S    
C19   C27   A    
C1    O8    A    
C23   C25   A    
O8    V2    S    
C24   C26   A    
C8    C28   A    
C22   C24   A    
C5    H1    S    
C34   C36   T    
C6    H2    S    
C18   C26   A    
O14   V4    S    
O13   V3    S    
C9    C11   A    
O11   V4    S    
C15   C17   A    
O16   C48   A    
O9    V2    S    
C50   O24   S    
O15   C47   A    
O10   V1    S    
C3    C32   S    
O14   C46   A    
O1    C3    A    
C5    C21   A    
O24   H12   S    
C6    C22   A    
C13   H5    S    
