data_mof_unit_38242.cif
_audit_creation_date              2012-10-26T20:47:32-0400
_audit_creation_method            fapswitch 2.2
_symmetry_space_group_name_H-M    P1
_symmetry_Int_Tables_number       1
_space_group_crystal_system       triclinic
_cell_length_a                    13.924387
_cell_length_b                    13.856594
_cell_length_c                    15.128583
_cell_angle_alpha                 91.174579
_cell_angle_beta                  91.47103
_cell_angle_gamma                 84.260957
_cell_volume                      2902.91811103

loop_
_atom_site_label
_atom_site_type_symbol
_atom_type_description
_atom_site_fract_x
_atom_site_fract_y
_atom_site_fract_z
_atom_type_partial_charge
C1    C     C_R   0.498956 0.499590 0.330247 0.574837
C2    C     C_R   0.794279 0.448822 0.436089 0.370597
C3    C     C_R   0.213875 0.427404 0.458347 0.354334
C4    C     C_R   0.787039 0.553733 0.561684 0.338254
C5    C     C_R   0.112572 0.426449 0.462319 -0.161655
C6    C     C_R   0.888811 0.548656 0.565421 -0.192114
C7    C     C_R   0.053676 0.505701 0.497231 -0.034887
C8    C     C_R   0.944379 0.505063 0.496275 -0.037057
C9    C     C_R   0.516012 0.316995 0.499602 0.531444
C10   C     C_R   0.483967 0.682988 0.500157 0.540960
C11   C     C_1   0.473617 0.786176 0.500323 -0.006494
C12   C     C_R   0.501459 0.498425 0.670415 0.547313
C13   C     C_1   0.526325 0.213763 0.498211 -0.001466
C14   C     C_2   0.459912 0.976965 0.500575 0.242444
C15   C     C_2   0.540142 0.022920 0.495497 0.234691
C16   C     C_1   0.533807 0.126780 0.496856 0.054473
C17   C     C_1   0.466248 0.873132 0.500440 0.047050
C18   C     C_R   0.560939 0.422530 0.098996 0.227383
C19   C     C_R   0.420575 0.464247 0.901825 0.232630
C20   C     C_R   0.561729 0.428801 0.190751 -0.169120
C21   C     C_R   0.422230 0.468552 0.810287 -0.176306
C22   C     C_R   0.496994 0.496199 0.234160 -0.066187
C23   C     C_R   0.433998 0.557543 0.093080 0.248668
C24   C     C_R   0.504332 0.493218 0.767647 -0.081003
C25   C     C_R   0.430186 0.558285 0.185833 0.232238
C26   C     C_R   0.587953 0.509495 0.818532 0.243521
C27   C     C_3   0.274311 0.596156 0.225000 0.038777
C28   C     C_3   0.207217 0.667319 0.278554 -0.261095
C29   C     C_3   0.103986 0.639977 0.272765 -0.509736
C30   C     C_3   0.739851 0.447184 0.778430 0.080565
C31   C     C_3   0.839662 0.478209 0.802900 -0.256196
C32   C     C_3   0.919148 0.396395 0.786044 -0.481939
C33   C     C_3   0.402599 0.714592 0.046031 0.015093
C34   C     C_R   0.584696 0.511947 0.911174 0.267522
C35   C     C_3   0.314881 0.790045 0.049866 -0.248946
C36   C     C_3   0.344154 0.892752 0.042604 -0.475613
C37   C     C_3   0.662818 0.621226 0.996696 0.007831
C38   C     C_3   0.688819 0.695037 0.929517 -0.268325
C39   C     C_3   0.689253 0.795996 0.971539 -0.487390
C40   C     C_3   0.011890 0.728819 0.503952 -0.000194
C41   C     C_3   0.080673 0.806232 0.488876 -0.239769
C42   C     C_3   0.033443 0.887597 0.431077 -0.479970
C43   C     C_3   0.907213 0.482686 0.277808 0.010499
C44   C     C_3   0.959174 0.441812 0.195341 -0.260727
C45   C     C_R   0.497742 0.487669 0.049705 0.057110
C46   C     C_3   0.920833 0.495217 0.112428 -0.468972
C47   C     C_3   0.240856 0.651727 0.671144 0.034258
C48   C     C_3   0.312384 0.717996 0.711528 -0.259169
C49   C     C_3   0.303564 0.727495 0.811605 -0.484987
C50   C     C_3   0.763903 0.291852 0.404194 0.038382
C51   C     C_3   0.847468 0.234906 0.355713 -0.279624
C52   C     C_3   0.847020 0.125814 0.367864 -0.469929
C53   C     C_3   0.241917 0.336640 0.329371 0.003046
C54   C     C_3   0.213850 0.233434 0.315178 -0.249611
C55   C     C_3   0.186652 0.214058 0.218553 -0.472491
C56   C     C_R   0.501131 0.487375 0.952869 0.061398
C57   C     C_3   0.740723 0.708735 0.612893 0.044006
C58   C     C_3   0.791219 0.750465 0.693936 -0.295943
C59   C     C_3   0.791759 0.860221 0.688353 -0.451523
C60   C     C_R   0.101323 0.583587 0.533835 0.223484
C61   C     C_R   0.893534 0.461402 0.426464 0.216329
C62   C     C_R   0.203809 0.575808 0.540203 0.372238
Cl1   Cl    Cl    0.656057 0.959460 0.487134 -0.720512
Cl2   Cl    Cl    0.343900 0.040458 0.507825 -0.637615
Cl3   Cl    Cl    0.638604 0.330701 0.048180 -0.588735
Cl4   Cl    Cl    0.316821 0.426899 0.950223 -0.599716
Cu1   Cu    Cu3+1 0.596430 0.500000 0.499990 1.028859
Cu2   Cu    Cu3+1 0.403570 0.500000 0.500010 1.048508
H1    H     H_    0.611447 0.379350 0.228470 0.184660
H2    H     H_    0.054719 0.698937 0.302080 0.138634
H3    H     H_    0.098716 0.572181 0.309371 0.157912
H4    H     H_    0.741105 0.414739 0.710615 0.155827
H5    H     H_    0.724072 0.389379 0.824913 0.153805
H6    H     H_    0.853528 0.541849 0.763532 0.179938
H7    H     H_    0.841947 0.499902 0.873976 0.190131
H8    H     H_    0.907386 0.332060 0.825502 0.168023
H9    H     H_    0.990261 0.421018 0.805622 0.167229
H10   H     H_    0.920282 0.375779 0.714682 0.148432
H11   H     H_    0.441404 0.723860 0.983964 0.118006
H12   H     H_    0.359094 0.450967 0.772397 0.172584
H13   H     H_    0.452001 0.728767 0.103186 0.140621
H14   H     H_    0.263053 0.776189 0.995176 0.173607
H15   H     H_    0.277972 0.783905 0.113373 0.180389
H16   H     H_    0.394594 0.908769 0.097834 0.163414
H17   H     H_    0.278970 0.945729 0.045994 0.156237
H18   H     H_    0.379582 0.901193 0.978640 0.153117
H19   H     H_    0.715957 0.620392 0.052749 0.148463
H20   H     H_    0.591696 0.644389 0.025294 0.094689
H21   H     H_    0.761531 0.671792 0.903495 0.173822
H22   H     H_    0.635287 0.698888 0.873681 0.179394
H23   H     H_    0.080693 0.362806 0.437961 0.167658
H24   H     H_    0.616689 0.821223 0.996966 0.148633
H25   H     H_    0.708232 0.847674 0.921189 0.157472
H26   H     H_    0.743428 0.795175 0.026782 0.153179
H27   H     H_    0.942797 0.765501 0.528213 0.152743
H28   H     H_    0.993764 0.691497 0.440732 0.120437
H29   H     H_    0.102270 0.837820 0.553657 0.200645
H30   H     H_    0.146728 0.772478 0.456601 0.184610
H31   H     H_    0.010701 0.858319 0.365855 0.142231
H32   H     H_    0.085826 0.941336 0.420247 0.175817
H33   H     H_    0.969354 0.925113 0.464016 0.162989
H34   H     H_    0.923326 0.579922 0.622149 0.166422
H35   H     H_    0.921504 0.559766 0.288395 0.120575
H36   H     H_    0.828402 0.479893 0.265781 0.185970
H37   H     H_    0.037818 0.448107 0.203445 0.157651
H38   H     H_    0.948505 0.363678 0.186979 0.180983
H39   H     H_    0.843365 0.485137 0.100659 0.191151
H40   H     H_    0.961857 0.465605 0.054267 0.167331
H41   H     H_    0.929173 0.573906 0.119454 0.133438
H42   H     H_    0.257081 0.577716 0.698519 0.134136
H43   H     H_    0.167019 0.680926 0.690429 0.174431
H44   H     H_    0.387238 0.688625 0.695643 0.175265
H45   H     H_    0.273537 0.522587 0.252941 0.131292
H46   H     H_    0.298460 0.791238 0.682399 0.187750
H47   H     H_    0.230103 0.760018 0.828770 0.151205
H48   H     H_    0.357126 0.775344 0.838365 0.145767
H49   H     H_    0.317694 0.655480 0.842713 0.191928
H50   H     H_    0.696825 0.258110 0.386241 0.167152
H51   H     H_    0.774948 0.284109 0.477242 0.120385
H52   H     H_    0.841607 0.250914 0.283966 0.198914
H53   H     H_    0.917308 0.256336 0.382438 0.190361
H54   H     H_    0.852881 0.108171 0.439232 0.173295
H55   H     H_    0.909454 0.086754 0.333702 0.148693
H56   H     H_    0.246390 0.594975 0.155443 0.189935
H57   H     H_    0.779520 0.100448 0.339179 0.191013
H58   H     H_    0.305663 0.345475 0.288655 0.154451
H59   H     H_    0.182258 0.389756 0.304464 0.101304
H60   H     H_    0.275561 0.180657 0.335325 0.217415
H61   H     H_    0.151529 0.222328 0.356907 0.173460
H62   H     H_    0.123503 0.264474 0.197632 0.152837
H63   H     H_    0.167413 0.138477 0.210393 0.153036
H64   H     H_    0.248380 0.223456 0.175520 0.175083
H65   H     H_    0.666296 0.745697 0.608127 0.184555
H66   H     H_    0.777354 0.726715 0.551339 0.126118
H67   H     H_    0.232468 0.667115 0.348836 0.189523
H68   H     H_    0.752866 0.733623 0.754183 0.179702
H69   H     H_    0.866838 0.717069 0.699801 0.159057
H70   H     H_    0.830548 0.879106 0.628830 0.182288
H71   H     H_    0.829066 0.887987 0.747963 0.145002
H72   H     H_    0.716683 0.895870 0.685318 0.189877
H73   H     H_    0.208811 0.741678 0.252900 0.167227
H74   H     H_    0.080668 0.629758 0.202741 0.150373
N1    N     N_R   0.258690 0.500000 0.500020 -0.237435
N2    N     N_R   0.741310 0.500000 0.499980 -0.238742
O1    O     O_R   0.581430 0.500010 0.371450 -0.469195
O2    O     O_3   0.671510 0.530190 0.778651 -0.519494
O3    O     O_3   0.370841 0.620702 0.044392 -0.549532
O4    O     O_3   0.668337 0.526397 0.959496 -0.538520
O5    O     O_3   0.049925 0.664747 0.570503 -0.607360
O6    O     O_3   0.941477 0.426823 0.351347 -0.605051
O7    O     O_3   0.248987 0.651246 0.578263 -0.533084
O8    O     O_3   0.749595 0.389597 0.376643 -0.550801
O9    O     O_3   0.269325 0.350444 0.419262 -0.511007
O10   O     O_3   0.733248 0.608332 0.623794 -0.505027
O11   O     O_R   0.418570 0.499990 0.628550 -0.516913
O12   O     O_R   0.418560 0.500010 0.371460 -0.480663
O13   O     O_R   0.581440 0.499990 0.628540 -0.426761
O14   O     O_R   0.592950 0.362150 0.500010 -0.523965
O15   O     O_R   0.407050 0.637850 0.499990 -0.447899
O16   O     O_R   0.430080 0.362150 0.500020 -0.425065
O17   O     O_R   0.569920 0.637850 0.499980 -0.487943
O18   O     O_3   0.368198 0.626289 0.229645 -0.560969

loop_
_geom_bond_atom_site_label_1
_geom_bond_atom_site_label_2
_ccdc_geom_bond_type
C19   C56   A    
C4    O10   S    
C18   C45   A    
C34   C56   A    
C23   C45   A    
C28   H67   S    
C2    N2    A    
C41   C42   S    
C39   H24   S    
C37   H20   S    
C1    O1    A    
C35   C36   S    
C62   N1    A    
Cu2   O11   S    
C7    C8    S    
C53   C54   S    
C18   Cl3   S    
C53   O9    S    
C38   H21   S    
C46   H41   S    
C19   Cl4   S    
C9    O14   A    
C28   C29   S    
C19   C21   A    
C24   C26   A    
C27   O18   S    
C30   C31   S    
C52   H55   S    
C47   H43   S    
C15   C16   S    
C3    O9    S    
Cu2   N1    S    
C60   C62   A    
C26   O2    S    
C9    C13   S    
C43   H36   S    
C39   H25   S    
C53   H59   S    
C32   H9    S    
C34   O4    S    
C26   C34   A    
C49   H49   S    
C47   C48   S    
C45   C56   S    
C22   C25   A    
C46   H40   S    
Cu1   O1    S    
C12   O13   A    
Cu2   O15   S    
C33   O3    S    
C61   O6    S    
C2    C61   A    
C8    C61   A    
C6    H34   S    
C1    C22   S    
C14   C17   S    
C57   H65   S    
C52   H54   S    
C40   H28   S    
Cu1   N2    S    
C35   H14   S    
C44   C46   S    
C30   O2    S    
C2    O8    S    
C62   O7    S    
Cu1   Cu2   S    
C3    N1    A    
C4    C6    A    
C53   H58   S    
C5    C7    A    
C30   H5    S    
C35   H15   S    
C33   H11   S    
C31   H6    S    
C6    C8    A    
C59   H70   S    
C36   H18   S    
C58   C59   S    
C44   H37   S    
C23   O3    S    
C51   C52   S    
C1    O12   A    
C43   C44   S    
C39   H26   S    
C4    N2    A    
C37   C38   S    
C42   H32   S    
Cu1   O17   S    
C31   H7    S    
C31   C32   S    
C14   C15   D    
C59   H71   S    
C25   O18   S    
C52   H57   S    
C55   H62   S    
C14   Cl2   S    
C46   H39   S    
C51   H52   S    
Cu1   O13   S    
C5    H23   S    
C43   O6    S    
C27   H45   S    
C58   H69   S    
C40   C41   S    
C49   H47   S    
C47   O7    S    
C10   O17   A    
C55   H63   S    
C51   H53   S    
C41   H29   S    
C20   H1    S    
C13   C16   T    
C12   O11   A    
C42   H33   S    
C3    C5    A    
C7    C60   A    
C48   H46   S    
C29   H2    S    
C54   H61   S    
C12   C24   S    
C54   C55   S    
C11   C17   T    
C15   Cl1   S    
C48   H44   S    
C50   H50   S    
C37   H19   S    
C20   C22   A    
Cu2   O12   S    
C32   H8    S    
C30   H4    S    
C27   H56   S    
C44   H38   S    
C36   H17   S    
C47   H42   S    
C57   O10   S    
C38   H22   S    
C9    O16   A    
C58   H68   S    
C42   H31   S    
C57   C58   S    
C38   C39   S    
C54   H60   S    
C59   H72   S    
C36   H16   S    
C48   C49   S    
C29   H74   S    
C21   H12   S    
C33   C35   S    
C40   O5    S    
Cu1   O14   S    
C18   C20   A    
C60   O5    S    
C23   C25   A    
C37   O4    S    
C57   H66   S    
C43   H35   S    
C10   C11   S    
C32   H10   S    
C50   H51   S    
C50   O8    S    
C49   H48   S    
C55   H64   S    
C21   C24   A    
C27   C28   S    
C50   C51   S    
C41   H30   S    
C28   H73   S    
C40   H27   S    
Cu2   O16   S    
C33   H13   S    
C10   O15   A    
C29   H3    S    
