data_mof_unit_66571.cif
_audit_creation_date              2012-12-11T14:33:01-0500
_audit_creation_method            fapswitch 2.2
_symmetry_space_group_name_H-M    P1
_symmetry_Int_Tables_number       1
_space_group_crystal_system       triclinic
_cell_length_a                    7.067331
_cell_length_b                    13.788818
_cell_length_c                    17.934198
_cell_angle_alpha                 112.845074
_cell_angle_beta                  95.549293
_cell_angle_gamma                 89.562136
_cell_volume                      1602.19752859

loop_
_atom_site_label
_atom_site_type_symbol
_atom_type_description
_atom_site_fract_x
_atom_site_fract_y
_atom_site_fract_z
_atom_type_partial_charge
O1    O     O_R   0.484560 0.544530 0.414330 -0.540269
O2    O     O_R   0.197040 0.638810 0.585080 -0.542273
O3    O     O_R   0.026800 0.455470 0.585670 -0.543536
C1    C     C_R   0.373100 0.674769 0.615162 0.688141
O4    O     O_R   0.155000 0.556150 0.414940 -0.538777
O5    O     O_R   0.984450 0.372220 0.414320 -0.535683
C2    C     C_R   0.316344 0.561627 0.384809 0.714923
O6    O     O_R   0.526900 0.627780 0.585680 -0.527303
O7    O     O_3   0.339170 0.439750 0.499990 -0.384975
V1    V     V_3+5 0.064350 0.511180 0.500000 1.336685
O8    O     O_R   0.654880 0.361190 0.414920 -0.543011
C3    C     C_R   0.816793 0.326897 0.384807 0.775211
O9    O     O_R   0.696930 0.443850 0.585060 -0.549769
C4    C     C_R   0.873381 0.440628 0.615798 0.686326
V2    V     V_3+5 0.564340 0.488820 0.500000 1.326341
O10   O     O_3   0.839390 0.560250 0.500010 -0.374643
C5    C     C_R   0.041552 0.877757 0.832294 -0.049382
C6    C     C_R   0.907918 0.413451 0.688378 -0.064063
C7    C     C_R   0.949007 0.842620 0.691195 -0.156842
C8    C     C_R   0.986938 0.807025 0.753253 -0.117924
C9    C     C_R   0.043109 0.987752 0.849810 -0.222192
C10   C     C_R   0.001661 0.026309 0.786331 0.104573
C11   C     C_R   0.963378 0.950360 0.706607 0.088809
C12   C     C_R   0.005811 0.135585 0.797064 0.046181
C13   C     C_R   0.963796 0.164832 0.727968 0.017970
C14   C     C_R   0.952329 0.084312 0.647875 0.102642
C15   C     C_R   0.960949 0.979869 0.640817 -0.267458
C16   C     C_R   0.060859 0.216480 0.873478 -0.171800
C17   C     C_R   0.081718 0.320891 0.881950 -0.222240
C18   C     C_R   0.030058 0.350557 0.816986 0.121669
C19   C     C_R   0.957043 0.274193 0.741326 0.089477
C20   C     C_R   0.049341 0.456283 0.826715 -0.124568
C21   C     C_R   0.996986 0.486503 0.761664 -0.140007
C22   C     C_R   0.876993 0.310565 0.681962 -0.228743
H1    H     H_    0.788704 0.259379 0.630839 0.136529
C23   C     C_2   0.131806 0.039932 0.180752 -0.353365
C24   C     C_2   0.970024 0.082491 0.211550 -0.137806
H2    H     H_    0.679162 0.180838 0.290524 0.132961
C25   C     C_2   0.812239 0.225970 0.313362 -0.366426
C26   C     C_2   0.969540 0.188433 0.276410 -0.138909
H3    H     H_    0.266367 0.083765 0.204169 0.127278
C27   C     C_R   0.407395 0.779885 0.684489 -0.078157
C28   C     C_R   0.541226 0.468128 0.822645 -0.064671
C29   C     C_R   0.547143 0.885359 0.820294 -0.126397
C30   C     C_R   0.503344 0.786940 0.757977 -0.137738
C31   C     C_R   0.369380 0.874100 0.673999 -0.172814
C32   C     C_R   0.449951 0.974646 0.729037 0.079280
C33   C     C_R   0.516630 0.980059 0.807908 0.073873
C34   C     C_R   0.462915 0.069096 0.710694 0.007937
C35   C     C_R   0.504695 0.169542 0.778114 -0.005780
C36   C     C_R   0.534880 0.170520 0.857201 -0.158819
C37   C     C_R   0.545065 0.078919 0.873413 0.048689
C38   C     C_R   0.449552 0.067411 0.629082 0.086068
C39   C     C_R   0.435884 0.166286 0.617991 0.017841
C40   C     C_R   0.450002 0.265717 0.688037 0.060963
C41   C     C_R   0.506617 0.268178 0.767035 0.079191
C42   C     C_R   0.413370 0.364284 0.682516 -0.122788
C43   C     C_R   0.459127 0.461523 0.746982 -0.129982
C44   C     C_R   0.560445 0.370592 0.832702 -0.177676
C45   C     C_2   0.312517 0.603934 0.318999 -0.087870
C46   C     C_2   0.468437 0.596620 0.277812 -0.177953
C47   C     C_2   0.625666 0.624504 0.164953 -0.066472
C48   C     C_2   0.495989 0.651169 0.221132 -0.177723
O11   O     O_R   0.421600 0.630430 0.917010 -0.536483
O12   O     O_R   0.793840 0.702190 0.087630 -0.545306
O13   O     O_R   0.964010 0.886170 0.088190 -0.534246
C49   C     C_R   0.629769 0.684978 0.110950 0.716563
O14   O     O_R   0.751460 0.619510 0.917500 -0.533732
O15   O     O_R   0.921330 0.802900 0.916840 -0.541159
C50   C     C_R   0.575422 0.577779 0.891783 0.660616
O16   O     O_R   0.464290 0.713700 0.088350 -0.540190
O17   O     O_3   0.609200 0.818520 0.002630 -0.373916
V3    V     V_3+5 0.884140 0.747190 0.002530 1.356158
O18   O     O_R   0.251150 0.814630 0.917340 -0.538015
C51   C     C_R   0.074986 0.834010 0.895978 0.675767
O19   O     O_R   0.293530 0.897310 0.087470 -0.542515
C52   C     C_R   0.130387 0.934056 0.115020 0.754039
V4    V     V_3+5 0.384070 0.769710 0.002370 1.359627
O20   O     O_3   0.109180 0.698190 0.002460 -0.380402
H4    H     H_    0.981598 0.918611 0.582461 0.107444
H5    H     H_    0.109848 0.514785 0.884006 0.148497
H6    H     H_    0.100691 0.235323 0.295007 0.154006
H7    H     H_    0.835428 0.038256 0.189726 0.158855
C53   C     C_3   0.575558 0.085364 0.960989 -0.352678
C54   C     C_3   0.546223 0.193530 0.028346 -0.335749
C55   C     C_3   0.561101 0.187639 0.111800 -0.766880
H8    H     H_    0.452719 0.130795 0.113305 0.223828
H9    H     H_    0.704909 0.162675 0.125855 0.242125
H10   H     H_    0.537487 0.266421 0.158916 0.215581
H11   H     H_    0.656809 0.251027 0.029900 0.194364
H12   H     H_    0.403411 0.222177 0.016698 0.193310
H13   H     H_    0.471642 0.029573 0.967386 0.181265
H14   H     H_    0.721426 0.059564 0.971802 0.168784
H15   H     H_    0.619668 0.377712 0.892259 0.088265
H16   H     H_    0.426864 0.533053 0.737493 0.090003
C56   C     C_3   0.405378 0.154741 0.527808 -0.505029
C57   C     C_3   0.382273 0.240058 0.495678 -0.277089
C58   C     C_3   0.392749 0.193852 0.403374 -0.762586
H17   H     H_    0.536414 0.163497 0.390363 0.214686
H18   H     H_    0.290153 0.127017 0.371122 0.218554
H19   H     H_    0.363403 0.255024 0.378699 0.240699
H20   H     H_    0.240447 0.274682 0.507525 0.215062
H21   H     H_    0.501893 0.296481 0.523516 0.245404
H22   H     H_    0.520622 0.111691 0.498095 0.197763
H23   H     H_    0.286709 0.101718 0.495177 0.208749
H24   H     H_    0.610622 0.886162 0.877713 0.143219
H25   H     H_    0.539085 0.716344 0.768273 0.095841
H26   H     H_    0.275339 0.864086 0.622043 0.121726
H27   H     H_    0.548965 0.244057 0.908165 0.119778
C59   C     C_3   0.435894 0.961471 0.551466 -0.362007
C60   C     C_3   0.593381 0.883137 0.545060 -0.357668
C61   C     C_3   0.536094 0.775536 0.482441 -0.759726
H28   H     H_    0.406916 0.746830 0.498475 0.217395
H29   H     H_    0.507768 0.779874 0.421989 0.224095
H30   H     H_    0.654512 0.721631 0.480434 0.251599
H31   H     H_    0.713372 0.905524 0.521532 0.200197
H32   H     H_    0.642098 0.876949 0.602747 0.230465
H33   H     H_    0.294822 0.923294 0.539643 0.147402
H34   H     H_    0.434569 0.968227 0.492629 0.153653
H35   H     H_    0.339823 0.370578 0.630164 0.138125
H36   H     H_    0.414129 0.720854 0.229190 0.134252
H37   H     H_    0.587516 0.554816 0.291945 0.135122
C62   C     C_3   0.727086 0.519818 0.143898 -0.376063
C63   C     C_3   0.900537 0.506423 0.095336 -0.286125
C64   C     C_3   0.022988 0.416036 0.099189 -0.798329
H38   H     H_    0.161486 0.419308 0.075853 0.211931
H39   H     H_    0.054386 0.422356 0.162828 0.230422
H40   H     H_    0.950256 0.339067 0.062000 0.227579
H41   H     H_    0.852456 0.491084 0.030757 0.183129
H42   H     H_    0.992305 0.578651 0.120504 0.211832
H43   H     H_    0.776058 0.508904 0.200262 0.179913
H44   H     H_    0.621590 0.454808 0.108969 0.170631
C65   C     C_3   0.131085 0.652356 0.299892 -0.310738
C66   C     C_3   0.092404 0.756763 0.368428 -0.327031
C67   C     C_3   0.893080 0.791504 0.352495 -0.792214
H45   H     H_    0.787503 0.729456 0.346485 0.245156
H46   H     H_    0.861762 0.862977 0.404543 0.228454
H47   H     H_    0.879980 0.808079 0.296373 0.234756
H48   H     H_    0.102487 0.748450 0.427810 0.199286
H49   H     H_    0.197796 0.818276 0.372190 0.187909
H50   H     H_    0.131641 0.665819 0.243143 0.181094
H51   H     H_    0.013177 0.595189 0.290459 0.177509
H52   H     H_    0.024359 0.566917 0.768891 0.093367
H53   H     H_    0.137068 0.379585 0.940070 0.123133
H54   H     H_    0.916275 0.784823 0.629745 0.134394
H55   H     H_    0.977511 0.723276 0.739018 0.092220
H56   H     H_    0.076589 0.040433 0.912437 0.091632
C68   C     C_3   0.008297 0.103303 0.573854 -0.374625
C69   C     C_3   0.863498 0.091958 0.501321 -0.378333
C70   C     C_3   0.946583 0.066694 0.420700 -0.820353
H57   H     H_    0.049642 0.002677 0.408097 0.235997
H58   H     H_    0.830015 0.041334 0.370257 0.229985
H59   H     H_    0.014089 0.138929 0.421263 0.252558
H60   H     H_    0.762364 0.028228 0.490860 0.211572
H61   H     H_    0.795419 0.167386 0.511481 0.203907
H62   H     H_    0.084203 0.179746 0.592951 0.195605
H63   H     H_    0.105720 0.041506 0.547448 0.189864
H64   H     H_    0.098290 0.200422 0.927131 0.119711

loop_
_geom_bond_atom_site_label_1
_geom_bond_atom_site_label_2
_ccdc_geom_bond_type
C38   C59   S    
C13   C19   A    
C67   H47   S    
C18   C20   A    
C56   H23   S    
C46   H37   S    
C62   H44   S    
C4    C6    S    
O2    C1    A    
C7    C8    A    
C1    O6    A    
C59   H33   S    
C61   H29   S    
C57   C58   S    
C54   H12   S    
C62   C63   S    
C32   C34   A    
C38   C39   A    
C21   H52   S    
C20   H5    S    
C14   C15   A    
C7    H54   S    
C47   C49   S    
C9    H56   S    
C16   C17   A    
O19   V4    S    
C24   C26   S    
C23   C52   S    
O5    C3    A    
H2    C25   S    
C55   H9    S    
C40   C41   A    
C49   O16   A    
V2    O10   S    
C5    C8    A    
O12   V3    S    
C46   C48   S    
C22   H1    S    
C27   C31   A    
C37   C53   S    
C59   C60   S    
C47   C62   S    
O17   V4    S    
C28   C43   A    
C31   C32   A    
O8    V2    S    
C60   C61   S    
C56   H22   S    
O12   C49   A    
C70   H59   S    
C31   H26   S    
C64   H40   S    
C12   C13   A    
O15   V3    S    
C60   H31   S    
O1    V2    S    
C44   H15   S    
O11   C50   A    
O7    V1    S    
C39   C56   S    
C57   H20   S    
C28   C44   A    
C53   H14   S    
C64   H38   S    
C36   H27   S    
C69   H60   S    
O1    C2    A    
O9    C4    A    
C23   H3    S    
C61   H28   S    
C48   H36   S    
C10   C11   A    
V3    O20   S    
O18   C51   A    
C36   C37   A    
C26   H6    S    
C67   H45   S    
O19   C52   A    
C15   H4    S    
C66   H48   S    
O4    C2    A    
V4    O20   S    
O14   V3    S    
C54   C55   S    
C17   H53   S    
C35   C41   A    
C45   C46   D    
C27   C30   A    
C7    C11   A    
C43   H16   S    
C17   C18   A    
C70   H58   S    
C32   C33   A    
C54   H11   S    
C56   C57   S    
C47   C48   D    
C16   H64   S    
C35   C36   A    
C65   H51   S    
C19   C22   A    
C63   H42   S    
C53   C54   S    
C14   C68   S    
C6    C22   A    
C57   H21   S    
O3    C4    A    
C42   H35   S    
C34   C35   A    
C28   C50   S    
C11   C15   A    
O9    V2    S    
C65   C66   S    
C8    H55   S    
O2    V1    S    
C2    C45   S    
C25   C26   D    
C29   C30   A    
C64   H39   S    
C67   H46   S    
O13   C52   A    
C39   C40   A    
C23   C24   D    
C62   H43   S    
C55   H8    S    
O11   V4    S    
C12   C16   A    
O17   V3    S    
C55   H10   S    
C59   H34   S    
O5    V1    S    
O8    C3    A    
C66   C67   S    
C29   H24   S    
O6    V2    S    
C58   H19   S    
C53   H13   S    
C58   H18   S    
C41   C44   A    
C60   H32   S    
C20   C21   A    
C3    C25   S    
C40   C42   A    
C13   C14   A    
O4    V1    S    
O3    V1    S    
V1    O10   S    
C69   C70   S    
C66   H49   S    
O13   V3    S    
C42   C43   A    
C18   C19   A    
C1    C27   S    
C34   C38   A    
C45   C65   S    
C63   H41   S    
O15   C51   A    
C10   C12   A    
C68   H63   S    
C61   H30   S    
C69   H61   S    
C6    C21   A    
C5    C9    A    
C30   H25   S    
C33   C37   A    
O14   C50   A    
C58   H17   S    
O18   V4    S    
C5    C51   S    
C70   H57   S    
C24   H7    S    
C65   H50   S    
C68   H62   S    
C9    C10   A    
C68   C69   S    
O16   V4    S    
C29   C33   A    
O7    V2    S    
C63   C64   S    
