data_mof_unit_54415.cif
_audit_creation_date              2012-12-10T16:39:31-0500
_audit_creation_method            fapswitch 2.2
_symmetry_space_group_name_H-M    P1
_symmetry_Int_Tables_number       1
_space_group_crystal_system       triclinic
_cell_length_a                    16.944932
_cell_length_b                    16.720374
_cell_length_c                    16.866202
_cell_angle_alpha                 65.469727
_cell_angle_beta                  66.675854
_cell_angle_gamma                 65.653473
_cell_volume                      3812.27763747

loop_
_atom_site_label
_atom_site_type_symbol
_atom_type_description
_atom_site_fract_x
_atom_site_fract_y
_atom_site_fract_z
_atom_type_partial_charge
C1    C     C_R   0.320555 0.980171 0.445543 -0.014342
C2    C     C_R   0.669531 0.066153 0.539102 -0.018085
C3    C     C_R   0.939013 0.463266 0.327448 -0.006809
C4    C     C_R   0.051970 0.538830 0.674081 -0.010424
C5    C     C_R   0.456630 0.325811 0.955571 -0.009931
C6    C     C_R   0.539195 0.667375 0.069344 -0.018353
C7    C     C_R   0.540122 0.060980 0.671527 -0.026660
C8    C     C_R   0.432067 0.022629 0.303379 -0.021219
C9    C     C_R   0.674821 0.537262 0.058897 -0.012267
C10   C     C_R   0.313203 0.434957 0.002455 -0.026235
C11   C     C_R   0.051388 0.673104 0.540887 -0.012041
C12   C     C_R   0.940604 0.328533 0.460119 -0.024970
C13   C     C_R   0.442728 0.026106 0.441987 -0.001469
C14   C     C_R   0.531780 0.056725 0.532278 -0.000522
C15   C     C_R   0.967647 0.461228 0.460338 -0.000242
C16   C     C_R   0.019549 0.541943 0.542800 -0.001855
C17   C     C_R   0.451069 0.446319 0.006574 0.001909
C18   C     C_R   0.538490 0.533155 0.044506 -0.000567
C19   C     C_R   0.961089 0.179854 0.437893 0.917161
C20   C     C_R   0.037985 0.820077 0.562270 0.920305
C21   C     C_R   0.177124 0.431360 0.977504 0.937009
C22   C     C_R   0.820937 0.562101 0.037677 0.914612
C23   C     C_R   0.428632 0.990000 0.171630 0.925987
C24   C     C_R   0.563733 0.032666 0.821435 0.913700
C25   C     C_R   0.561910 0.820000 0.039528 0.925617
C26   C     C_R   0.437874 0.179907 0.962331 0.876628
C27   C     C_R   0.037102 0.562271 0.820421 0.936976
C28   C     C_R   0.961607 0.438223 0.179468 0.895952
C29   C     C_R   0.821137 0.033495 0.563464 0.909697
C30   C     C_R   0.178550 0.970646 0.434721 0.908544
C31   C     C_R   0.398491 0.009531 0.397038 0.067455
C32   C     C_R   0.580404 0.061760 0.580735 0.072653
C33   C     C_R   0.947997 0.418133 0.416289 0.066993
C34   C     C_R   0.041890 0.584227 0.585640 0.068324
C35   C     C_R   0.407248 0.403497 0.986594 0.061919
C36   C     C_R   0.583966 0.579038 0.058336 0.068266
C37   C     C_R   0.270812 0.975591 0.396093 -0.216493
C38   C     C_R   0.724232 0.046885 0.595540 -0.240402
C39   C     C_R   0.934649 0.412235 0.279121 -0.253838
C40   C     C_R   0.060815 0.588644 0.720908 -0.240607
C41   C     C_R   0.409103 0.279929 0.943381 -0.249600
C42   C     C_R   0.590379 0.718598 0.067437 -0.235435
C43   C     C_R   0.595906 0.045617 0.724736 -0.238107
C44   C     C_R   0.387856 0.002876 0.260318 -0.237607
C45   C     C_R   0.722328 0.588743 0.063330 -0.253614
C46   C     C_R   0.272036 0.396270 0.972659 -0.216507
C47   C     C_R   0.061934 0.719461 0.589680 -0.243900
C48   C     C_R   0.934888 0.280647 0.410028 -0.228286
C49   C     C_R   0.447266 0.068291 0.706844 -0.216349
C50   C     C_R   0.507453 0.056431 0.255765 -0.198157
C51   C     C_R   0.048741 0.712774 0.449238 -0.183760
C52   C     C_R   0.939861 0.289731 0.552504 -0.185476
C53   C     C_R   0.714480 0.445572 0.054580 -0.198883
C54   C     C_R   0.264684 0.504939 0.045542 -0.197388
C55   C     C_R   0.293223 0.961104 0.540681 -0.201192
C56   C     C_R   0.700757 0.085345 0.443907 -0.199087
C57   C     C_R   0.551044 0.295843 0.938997 -0.192474
C58   C     C_R   0.444753 0.700094 0.084396 -0.191348
C59   C     C_R   0.932882 0.557967 0.291388 -0.207046
C60   C     C_R   0.054096 0.445103 0.711562 -0.201015
C61   C     C_R   0.302771 0.993352 0.303113 0.352733
C62   C     C_R   0.688396 0.025627 0.688492 0.382380
C63   C     C_R   0.917954 0.327726 0.325889 0.383383
C64   C     C_R   0.080163 0.671457 0.673136 0.361642
C65   C     C_R   0.323569 0.326259 0.933214 0.363267
C66   C     C_R   0.676236 0.673579 0.079196 0.369508
C67   C     C_R   0.653042 0.081350 0.394100 0.035040
C68   C     C_R   0.328768 0.988943 0.584136 0.035289
C69   C     C_R   0.030042 0.402641 0.671500 0.033511
C70   C     C_R   0.952884 0.601835 0.333626 0.030556
C71   C     C_R   0.397354 0.653018 0.075632 0.034158
C72   C     C_R   0.594889 0.333673 0.964060 0.029768
C73   C     C_R   0.557723 0.062918 0.300732 0.029463
C74   C     C_R   0.405172 0.044087 0.667101 0.038492
C75   C     C_R   0.307604 0.556357 0.053598 0.031143
C76   C     C_R   0.676532 0.407437 0.023825 0.029788
C77   C     C_R   0.970981 0.325317 0.592676 0.030894
C78   C     C_R   0.013908 0.678597 0.411215 0.023591
C79   C     C_R   0.688891 0.091074 0.300285 -0.057865
C80   C     C_R   0.288673 0.987952 0.675803 -0.055485
C81   C     C_R   0.024397 0.311408 0.714358 -0.051951
C82   C     C_R   0.952435 0.695013 0.294221 -0.047133
C83   C     C_R   0.302990 0.687121 0.088437 -0.051978
C84   C     C_R   0.688009 0.296123 0.957868 -0.051427
C85   C     C_R   0.641810 0.080629 0.254147 -0.051685
C86   C     C_R   0.324157 0.020183 0.715716 -0.052148
C87   C     C_R   0.258408 0.638802 0.077465 -0.054099
C88   C     C_R   0.727112 0.328596 0.993897 -0.056291
C89   C     C_R   0.992004 0.274040 0.676547 -0.057462
C90   C     C_R   0.987836 0.731645 0.329938 -0.054430
C91   C     C_R   0.523290 0.050877 0.394149 0.009441
C92   C     C_R   0.447433 0.040010 0.577950 0.008455
C93   C     C_R   0.983678 0.412829 0.546558 0.008886
C94   C     C_R   0.002059 0.590815 0.457216 0.009033
C95   C     C_R   0.401510 0.524861 0.036846 0.012199
C96   C     C_R   0.586575 0.450508 0.021236 0.009926
C97   C     C_R   0.569651 0.062605 0.440123 0.011153
C98   C     C_R   0.405792 0.019100 0.534537 0.008832
C99   C     C_R   0.445833 0.570936 0.051461 0.008323
C100  C     C_R   0.544182 0.409997 0.997406 0.007201
C101  C     C_R   0.010440 0.452677 0.587300 0.009979
C102  C     C_R   0.974920 0.551085 0.416681 0.010532
H1    H     H_    0.406771 0.089953 0.766130 0.186463
H2    H     H_    0.525957 0.082451 0.182953 0.187395
H3    H     H_    0.075648 0.769365 0.405016 0.185121
H4    H     H_    0.913553 0.232377 0.595049 0.181462
H5    H     H_    0.774129 0.401411 0.076348 0.174550
H6    H     H_    0.193330 0.519447 0.076138 0.188565
H7    H     H_    0.244614 0.924058 0.582413 0.173442
H8    H     H_    0.762263 0.103312 0.407205 0.185860
H9    H     H_    0.590996 0.243290 0.905636 0.179058
H10   H     H_    0.407026 0.760203 0.107204 0.181846
H11   H     H_    0.911300 0.599036 0.230866 0.172084
H12   H     H_    0.077230 0.402597 0.770917 0.180696
O1    O     O_R   0.982940 0.138950 0.510160 -0.648444
O2    O     O_R   0.017060 0.861050 0.489840 -0.645247
O3    O     O_R   0.138950 0.510160 0.982940 -0.663588
O4    O     O_R   0.861050 0.489840 0.017060 -0.646900
O5    O     O_R   0.510160 0.982940 0.138950 -0.664258
O6    O     O_R   0.489840 0.017060 0.861050 -0.648960
O7    O     O_R   0.489840 0.861050 0.017060 -0.634568
O8    O     O_R   0.510160 0.138950 0.982940 -0.651634
O9    O     O_R   0.017060 0.489840 0.861050 -0.642280
O10   O     O_R   0.982940 0.510160 0.138950 -0.650627
O11   O     O_R   0.861050 0.017060 0.489840 -0.646566
O12   O     O_R   0.138950 0.982940 0.510160 -0.647815
O13   O     O_R   0.867700 0.025880 0.612340 -0.571651
O14   O     O_R   0.132300 0.974120 0.387660 -0.579537
O15   O     O_R   0.025880 0.612340 0.867700 -0.578290
O16   O     O_R   0.974120 0.387660 0.132300 -0.602292
O17   O     O_R   0.612340 0.867700 0.025880 -0.591434
O18   O     O_R   0.387660 0.132300 0.974120 -0.599080
O19   O     O_R   0.387660 0.974120 0.132300 -0.581218
O20   O     O_R   0.612340 0.025880 0.867700 -0.573858
O21   O     O_R   0.132300 0.387660 0.974120 -0.586044
O22   O     O_R   0.867700 0.612340 0.025880 -0.581617
O23   O     O_R   0.974120 0.132300 0.387660 -0.578225
O24   O     O_R   0.025880 0.867700 0.612340 -0.588314
Zn1   Zn    Zn3+2 0.004880 0.004880 0.583590 0.989672
Zn2   Zn    Zn3+2 0.995120 0.995120 0.416410 0.989300
Zn3   Zn    Zn3+2 0.004880 0.583590 0.004880 0.976993
Zn4   Zn    Zn3+2 0.995120 0.416410 0.995120 0.970226
Zn5   Zn    Zn3+2 0.583590 0.004880 0.004880 0.975084
Zn6   Zn    Zn3+2 0.416410 0.995120 0.995120 0.977681
O25   O     O_3   0.253159 0.993403 0.254328 -0.592575
C103  C     C_3   0.209949 0.085118 0.209914 0.137840
H13   H     H_    0.259794 0.122812 0.161707 0.119833
H14   H     H_    0.163090 0.123119 0.259846 0.132303
C104  C     C_3   0.156291 0.081964 0.157244 -0.304082
H15   H     H_    0.202432 0.042571 0.108521 0.238721
H16   H     H_    0.105007 0.046205 0.205109 0.239231
C105  C     C_3   0.109289 0.178149 0.105355 -0.843726
H17   H     H_    0.062610 0.218118 0.153154 0.291306
H18   H     H_    0.070115 0.173578 0.068758 0.268462
H19   H     H_    0.159945 0.213579 0.055336 0.288231
O26   O     O_3   0.744901 0.981252 0.745308 -0.573854
C106  C     C_3   0.761204 0.884898 0.770736 0.109305
H20   H     H_    0.808345 0.857906 0.713062 0.128410
H21   H     H_    0.697882 0.866704 0.792196 0.087792
C107  C     C_3   0.801395 0.837059 0.851566 -0.347339
H22   H     H_    0.759334 0.870852 0.905245 0.273636
H23   H     H_    0.801559 0.763958 0.879587 0.186386
C108  C     C_3   0.897251 0.840085 0.825582 -0.652016
H24   H     H_    0.941172 0.801243 0.776437 0.274696
H25   H     H_    0.922481 0.807343 0.886723 0.237747
H26   H     H_    0.899876 0.912261 0.795487 0.275114
O27   O     O_3   0.897056 0.284540 0.285292 -0.614532
C109  C     C_3   0.808071 0.330009 0.276636 0.138969
H27   H     H_    0.799034 0.300420 0.233919 0.175582
H28   H     H_    0.796721 0.404985 0.240329 0.093271
C110  C     C_3   0.737510 0.315027 0.368875 -0.414840
H29   H     H_    0.757473 0.242262 0.410706 0.225872
H30   H     H_    0.734046 0.359010 0.405386 0.207196
C111  C     C_3   0.644477 0.339146 0.357785 -0.924378
H31   H     H_    0.623056 0.412257 0.316848 0.261132
H32   H     H_    0.594975 0.328663 0.425421 0.268863
H33   H     H_    0.645347 0.294149 0.323892 0.268130
O28   O     O_3   0.105073 0.711443 0.713424 -0.622114
C112  C     C_3   0.199945 0.691507 0.685924 0.100823
H34   H     H_    0.215458 0.752132 0.680921 0.164451
H35   H     H_    0.232038 0.681015 0.617541 0.108615
C113  C     C_3   0.241340 0.607720 0.756945 -0.328032
H36   H     H_    0.210667 0.620874 0.823699 0.257390
H37   H     H_    0.227185 0.546015 0.762720 0.196104
C114  C     C_3   0.342979 0.587873 0.732366 -0.968283
H38   H     H_    0.375481 0.572695 0.666571 0.261310
H39   H     H_    0.370329 0.527097 0.785455 0.269327
H40   H     H_    0.359266 0.647814 0.727817 0.271527
O29   O     O_3   0.286813 0.298138 0.892441 -0.611250
C115  C     C_3   0.337756 0.305991 0.801040 0.088162
H41   H     H_    0.391557 0.240011 0.797077 0.141143
H42   H     H_    0.369416 0.362844 0.770185 0.123358
C116  C     C_3   0.275630 0.326397 0.745427 -0.322022
H43   H     H_    0.241972 0.271747 0.774865 0.238877
H44   H     H_    0.223763 0.393499 0.748143 0.213000
C117  C     C_3   0.326748 0.332105 0.646668 -0.964747
H45   H     H_    0.358448 0.388448 0.615210 0.263569
H46   H     H_    0.279207 0.346599 0.608801 0.275090
H47   H     H_    0.379656 0.266046 0.641652 0.270182
O30   O     O_3   0.719757 0.718164 0.094218 -0.608781
C118  C     C_3   0.709477 0.692771 0.188184 0.087472
H48   H     H_    0.775589 0.680342 0.196501 0.165433
H49   H     H_    0.690438 0.627766 0.228896 0.097950
C119  C     C_3   0.641106 0.771840 0.225810 -0.293096
H50   H     H_    0.660267 0.836176 0.184162 0.259219
H51   H     H_    0.573281 0.782352 0.222275 0.204426
C120  C     C_3   0.637123 0.752176 0.323890 -0.958848
H52   H     H_    0.616780 0.688848 0.367360 0.261275
H53   H     H_    0.586912 0.810893 0.348759 0.276655
H54   H     H_    0.703837 0.743287 0.328955 0.268947
C121  C     C_1   0.281008 0.021588 0.808889 0.175240
N1    N     N_1   0.246830 0.022563 0.883165 -0.182658
C122  C     C_1   0.685098 0.076799 0.161940 0.167926
N2    N     N_1   0.719937 0.071950 0.089019 -0.186661
C123  C     C_1   0.991617 0.825857 0.286067 0.185831
N3    N     N_1   0.994526 0.900948 0.251219 -0.184300
C124  C     C_1   0.986038 0.180640 0.721323 0.183992
N4    N     N_1   0.981394 0.106183 0.756749 -0.171000
C125  C     C_1   0.820305 0.283300 0.996071 0.177258
N5    N     N_1   0.894427 0.247133 0.998411 -0.181168
C126  C     C_1   0.163751 0.679388 0.080739 0.168882
N6    N     N_1   0.088639 0.711909 0.081783 -0.191481
C127  C     C_1   0.210260 0.955543 0.728942 0.162807
N7    N     N_1   0.148059 0.929265 0.771352 -0.179802
C128  C     C_1   0.775504 0.108355 0.251378 0.156258
N8    N     N_1   0.844572 0.121972 0.212537 -0.177941
C129  C     C_1   0.743849 0.224538 0.914566 0.179878
N9    N     N_1   0.788102 0.167535 0.879903 -0.173633
C130  C     C_1   0.251427 0.772473 0.111292 0.168619
N10   N     N_1   0.210416 0.840505 0.129449 -0.187833
C131  C     C_1   0.912634 0.754499 0.219536 0.167427
N11   N     N_1   0.880547 0.802092 0.160309 -0.182893
C132  C     C_1   0.052821 0.255026 0.796506 0.161050
N12   N     N_1   0.076082 0.209973 0.861595 -0.180422

loop_
_geom_bond_atom_site_label_1
_geom_bond_atom_site_label_2
_ccdc_geom_bond_type
O18   Zn6   S    
C83   C87   A    
C82   C131  S    
C30   O12   A    
C9    C45   A    
C106  H20   S    
C29   O11   A    
C18   C96   A    
C118  H48   S    
C6    C58   A    
C55   H7    S    
C11   C47   A    
C108  H24   S    
O6    Zn6   S    
C12   C48   A    
C72   C100  A    
O28   C112  S    
C75   C95   A    
C5    C57   A    
C122  N2    T    
C78   C90   A    
C50   H2    S    
C65   O29   S    
C110  H30   S    
C77   C89   A    
C130  N10   T    
C67   C97   A    
C58   H10   S    
C87   C126  S    
C17   C35   A    
O26   C106  S    
C108  H25   S    
C21   C46   S    
C15   C33   A    
C104  H16   S    
C23   O5    A    
C95   C99   A    
C58   C71   A    
C114  H39   S    
O15   Zn3   S    
C3    C33   A    
C74   C92   A    
C96   C100  A    
C1    C31   A    
O5    Zn5   S    
C2    C32   A    
C20   O24   A    
C13   C98   A    
C129  N9    T    
C2    C38   A    
C111  H31   S    
C21   O3    A    
C115  C116  S    
C16   C34   A    
O20   Zn5   S    
C113  H36   S    
C60   H12   S    
C109  C110  S    
C4    C40   A    
C6    C36   A    
O30   C118  S    
C116  H44   S    
C29   C38   S    
C10   C46   A    
C9    C36   A    
C80   C86   A    
C119  C120  S    
C10   C35   A    
C17   C95   A    
C7    C43   A    
C132  N12   T    
C76   C88   A    
C71   C83   A    
C19   O23   A    
C112  C113  S    
C81   C89   A    
C109  H28   S    
C52   H4    S    
C106  H21   S    
C13   C91   A    
C45   C66   A    
C118  H49   S    
O7    Zn6   S    
O13   Zn1   S    
O8    Zn5   S    
C117  H47   S    
C10   C54   A    
O17   Zn5   S    
C56   H8    S    
C90   C123  S    
C12   C52   A    
O27   C109  S    
O25   C103  S    
C103  H14   S    
O21   Zn4   S    
O11   Zn2   S    
C110  C111  S    
C30   O14   A    
O12   Zn1   S    
C24   O6    A    
C21   O21   A    
C23   O19   A    
C92   C98   A    
C120  H52   S    
C107  C108  S    
C84   C88   A    
C108  H26   S    
C67   C79   A    
C86   C121  S    
C7    C49   A    
C46   C65   A    
C117  H46   S    
C50   C73   A    
C93   C101  A    
C47   C64   A    
C20   O2    A    
C27   O9    A    
C57   C72   A    
C114  H40   S    
C41   C65   A    
C83   C130  S    
C28   C39   S    
O4    Zn4   S    
C124  N4    T    
C38   C62   A    
C71   C99   A    
C91   C97   A    
C127  N7    T    
C112  H34   S    
C30   C37   S    
C22   O22   A    
C5    C41   A    
C113  C114  S    
C107  H23   S    
O3    Zn3   S    
C123  N3    T    
C115  H41   S    
C49   H1    S    
C126  N6    T    
C85   C122  S    
C120  H54   S    
C103  C104  S    
C64   O28   S    
C53   H5    S    
C121  N1    T    
C61   O25   S    
C105  H19   S    
C19   O1    A    
C27   C40   S    
C59   H11   S    
C116  C117  S    
C14   C92   A    
C4    C60   A    
C70   C102  A    
C128  N8    T    
C111  H32   S    
C26   C41   S    
C74   C86   A    
C110  H29   S    
C73   C91   A    
C72   C84   A    
C111  H33   S    
C69   C81   A    
C75   C87   A    
C109  H27   S    
C105  H18   S    
C106  C107  S    
C29   O13   A    
C27   O15   A    
C118  C119  S    
C81   C132  S    
O10   Zn3   S    
C104  C105  S    
C53   C76   A    
C9    C53   A    
C18   C99   A    
C68   C80   A    
C25   O17   A    
C8    C50   A    
C79   C85   A    
C26   O18   A    
C77   C93   A    
C14   C97   A    
C120  H53   S    
C103  H13   S    
C73   C85   A    
C24   O20   A    
C125  N5    T    
C22   O4    A    
O19   Zn6   S    
C115  H42   S    
C7    C32   A    
C113  H37   S    
C19   C48   S    
C55   C68   A    
C13   C31   A    
C11   C34   A    
C15   C102  A    
C8    C44   A    
C119  H51   S    
C117  H45   S    
C48   C63   A    
C82   C90   A    
C25   C42   S    
C15   C93   A    
C37   C61   A    
C28   O10   A    
C69   C101  A    
C44   C61   A    
C56   C67   A    
C39   C63   A    
C16   C94   A    
C3    C39   A    
C40   C64   A    
C88   C125  S    
C54   H6    S    
C107  H22   S    
O14   Zn2   S    
C51   C78   A    
C2    C56   A    
C104  H15   S    
C76   C96   A    
C80   C127  S    
C114  H38   S    
C57   H9    S    
C25   O7    A    
C60   C69   A    
C78   C94   A    
O23   Zn2   S    
C5    C35   A    
O9    Zn4   S    
C63   O27   S    
O22   Zn3   S    
C62   O26   S    
C28   O16   A    
C4    C34   A    
C1    C55   A    
O29   C115  S    
C70   C82   A    
C17   C100  A    
C68   C98   A    
C51   H3    S    
C20   C47   S    
C11   C51   A    
O24   Zn1   S    
C23   C44   S    
C59   C70   A    
C89   C124  S    
C54   C75   A    
C16   C101  A    
C22   C45   S    
C14   C32   A    
C119  H50   S    
C94   C102  A    
C116  H43   S    
C6    C42   A    
C131  N11   T    
C42   C66   A    
C24   C43   S    
C49   C74   A    
O16   Zn4   S    
C105  H17   S    
C26   O8    A    
O2    Zn2   S    
C12   C33   A    
O1    Zn1   S    
C84   C129  S    
C18   C36   A    
C79   C128  S    
C66   O30   S    
C8    C31   A    
C52   C77   A    
C43   C62   A    
C1    C37   A    
C112  H35   S    
C3    C59   A    
