data_mof_unit_16596.cif
_audit_creation_date              2012-12-10T17:05:24-0500
_audit_creation_method            fapswitch 2.2
_symmetry_space_group_name_H-M    P1
_symmetry_Int_Tables_number       1
_space_group_crystal_system       triclinic
_cell_length_a                    10.053242
_cell_length_b                    10.679785
_cell_length_c                    15.480968
_cell_angle_alpha                 90.575171
_cell_angle_beta                  67.909955
_cell_angle_gamma                 89.886925
_cell_volume                      1540.01869892

loop_
_atom_site_label
_atom_site_type_symbol
_atom_type_description
_atom_site_fract_x
_atom_site_fract_y
_atom_site_fract_z
_atom_type_partial_charge
C1    C     C_R   0.499139 0.737790 0.501928 0.943371
C2    C     C_R   0.704874 0.387958 0.042444 0.144775
C3    C     C_R   0.570610 0.445798 0.092124 0.090807
C4    C     C_R   0.410106 0.498394 0.675944 0.878996
C5    C     C_R   0.807677 0.377820 0.083413 -0.204169
C6    C     C_R   0.776033 0.421358 0.174300 -0.225259
C7    C     C_R   0.547787 0.499603 0.179168 -0.244453
C8    C     C_2   0.621788 0.066574 0.478844 -0.227575
C9    C     C_2   0.525729 0.134978 0.458075 0.021341
C10   C     C_2   0.623371 0.932016 0.474817 -0.169896
C11   C     C_2   0.498912 0.870920 0.505885 -0.369177
C12   C     C_R   0.402339 0.443705 0.916278 0.090704
C13   C     C_2   0.090365 0.405636 0.473363 -0.156078
C14   C     C_2   0.952657 0.416178 0.456331 0.186248
C15   C     C_R   0.505467 0.263085 0.490667 0.909352
C16   C     C_R   0.589918 0.499210 0.323942 0.855713
C17   C     C_R   0.353539 0.487690 0.777249 -0.078745
C18   C     C_R   0.643834 0.479701 0.223068 -0.056022
C19   C     C_R   0.161806 0.507113 0.928411 -0.220038
C20   C     C_R   0.208412 0.509213 0.831563 -0.201467
C21   C     C_R   0.448685 0.455445 0.819826 -0.226629
C22   C     C_3   0.447032 0.088336 0.396453 -0.406808
C23   C     C_R   0.259203 0.479366 0.970992 0.174091
C24   C     C_3   0.480041 0.168449 0.309565 -0.862091
C25   C     C_3   0.933507 0.321342 0.388828 -0.346424
C26   C     C_3   0.052599 0.330598 0.292617 -0.939471
C27   C     C_3   0.571976 0.162852 0.840396 -0.773300
C28   C     C_R   0.499432 0.411417 0.959598 0.020758
C29   C     C_R   0.463203 0.448486 0.053726 0.030522
C30   C     C_R   0.319520 0.484003 0.107140 -0.212739
C31   C     C_R   0.217792 0.493774 0.066824 -0.243702
C32   C     C_R   0.630901 0.344723 0.912946 0.186454
C33   C     C_R   0.732546 0.336416 0.954389 -0.313022
H1    H     H_    0.108730 0.520838 0.109830 0.146759
H2    H     H_    0.851531 0.404653 0.207526 0.162251
H3    H     H_    0.832502 0.286421 0.918385 0.149055
H4    H     H_    0.051441 0.532051 0.969844 0.150255
H5    H     H_    0.132924 0.533314 0.799529 0.159817
H6    H     H_    0.561416 0.447426 0.777256 0.190198
H7    H     H_    0.281654 0.501524 0.181090 0.152717
H8    H     H_    0.429297 0.262162 0.328259 0.273753
H9    H     H_    0.597856 0.178889 0.272646 0.262479
H10   H     H_    0.435869 0.122918 0.261361 0.247900
H11   H     H_    0.478675 0.991416 0.370478 0.235886
H12   H     H_    0.909728 0.331439 0.046751 0.144076
H13   H     H_    0.329437 0.089499 0.437244 0.200255
H14   H     H_    0.052354 0.426316 0.265622 0.260804
H15   H     H_    0.159326 0.309693 0.295139 0.268003
H16   H     H_    0.033039 0.262366 0.244143 0.255792
H17   H     H_    0.933105 0.225553 0.416275 0.181191
H18   H     H_    0.832419 0.335498 0.378579 0.264477
H19   H     H_    0.763929 0.259637 0.789144 0.223870
H20   H     H_    0.594151 0.118559 0.771110 0.235530
H21   H     H_    0.455506 0.185247 0.872284 0.252356
H22   H     H_    0.600113 0.095285 0.885093 0.239766
H23   H     H_    0.689810 0.108349 0.511608 0.156253
H24   H     H_    0.726356 0.883886 0.452610 0.179913
H25   H     H_    0.396045 0.919529 0.532301 0.154244
H26   H     H_    0.149683 0.317932 0.455705 0.171908
H27   H     H_    0.097444 0.584151 0.506875 0.158616
H28   H     H_    0.869015 0.554288 0.548678 0.143095
H29   H     H_    0.453019 0.554730 0.216067 0.151728
N1    N     N_2   0.148330 0.498670 0.499030 -0.206253
N2    N     N_2   0.852680 0.498640 0.499000 -0.216319
N3    N     N_2   0.656836 0.275198 0.828990 -0.320435
O1    O     O_R   0.386950 0.680940 0.500010 -0.617210
O2    O     O_R   0.613110 0.680900 0.499990 -0.605756
O3    O     O_R   0.322330 0.500030 0.632270 -0.606460
O4    O     O_R   0.548480 0.499990 0.632240 -0.612711
O5    O     O_R   0.386890 0.319100 0.500010 -0.609148
O6    O     O_R   0.613050 0.319060 0.499990 -0.647192
O7    O     O_R   0.451520 0.500010 0.367760 -0.611640
O8    O     O_R   0.677670 0.499970 0.367730 -0.622817
Zn1   Zn    Zn3+2 0.349000 0.500030 0.500020 0.926258
Zn2   Zn    Zn3+2 0.651000 0.499970 0.499980 0.920668

loop_
_geom_bond_atom_site_label_1
_geom_bond_atom_site_label_2
_ccdc_geom_bond_type
C24   H10   S    
O5    Zn1   S    
H28   N2    S    
C19   C23   A    
C17   C21   A    
C25   H18   S    
C7    H29   S    
C33   H3    S    
C29   C30   A    
C27   N3    S    
N1    Zn1   S    
C11   H25   S    
C20   H5    S    
C1    C11   S    
C27   H22   S    
C19   C20   A    
C16   O7    A    
C15   O6    A    
C26   H15   S    
C7    C18   A    
C14   N2    D    
C32   C33   A    
C8    H23   S    
C27   H20   S    
C1    O1    A    
C9    C15   S    
C27   H21   S    
C30   H7    S    
C13   C14   S    
O6    Zn2   S    
C24   H8    S    
O8    Zn2   S    
C12   C23   A    
C5    C6    A    
C26   H14   S    
C12   C28   A    
H27   N1    S    
C13   H26   S    
C4    C17   S    
C2    C33   A    
C8    C10   S    
C4    O4    A    
C1    O2    A    
N2    Zn2   S    
O4    Zn2   S    
C3    C7    A    
C10   H24   S    
C14   C25   S    
C30   C31   A    
C6    C18   A    
C22   C24   S    
C9    C22   S    
C31   H1    S    
C2    C5    A    
O2    Zn2   S    
C10   C11   D    
H19   N3    S    
O3    Zn1   S    
C16   O8    A    
O1    Zn1   S    
C28   C32   A    
C17   C20   A    
C24   H9    S    
C6    H2    S    
C8    C9    D    
C16   C18   S    
C26   H16   S    
C3    C29   A    
C15   O5    A    
C25   H17   S    
C28   C29   A    
O7    Zn1   S    
C2    C3    A    
C21   H6    S    
C19   H4    S    
C22   H13   S    
C25   C26   S    
C5    H12   S    
C12   C21   A    
C22   H11   S    
C4    O3    A    
C23   C31   A    
C32   N3    S    
C13   N1    D    
