data_mof_unit_42041.cif
_audit_creation_date              2012-12-10T16:56:36-0500
_audit_creation_method            fapswitch 2.2
_symmetry_space_group_name_H-M    P1
_symmetry_Int_Tables_number       1
_space_group_crystal_system       triclinic
_cell_length_a                    7.744067
_cell_length_b                    8.666427
_cell_length_c                    15.693979
_cell_angle_alpha                 90.910048
_cell_angle_beta                  85.930467
_cell_angle_gamma                 93.66635
_cell_volume                      1048.40214017

loop_
_atom_site_label
_atom_site_type_symbol
_atom_type_description
_atom_site_fract_x
_atom_site_fract_y
_atom_site_fract_z
_atom_type_partial_charge
C1    C     C_R   0.544384 0.794051 0.492742 0.892250
C2    C     C_3   0.389313 0.384269 0.029952 -0.168901
C3    C     C_1   0.506669 0.499546 0.750874 -0.190118
C4    C     C_1   0.493358 0.500299 0.249142 -0.189626
C5    C     C_3   0.340278 0.520212 0.975700 -0.164563
C6    C     C_3   0.659859 0.479504 0.024336 -0.164874
C7    C     C_3   0.504276 0.499546 0.917257 0.214932
C8    C     C_3   0.495860 0.500171 0.082774 0.214919
C9    C     C_1   0.507224 0.499396 0.826244 -0.087998
C10   C     C_1   0.492862 0.500371 0.173778 -0.089753
C11   C     C_3   0.751821 0.038692 0.353679 -0.750301
C12   C     C_R   0.453906 0.206032 0.497667 0.936242
C13   C     C_3   0.168609 0.974117 0.586405 -0.727427
C14   C     C_R   0.502251 0.500028 0.662050 0.905909
C15   C     C_R   0.497746 0.499910 0.337949 0.889565
C16   C     C_2   0.564323 0.955091 0.476146 -0.060890
C17   C     C_2   0.425091 0.044090 0.490681 -0.035375
C18   C     C_3   0.446814 0.636118 0.030344 -0.166728
C19   C     C_3   0.553324 0.363597 0.969691 -0.166109
C20   C     C_3   0.610824 0.615447 0.970084 -0.168617
H1    H     H_    0.403068 0.747363 0.057377 0.129371
H2    H     H_    0.881656 0.095440 0.335728 0.230230
H3    H     H_    0.651830 0.113916 0.333151 0.238339
H4    H     H_    0.739699 0.925112 0.320000 0.224124
H5    H     H_    0.202954 0.907320 0.455458 0.248577
H6    H     H_    0.029908 0.933791 0.584916 0.213379
H7    H     H_    0.175915 0.088294 0.619469 0.245367
H8    H     H_    0.235289 0.890433 0.623331 0.242839
H9    H     H_    0.597078 0.252349 0.942669 0.129969
H10   H     H_    0.790390 0.462906 0.046455 0.130615
H11   H     H_    0.209737 0.536808 0.953594 0.130640
H12   H     H_    0.013811 0.382057 0.436936 0.201062
H13   H     H_    0.986150 0.617859 0.563088 0.190418
H14   H     H_    0.701534 0.709740 0.943377 0.129249
H15   H     H_    0.298609 0.289981 0.056669 0.128767
H16   H     H_    0.835541 0.963750 0.467519 0.240941
N1    N     N_2   0.950320 0.457950 0.477300 -0.164737
N2    N     N_2   0.049680 0.542050 0.522700 -0.176154
N3    N     N_2   0.732707 0.017057 0.445145 -0.278071
N4    N     N_2   0.246909 0.986646 0.499918 -0.300239
O1    O     O_R   0.389250 0.738570 0.505570 -0.621347
O2    O     O_R   0.610750 0.261430 0.494430 -0.591453
O3    O     O_R   0.678390 0.711630 0.491020 -0.636822
O4    O     O_R   0.321610 0.288370 0.508980 -0.616332
O5    O     O_R   0.355460 0.513480 0.630490 -0.614380
O6    O     O_R   0.644540 0.486520 0.369510 -0.613504
O7    O     O_R   0.644600 0.486540 0.615950 -0.619443
O8    O     O_R   0.355400 0.513460 0.384050 -0.627958
Zn1   Zn    Zn3+2 0.306940 0.517990 0.509710 0.935331
Zn2   Zn    Zn3+2 0.693060 0.482010 0.490290 0.948687

loop_
_geom_bond_atom_site_label_1
_geom_bond_atom_site_label_2
_ccdc_geom_bond_type
C12   C17   S    
C2    H15   S    
C12   O2    A    
C5    C7    S    
C13   H8    S    
C14   O7    A    
C3    C9    T    
O7    Zn2   S    
C18   H1    S    
C6    C20   S    
O6    Zn2   S    
C11   H2    S    
C18   C20   S    
H13   N2    S    
O5    Zn1   S    
C20   H14   S    
C4    C15   S    
C12   O4    A    
C1    C16   S    
H12   N1    S    
C11   N3    S    
N1    Zn2   S    
N1    N2    D    
C3    C14   S    
C15   O8    A    
O2    Zn2   S    
O1    Zn1   S    
O8    Zn1   S    
C6    H10   S    
C6    C19   S    
C14   O5    A    
C7    C19   S    
H16   N3    S    
H5    N4    S    
C2    C8    S    
C13   H6    S    
C2    C5    S    
C16   N3    S    
C4    C10   T    
C19   H9    S    
O3    Zn2   S    
C11   H4    S    
N2    Zn1   S    
C8    C10   S    
C7    C20   S    
C1    O1    A    
C11   H3    S    
C7    C9    S    
C13   H7    S    
C13   N4    S    
C6    C8    S    
C5    C18   S    
C15   O6    A    
C2    C19   S    
C1    O3    A    
O4    Zn1   S    
C8    C18   S    
C16   C17   D    
C5    H11   S    
C17   N4    S    
