data_mof_unit_36584.cif
_audit_creation_date              2012-12-11T15:12:44-0500
_audit_creation_method            fapswitch 2.2
_symmetry_space_group_name_H-M    P1
_symmetry_Int_Tables_number       1
_space_group_crystal_system       triclinic
_cell_length_a                    22.301727
_cell_length_b                    6.953082
_cell_length_c                    19.396831
_cell_angle_alpha                 89.996564
_cell_angle_beta                  99.183065
_cell_angle_gamma                 89.999128
_cell_volume                      2969.2345524

loop_
_atom_site_label
_atom_site_type_symbol
_atom_type_description
_atom_site_fract_x
_atom_site_fract_y
_atom_site_fract_z
_atom_type_partial_charge
O1    O     O_R   0.448420 0.506120 0.415750 -0.535084
O2    O     O_R   0.551580 0.006120 0.584250 -0.535089
O3    O     O_R   0.436490 0.174470 0.555610 -0.537017
O4    O     O_R   0.563510 0.674470 0.444390 -0.537016
C1    C     C_R   0.421053 0.344449 0.575680 0.718681
C2    C     C_R   0.578947 0.844453 0.424320 0.718691
O5    O     O_R   0.441310 0.176330 0.414520 -0.536615
O6    O     O_R   0.558690 0.676330 0.585480 -0.536619
O7    O     O_R   0.556430 0.007110 0.442150 -0.535545
O8    O     O_R   0.443570 0.507110 0.557850 -0.535537
C3    C     C_R   0.427017 0.344896 0.388243 0.686132
C4    C     C_R   0.572983 0.844882 0.611758 0.686122
O9    O     O_3   0.537770 0.339560 0.509230 -0.365880
O10   O     O_3   0.462230 0.839560 0.490770 -0.365872
V1    V     V_3+5 0.492990 0.064280 0.498290 1.428905
V2    V     V_3+5 0.507010 0.564280 0.501710 1.428910
C5    C     C_R   0.866316 0.992941 0.696451 -0.162236
C6    C     C_R   0.133649 0.492367 0.303572 -0.162227
H1    H     H_    0.953371 0.022515 0.760399 0.095772
H2    H     H_    0.046586 0.521876 0.239623 0.095775
H3    H     H_    0.783689 0.995107 0.582117 0.120286
H4    H     H_    0.216265 0.494321 0.417917 0.120284
H5    H     H_    0.884326 0.028076 0.649294 0.107397
H6    H     H_    0.115622 0.527228 0.350741 0.107397
C7    C     C_R   0.884515 0.942620 0.821489 -0.037856
C8    C     C_R   0.115480 0.442546 0.178510 -0.037820
C9    C     C_R   0.590090 0.808733 0.739527 -0.158733
C10   C     C_R   0.409929 0.309107 0.260463 -0.158752
C11   C     C_R   0.626941 0.802660 0.804429 -0.116002
C12   C     C_R   0.373086 0.303177 0.195554 -0.115997
C13   C     C_R   0.689196 0.836129 0.810613 -0.157068
C14   C     C_R   0.310823 0.336508 0.189374 -0.157065
C15   C     C_R   0.716543 0.877630 0.751315 0.076943
C16   C     C_R   0.283460 0.377718 0.248683 0.076941
C17   C     C_R   0.678106 0.886145 0.684653 0.069740
C18   C     C_R   0.321886 0.386065 0.315353 0.069736
C19   C     C_R   0.780619 0.910907 0.755946 0.073344
C20   C     C_R   0.219376 0.410861 0.244055 0.073350
C21   C     C_R   0.804186 0.954931 0.693877 0.142660
C22   C     C_R   0.195790 0.454549 0.306139 0.142656
C23   C     C_R   0.765716 0.962197 0.629501 -0.204423
C24   C     C_R   0.234251 0.461659 0.370523 -0.204409
C25   C     C_R   0.703832 0.927764 0.624817 -0.195281
C26   C     C_R   0.296144 0.427381 0.375201 -0.195246
C27   C     C_R   0.822364 0.903392 0.819754 -0.214728
C28   C     C_R   0.177643 0.403520 0.180237 -0.214722
C29   C     C_R   0.905881 0.988793 0.759692 -0.173028
C30   C     C_R   0.094090 0.488350 0.240324 -0.173059
C31   C     C_R   0.614647 0.850744 0.679294 -0.085454
C32   C     C_R   0.385354 0.350815 0.320707 -0.085433
H7    H     H_    0.808095 0.870728 0.868970 0.093951
H8    H     H_    0.191927 0.371121 0.131009 0.093921
H9    H     H_    0.541953 0.779747 0.736197 0.107166
H10   H     H_    0.458073 0.280253 0.263788 0.107159
H11   H     H_    0.714620 0.828436 0.862621 0.108351
H12   H     H_    0.285406 0.328941 0.137360 0.108347
H13   H     H_    0.607074 0.770455 0.850532 0.122102
H14   H     H_    0.392965 0.271200 0.149442 0.122098
H15   H     H_    0.676157 0.934865 0.573663 0.109813
H16   H     H_    0.323813 0.434353 0.426362 0.109757
C33   C     C_3   0.815537 0.772500 0.270011 0.431951
C34   C     C_3   0.184439 0.272679 0.729967 0.431866
C35   C     C_3   0.777859 0.107587 0.238550 -0.406931
C36   C     C_3   0.222194 0.607628 0.761505 -0.406796
C37   C     C_3   0.731767 0.085977 0.290140 -0.462588
C38   C     C_3   0.268284 0.586011 0.709913 -0.462603
H17   H     H_    0.789671 0.824110 0.372602 0.018360
H18   H     H_    0.210324 0.324396 0.627389 0.018370
H19   H     H_    0.856977 0.839600 0.300752 -0.044389
H20   H     H_    0.143018 0.339936 0.699237 -0.044379
H21   H     H_    0.759683 0.209240 0.196013 0.220327
H22   H     H_    0.240387 0.709179 0.804064 0.220281
H23   H     H_    0.820585 0.171089 0.266832 0.196810
H24   H     H_    0.179485 0.671260 0.733229 0.196905
H25   H     H_    0.754678 0.129530 0.343089 0.187448
H26   H     H_    0.245385 0.629706 0.656972 0.187523
H27   H     H_    0.694862 0.192512 0.278426 0.201337
H28   H     H_    0.305213 0.692450 0.721651 0.201247
C39   C     C_1   0.624908 0.853005 0.379146 -0.190571
C40   C     C_1   0.375092 0.352990 0.620855 -0.190565
C41   C     C_3   0.791417 0.909896 0.207607 0.019911
C42   C     C_3   0.208592 0.409910 0.792404 0.019842
C43   C     C_3   0.768306 0.757490 0.322148 0.226949
C44   C     C_3   0.231671 0.257650 0.677830 0.226980
C45   C     C_3   0.709071 0.873435 0.292916 0.011554
C46   C     C_3   0.290932 0.373425 0.707089 0.011535
C47   C     C_3   0.683386 0.791249 0.217123 0.749549
C48   C     C_3   0.316597 0.291052 0.782863 0.749561
C49   C     C_3   0.730631 0.830880 0.166976 -0.309561
C50   C     C_3   0.269359 0.330686 0.833017 -0.309560
C51   C     C_1   0.662960 0.860970 0.340776 -0.054533
C52   C     C_1   0.337041 0.360954 0.659227 -0.054531
C53   C     C_1   0.836984 0.929656 0.159366 -0.027670
C54   C     C_1   0.163030 0.429683 0.840650 -0.027703
C55   C     C_1   0.874798 0.940528 0.120715 -0.215121
C56   C     C_1   0.125214 0.440546 0.879300 -0.215030
H29   H     H_    0.739870 0.696095 0.139440 0.186938
H30   H     H_    0.260087 0.195866 0.860518 0.186907
H31   H     H_    0.712394 0.932279 0.124558 0.115392
H32   H     H_    0.287618 0.431963 0.875462 0.115396
O11   O     O_R   0.056480 0.288780 0.942210 -0.536746
O12   O     O_R   0.943520 0.788780 0.057790 -0.536790
O13   O     O_R   0.058700 0.616820 0.085490 -0.536503
O14   O     O_R   0.941300 0.116820 0.914510 -0.536506
C57   C     C_R   0.073096 0.448558 0.111767 0.691763
C58   C     C_R   0.926902 0.948572 0.888233 0.691737
O15   O     O_R   0.063520 0.618570 0.944410 -0.535551
O16   O     O_R   0.936480 0.118570 0.055590 -0.535546
O17   O     O_R   0.948420 0.787670 0.915740 -0.535884
O18   O     O_R   0.051580 0.287670 0.084260 -0.535895
C59   C     C_R   0.079188 0.449911 0.924387 0.728512
C60   C     C_R   0.920817 0.949907 0.075618 0.728514
O19   O     O_3   0.962260 0.453430 0.990800 -0.365422
O20   O     O_3   0.037740 0.953430 0.009200 -0.365416
V3    V     V_3+5 0.007000 0.728750 0.001710 1.411971
V4    V     V_3+5 0.993000 0.228750 0.998290 1.411981
O21   O     O_3   0.679550 0.589436 0.221911 -0.621626
H33   H     H_    0.645832 0.558686 0.247926 0.300085
O22   O     O_3   0.320390 0.089240 0.778031 -0.621631
H34   H     H_    0.354104 0.058469 0.752011 0.300081
O23   O     O_3   0.827491 0.587538 0.243866 -0.519146
C61   C     C_3   0.890427 0.556358 0.244341 0.085494
H35   H     H_    0.909306 0.475347 0.292280 0.122112
H36   H     H_    0.917465 0.690566 0.242626 0.096741
C62   C     C_3   0.898927 0.438667 0.180578 -0.672205
H37   H     H_    0.880810 0.518112 0.132097 0.226534
H38   H     H_    0.947827 0.408326 0.181025 0.161350
H39   H     H_    0.874360 0.301060 0.180677 0.216529
O24   O     O_3   0.172429 0.087696 0.756060 -0.519123
C63   C     C_3   0.109483 0.056756 0.755606 0.085557
H40   H     H_    0.090536 0.976107 0.707612 0.122072
H41   H     H_    0.082519 0.191069 0.757445 0.096742
C64   C     C_3   0.100960 0.938740 0.819290 -0.671965
H42   H     H_    0.119324 0.017563 0.867826 0.226597
H43   H     H_    0.052035 0.909164 0.818978 0.161273
H44   H     H_    0.125274 0.800736 0.818931 0.216237
O25   O     O_3   0.755992 0.563757 0.335788 -0.607783
H45   H     H_    0.739871 0.560100 0.380605 0.280101
O26   O     O_3   0.243942 0.063911 0.664152 -0.607746
H46   H     H_    0.260072 0.060292 0.619342 0.280110
O27   O     O_3   0.623451 0.852586 0.187350 -0.560934
C65   C     C_3   0.613277 0.052787 0.182743 0.058601
H47   H     H_    0.651807 0.133689 0.167279 0.135234
H48   H     H_    0.602203 0.106550 0.233116 0.135810
C66   C     C_3   0.558132 0.091323 0.127471 -0.693303
H49   H     H_    0.517672 0.016553 0.141339 0.222659
H50   H     H_    0.548796 0.248241 0.123993 0.186695
H51   H     H_    0.566716 0.038988 0.075826 0.223497
O28   O     O_3   0.376546 0.352220 0.812651 -0.560933
C67   C     C_3   0.386761 0.552393 0.817312 0.058615
H52   H     H_    0.348246 0.633337 0.832793 0.135167
H53   H     H_    0.397850 0.606242 0.766956 0.135806
C68   C     C_3   0.441911 0.590711 0.872599 -0.693319
H54   H     H_    0.482361 0.515935 0.858704 0.222647
H55   H     H_    0.451272 0.747609 0.876134 0.186673
H56   H     H_    0.433322 0.538234 0.924226 0.223500

loop_
_geom_bond_atom_site_label_1
_geom_bond_atom_site_label_2
_ccdc_geom_bond_type
C12   C14   A    
C57   O18   A    
C35   C37   S    
H17   C43   S    
C42   C54   S    
C7    C27   A    
C9    C11   A    
C48   O28   S    
O12   C60   A    
O1    C3    A    
O2    C4    A    
C2    O7    A    
O14   C58   A    
O20   V3    S    
C45   C51   S    
O3    V1    S    
C21   C23   A    
H4    C24   S    
O5    C3    A    
C36   C42   S    
C5    H5    S    
C35   C41   S    
C6    H6    S    
C44   C46   S    
C47   O21   S    
O17   V3    S    
C55   C60   S    
C46   C48   S    
C27   H7    S    
C28   H8    S    
C34   H20   S    
C33   O23   S    
C5    C21   A    
C6    C22   A    
O12   V3    S    
O14   V4    S    
C10   C32   A    
C44   O26   S    
C67   C68   S    
C17   C31   A    
C64   H44   S    
C13   C15   A    
C68   H55   S    
C17   C25   A    
C7    C29   A    
C39   C51   T    
C8    C30   A    
O19   V4    S    
C41   C49   S    
C22   C24   A    
C34   C42   S    
C53   C55   T    
C16   C20   A    
C23   C25   A    
C34   O24   S    
C24   C26   A    
C8    C57   S    
C50   H32   S    
O4    V2    S    
C66   H50   S    
C7    C58   S    
C66   H49   S    
C45   C47   S    
C38   H28   S    
C56   C59   S    
C37   H27   S    
H18   C44   S    
O4    C2    A    
C33   C43   S    
C10   H10   S    
C35   H23   S    
O3    C1    A    
C15   C19   A    
O16   C60   A    
C49   H29   S    
C48   O22   S    
C36   C38   S    
C19   C21   A    
C40   C52   T    
C63   H41   S    
C4    C31   S    
O13   V3    S    
C62   H39   S    
C41   C53   S    
O6    C4    A    
C38   H26   S    
C65   C66   S    
H1    C29   S    
O13   C57   A    
O1    V2    S    
C47   O27   S    
C1    C40   S    
C54   C56   T    
O2    V1    S    
O15   V3    S    
O23   C61   S    
H2    C30   S    
H3    C23   S    
C43   C45   S    
C11   H13   S    
C47   C49   S    
C64   H42   S    
C67   H53   S    
C18   C26   A    
C63   C64   S    
C19   C27   A    
C46   C52   S    
O18   V4    S    
C43   O25   S    
C66   H51   S    
C18   C32   A    
O26   H46   S    
C64   H43   S    
O24   C63   S    
C33   H19   S    
C34   C44   S    
O10   V1    S    
O15   C59   A    
C5    C29   A    
C48   C50   S    
C49   H31   S    
C6    C30   A    
C38   C46   S    
O20   V4    S    
O22   H34   S    
C9    H9    S    
C37   C45   S    
C25   H15   S    
O11   C59   A    
O25   H45   S    
O21   H33   S    
C42   C50   S    
O16   V4    S    
C61   C62   S    
O9    V1    S    
C63   H40   S    
O7    V1    S    
C10   C12   A    
C11   C13   A    
C3    C32   S    
C33   C41   S    
O27   C65   S    
C20   C22   A    
C68   H56   S    
C2    C39   S    
C62   H37   S    
O19   V3    S    
C26   H16   S    
C12   H14   S    
O5    V1    S    
C15   C17   A    
C16   C18   A    
C14   H12   S    
O10   V2    S    
C36   H22   S    
C20   C28   A    
C8    C28   A    
C1    O8    A    
O6    V2    S    
O9    V2    S    
C62   H38   S    
O11   V4    S    
C36   H24   S    
C65   H47   S    
O8    V2    S    
C13   H11   S    
C61   H35   S    
O28   C67   S    
C61   H36   S    
C35   H21   S    
C50   H30   S    
C65   H48   S    
C37   H25   S    
C9    C31   A    
C14   C16   A    
C67   H52   S    
C68   H54   S    
C58   O17   A    
