data_mof_unit_49844.cif
_audit_creation_date              2013-03-05T16:48:20-0500
_audit_creation_method            fapswitch 2.2
_symmetry_space_group_name_H-M    P1
_symmetry_Int_Tables_number       1
_space_group_crystal_system       triclinic
_cell_length_a                    15.109647
_cell_length_b                    10.791809
_cell_length_c                    13.701621
_cell_angle_alpha                 89.758465
_cell_angle_beta                  90.738524
_cell_angle_gamma                 89.139206
_cell_volume                      2233.73270301

loop_
_atom_site_label
_atom_site_type_symbol
_atom_site_description
_atom_site_fract_x
_atom_site_fract_y
_atom_site_fract_z
_atom_type_partial_charge
O1    O     O_R   0.500000 0.319630 0.582270 -0.581716
O2    O     O_R   0.500000 0.680370 0.417730 -0.585916
O3    O     O_R   0.499990 0.319660 0.417730 -0.587905
O4    O     O_R   0.500010 0.680340 0.582270 -0.584786
C1    C     C_R   0.497914 0.262268 0.500144 0.818748
C2    C     C_R   0.502034 0.737733 0.499868 0.816129
O5    O     O_R   0.370260 0.499960 0.582280 -0.587460
O6    O     O_R   0.629740 0.500040 0.417720 -0.580674
O7    O     O_R   0.370250 0.499990 0.417740 -0.545184
O8    O     O_R   0.629750 0.500010 0.582260 -0.545870
C3    C     C_R   0.328668 0.503274 0.499252 0.856611
C4    C     C_R   0.671304 0.497017 0.500609 0.849863
Cu1   Cu    Cu3+1 0.500010 0.499980 0.597420 1.001986
Cu2   Cu    Cu3+1 0.499990 0.500020 0.402580 1.003962
C5    C     C_R   0.811119 0.555731 0.428150 -0.220310
C6    C     C_R   0.188386 0.437510 0.567518 -0.221273
C7    C     C_R   0.768014 0.491591 0.500977 -0.214046
C8    C     C_R   0.231887 0.505462 0.497180 -0.211442
C9    C     C_R   0.816384 0.423779 0.571798 0.331355
C10   C     C_R   0.183842 0.568588 0.423310 0.331337
C11   C     C_R   0.910064 0.417653 0.567337 -0.089694
C12   C     C_R   0.089999 0.567793 0.423142 -0.091114
C13   C     C_R   0.953411 0.488485 0.494502 -0.007410
C14   C     C_R   0.046622 0.493043 0.493434 -0.010148
C15   C     C_R   0.903342 0.555959 0.423347 0.074086
C16   C     C_R   0.096634 0.424011 0.563665 0.074209
C17   C     C_R   0.961470 0.341741 0.632192 0.275084
C18   C     C_R   0.038431 0.638026 0.354554 0.276145
C19   C     C_R   0.054286 0.343487 0.629303 -0.131240
C20   C     C_R   0.946028 0.627147 0.351517 -0.132318
H1    H     H_    0.770936 0.610875 0.378104 0.201687
H2    H     H_    0.227817 0.392517 0.624179 0.206341
H3    H     H_    0.252538 0.308975 0.159014 0.203840
H4    H     H_    0.745329 0.689800 0.842281 0.205842
C21   C     C_R   0.269585 0.261499 0.309941 -0.119386
C22   C     C_R   0.728739 0.736532 0.691161 -0.120646
H5    H     H_    0.212672 0.315914 0.332268 0.173748
H6    H     H_    0.785053 0.680739 0.669027 0.171230
C23   C     C_R   0.320432 0.197028 0.379693 -0.104022
C24   C     C_R   0.678527 0.801510 0.621147 -0.110614
H7    H     H_    0.302688 0.202982 0.455909 0.151476
H8    H     H_    0.696198 0.794636 0.544962 0.122047
C25   C     C_R   0.394424 0.126425 0.351349 0.048122
C26   C     C_R   0.605106 0.873534 0.649145 0.055046
C27   C     C_R   0.415858 0.119225 0.252072 -0.186082
C28   C     C_R   0.583779 0.881882 0.748405 -0.181901
H9    H     H_    0.472735 0.064149 0.230517 0.210446
H10   H     H_    0.527372 0.938066 0.769726 0.211456
C29   C     C_R   0.365707 0.185649 0.181437 0.359868
C30   C     C_R   0.633363 0.815134 0.819338 0.357506
C31   C     C_R   0.292419 0.256996 0.211562 -0.119361
C32   C     C_R   0.705962 0.742187 0.789519 -0.117137
C33   C     C_R   0.456996 0.934822 0.425749 -0.161959
C34   C     C_R   0.542846 0.065174 0.574394 -0.161870
H11   H     H_    0.421862 0.883867 0.369664 0.185424
H12   H     H_    0.577845 0.116121 0.630571 0.186138
C35   C     C_R   0.504248 0.871594 0.499535 -0.082512
C36   C     C_R   0.495679 0.128404 0.500541 -0.079047
C37   C     C_R   0.548820 0.936771 0.574039 0.024717
C38   C     C_R   0.451026 0.063219 0.426134 0.027898
C39   C     C_R   0.549865 0.414278 0.793785 0.092045
C40   C     C_R   0.450497 0.586128 0.206218 0.095032
N1    N     N_R   0.499960 0.499900 0.743810 -0.203581
N2    N     N_R   0.500040 0.500100 0.256190 -0.204926
C41   C     C_R   0.449748 0.584817 0.791944 0.061712
C42   C     C_R   0.550254 0.415190 0.208054 0.076480
C43   C     C_R   0.448992 0.588347 0.895095 -0.121510
C44   C     C_R   0.551239 0.411940 0.104905 -0.116291
C45   C     C_R   0.500788 0.500451 0.948224 0.090218
C46   C     C_R   0.499517 0.499922 0.051778 0.088960
C47   C     C_R   0.552634 0.411882 0.897358 -0.093625
C48   C     C_R   0.447778 0.588609 0.102648 -0.092831
C49   C     C_R   0.396465 0.676069 0.945468 0.354204
C50   C     C_R   0.603957 0.324447 0.054540 0.363540
C51   C     C_R   0.396768 0.678206 0.049077 -0.105262
C52   C     C_R   0.603832 0.322503 0.950934 -0.107302
H13   H     H_    0.586346 0.347527 0.751438 0.152480
H14   H     H_    0.414243 0.653109 0.248572 0.152176
H15   H     H_    0.410067 0.649249 0.748846 0.180204
H16   H     H_    0.589814 0.350604 0.251147 0.179571
N3    N     N_R   0.339362 0.759841 0.891511 0.143328
O9    O     O_R   0.372646 0.847206 0.838271 -0.309553
O10   O     O_R   0.253912 0.753124 0.900040 -0.276206
N4    N     N_R   0.661112 0.240782 0.108521 0.144106
O11   O     O_R   0.627897 0.152923 0.161309 -0.319566
O12   O     O_R   0.746574 0.248210 0.100542 -0.267413
C53   C     C_2   0.344587 0.775958 0.100251 0.501346
H17   H     H_    0.312037 0.756381 0.168252 0.129769
O13   O     O_2   0.337999 0.880864 0.067002 -0.412959
C54   C     C_2   0.656457 0.225247 0.899745 0.500394
H18   H     H_    0.689068 0.245285 0.831865 0.131010
O14   O     O_2   0.663373 0.120296 0.932840 -0.413638
N5    N     N_R   0.769882 0.366419 0.649868 0.144633
O15   O     O_R   0.766673 0.420632 0.734398 -0.376847
O16   O     O_R   0.720514 0.271027 0.632618 -0.379753
N6    N     N_R   0.231180 0.628946 0.347260 0.145502
O17   O     O_R   0.277826 0.726354 0.366784 -0.375945
O18   O     O_R   0.238246 0.575598 0.262687 -0.379671
N7    N     N_R   0.920571 0.252739 0.694545 0.144029
O19   O     O_R   0.919677 0.269625 0.788508 -0.295464
O20   O     O_R   0.895211 0.147398 0.658749 -0.285686
N8    N     N_R   0.078417 0.725160 0.289797 0.138825
O21   O     O_R   0.101635 0.832992 0.322677 -0.294510
O22   O     O_R   0.077907 0.705368 0.196159 -0.276399
C55   C     C_2   0.105293 0.254126 0.692219 0.466061
H19   H     H_    0.086603 0.239332 0.767448 0.148008
O23   O     O_2   0.165852 0.191774 0.659032 -0.510220
C56   C     C_2   0.895755 0.694628 0.273082 0.471846
H20   H     H_    0.911318 0.790091 0.256044 0.132896
O24   O     O_2   0.840243 0.642056 0.223414 -0.478791
N9    N     N_R   0.389386 0.181585 0.080043 0.140223
O25   O     O_R   0.347282 0.250337 0.015876 -0.337207
O26   O     O_R   0.453695 0.109821 0.050953 -0.246203
N10   N     N_R   0.609748 0.820401 0.920720 0.140058
O27   O     O_R   0.651447 0.751709 0.985241 -0.321011
O28   O     O_R   0.545894 0.893212 0.949448 -0.245589

loop_
_geom_bond_atom_site_label_1
_geom_bond_atom_site_label_2
_geom_bond_distance
_ccdc_geom_bond_type
C42   C44   1.414164 A    
C53   H17   1.080695 S    
N1    C41   1.359217 A    
C3    C8    1.462069 S    
N5    O15   1.300911 A    
C41   H15   1.080082 S    
C17   C19   1.403902 A    
N9    O25   1.301579 A    
N10   O27   1.301597 A    
C23   H7    1.083428 S    
O5    C3    1.292645 A    
C55   O23   1.221325 D    
C17   N7    1.434874 S    
C50   C52   1.419792 A    
C1    C36   1.445524 S    
O1    C1    1.286844 A    
C9    C11   1.418135 A    
C14   C16   1.417843 A    
C45   C46   1.419217 A    
C47   C52   1.422903 A    
C5    C15   1.395897 A    
C26   C37   1.483943 S    
C44   C50   1.413958 A    
C56   H20   1.085269 S    
C39   N1    1.360768 A    
C27   H9    1.082468 S    
O4    Cu1   1.956579 S    
C45   C47   1.417821 A    
C6    H2    1.081517 S    
C40   N2    1.360755 A    
C53   O13   1.220753 D    
C39   H13   1.076684 S    
C41   C43   1.414199 A    
N6    O18   1.301001 A    
C4    C7    1.461493 S    
C30   C32   1.406511 A    
C13   C14   1.410241 A    
C43   C49   1.414044 A    
C24   C26   1.403415 A    
C22   C32   1.396554 A    
C29   N9    1.439739 S    
C39   C47   1.419301 A    
C24   H8    1.083370 S    
C11   C17   1.421623 A    
N5    O16   1.301013 A    
C12   C18   1.422016 A    
Cu1   Cu2   2.669620 S    
C49   C51   1.419848 A    
C2    C35   1.445477 S    
C19   C55   1.490175 S    
O2    C2    1.286974 A    
C48   C51   1.422945 A    
C49   N3    1.436241 S    
N3    O10   1.300974 A    
C33   C38   1.387259 A    
C26   C28   1.404665 A    
N3    O9    1.300721 A    
C34   H12   1.084527 S    
C34   C37   1.387316 A    
C33   H11   1.084678 S    
C6    C16   1.396482 A    
C28   H10   1.082482 S    
C22   C24   1.395404 A    
N4    O11   1.300720 A    
O4    C2    1.286413 A    
C33   C35   1.399423 A    
C23   C25   1.403343 A    
C29   C31   1.406509 A    
C43   C45   1.413984 A    
N2    C42   1.359196 A    
C21   C23   1.395392 A    
O7    Cu2   1.973964 S    
O7    C3    1.288847 A    
C54   O14   1.220753 D    
N7    O19   1.301241 A    
Cu1   N1    2.005785 S    
C27   C29   1.408414 A    
O6    C4    1.290732 A    
Cu2   N2    2.005787 S    
N6    O17   1.301202 A    
C40   C48   1.419266 A    
N9    O26   1.301081 A    
N8    O22   1.301484 A    
C25   C27   1.404536 A    
O3    Cu2   1.956579 S    
O8    C4    1.290223 A    
C25   C38   1.483452 S    
C51   C53   1.490514 S    
N7    O20   1.301039 A    
C10   C12   1.418057 A    
C11   C13   1.426424 A    
C21   C31   1.396571 A    
C12   C14   1.426016 A    
O1    Cu1   1.958212 S    
C21   H5    1.082147 S    
C34   C36   1.399438 A    
C15   C20   1.414102 A    
C5    C7    1.386901 A    
O6    Cu2   1.968764 S    
C20   C56   1.489295 S    
C40   H14   1.076652 S    
C50   N4    1.436156 S    
O3    C1    1.286581 A    
O8    Cu1   1.973964 S    
C9    N5    1.431069 S    
N10   O28   1.301090 A    
C5    H1    1.080714 S    
H3    C31   1.082321 S    
C42   H16   1.080102 S    
C55   H19   1.084061 S    
C28   C30   1.408493 A    
H4    C32   1.082328 S    
C18   C20   1.402964 A    
C54   H18   1.080693 S    
C22   H6    1.082275 S    
C7    C9    1.403909 A    
C56   O24   1.221223 D    
C8    C10   1.405672 A    
C13   C15   1.418276 A    
C10   N6    1.431491 S    
N8    O21   1.301088 A    
O2    Cu2   1.958212 S    
C35   C37   1.411722 A    
C18   N8    1.435394 S    
O5    Cu1   1.968764 S    
C16   C19   1.413638 A    
C6    C8    1.386878 A    
C44   C46   1.413990 A    
N4    O12   1.300968 A    
C46   C48   1.417810 A    
C30   N10   1.439780 S    
C36   C38   1.411398 A    
C52   C54   1.490396 S    
