data_mof_unit_28179.cif
_audit_creation_date              2012-10-26T18:50:25-0400
_audit_creation_method            fapswitch 2.2
_symmetry_space_group_name_H-M    P1
_symmetry_Int_Tables_number       1
_space_group_crystal_system       triclinic
_cell_length_a                    9.634664
_cell_length_b                    10.784798
_cell_length_c                    15.466345
_cell_angle_alpha                 86.303748
_cell_angle_beta                  74.342496
_cell_angle_gamma                 90.017762
_cell_volume                      1543.95924978

loop_
_atom_site_label
_atom_site_type_symbol
_atom_type_description
_atom_site_fract_x
_atom_site_fract_y
_atom_site_fract_z
_atom_type_partial_charge
C1    C     C_R   0.998192 0.262584 0.504097 0.604855
C2    C     C_R   0.225285 0.470402 0.043537 -0.009730
C3    C     C_R   0.323628 0.509669 0.090474 -0.029649
C4    C     C_R   0.918399 0.501567 0.671993 0.597749
C5    C     C_R   0.079828 0.445233 0.089372 0.379487
C6    C     C_R   0.030314 0.458411 0.181502 0.409894
C7    C     C_R   0.270812 0.520700 0.183724 -0.212217
C8    C     C_R   0.059701 0.112381 0.657064 0.310958
C9    C     C_R   0.095810 0.038868 0.725004 -0.041876
C10   C     C_R   0.100941 0.910546 0.721811 0.351774
C11   C     C_R   0.068740 0.854281 0.650849 -0.090080
C12   C     C_R   0.670312 0.522531 0.904886 0.013277
C13   C     C_R   0.033850 0.926298 0.580187 -0.092170
C14   C     C_R   0.030999 0.057590 0.582352 0.012673
C15   C     C_R   0.994573 0.128213 0.511141 0.028281
C16   C     C_R   0.999114 0.737059 0.502319 0.541169
C17   C     C_R   0.953816 0.070061 0.443546 -0.163543
C18   C     C_R   0.954347 0.942326 0.442614 -0.131482
C19   C     C_R   0.996691 0.870398 0.508887 0.014819
C20   C     C_R   0.691968 0.670120 0.374329 0.425467
C21   C     C_R   0.639617 0.749470 0.316670 -0.096259
C22   C     C_R   0.496525 0.748311 0.319921 -0.247175
C23   C     C_R   0.767626 0.566605 0.950688 0.014080
C24   C     C_R   0.403513 0.666876 0.380640 -0.110027
C25   C     C_R   0.449734 0.582261 0.440712 0.113641
C26   C     C_R   0.600058 0.582697 0.439401 0.169169
C27   C     C_R   0.549187 0.422481 0.556761 -0.005472
C28   C     C_R   0.081559 0.499069 0.327974 0.585731
C29   C     C_R   0.401750 0.422405 0.556623 0.029194
C30   C     C_R   0.872753 0.514066 0.769747 0.015355
C31   C     C_R   0.126353 0.494599 0.229457 -0.041817
C32   C     C_R   0.914810 0.582713 0.906432 -0.011987
C33   C     C_R   0.967560 0.556225 0.816648 0.389084
C34   C     C_R   0.520443 0.508767 0.950427 0.049647
C35   C     C_R   0.727005 0.493532 0.814923 -0.172726
C36   C     C_R   0.471840 0.532195 0.043371 0.056398
C37   C     C_R   0.573072 0.577472 0.085879 -0.095692
C38   C     C_R   0.717540 0.594503 0.040187 -0.061176
C39   C     C_R   0.417336 0.474013 0.905866 -0.110183
C40   C     C_R   0.273283 0.455322 0.951616 -0.069299
Cu1   Cu    Cu3+1 0.140660 0.499990 0.500010 1.026322
Cu2   Cu    Cu3+1 0.859340 0.500010 0.499990 1.066935
F1    F     F_    0.986372 0.403084 0.045605 -0.622497
F2    F     F_    0.047049 0.235801 0.668098 -0.641639
F3    F     F_    0.134298 0.840066 0.788960 -0.591263
F4    F     F_    0.833458 0.686937 0.360555 -0.631495
F5    F     F_    0.889964 0.430700 0.223952 -0.582668
F6    F     F_    0.110107 0.574818 0.775609 -0.598858
H1    H     H_    0.790977 0.629261 0.075596 0.151544
H2    H     H_    0.544756 0.603029 0.154422 0.118657
H3    H     H_    0.924278 0.124296 0.389917 0.147780
H4    H     H_    0.069330 0.754091 0.652874 0.196240
H5    H     H_    0.340707 0.546392 0.223410 0.147555
H6    H     H_    0.199244 0.427475 0.914376 0.207871
H7    H     H_    0.989144 0.617199 0.941249 0.173669
H8    H     H_    0.443168 0.461793 0.834838 0.127997
H9    H     H_    0.117642 0.081847 0.781451 0.171538
H10   H     H_    0.924998 0.899608 0.388426 0.180915
H11   H     H_    0.583703 0.358731 0.603442 0.120965
H12   H     H_    0.712081 0.813707 0.268505 0.156675
H13   H     H_    0.456985 0.810957 0.274697 0.139140
H14   H     H_    0.296264 0.675123 0.376416 0.200713
H15   H     H_    0.326726 0.358560 0.603197 0.170138
H16   H     H_    0.660163 0.454433 0.777723 0.133899
N1    N     N_R   0.648320 0.501210 0.499140 -0.237163
N2    N     N_R   0.352470 0.501290 0.499110 -0.240282
O1    O     O_R   0.118810 0.319640 0.500010 -0.461010
O2    O     O_R   0.881240 0.319660 0.500000 -0.509811
O3    O     O_R   0.055570 0.499980 0.629840 -0.404553
O4    O     O_R   0.818000 0.500010 0.629830 -0.535955
O5    O     O_R   0.118760 0.680340 0.500000 -0.546267
O6    O     O_R   0.881190 0.680360 0.499990 -0.435987
O7    O     O_R   0.182000 0.499990 0.370170 -0.556772
O8    O     O_R   0.944430 0.500020 0.370160 -0.362475

loop_
_geom_bond_atom_site_label_1
_geom_bond_atom_site_label_2
_ccdc_geom_bond_type
C29   H15   S    
C27   C29   A    
Cu1   Cu2   S    
C16   O6    A    
C28   O8    A    
C17   H3    S    
C4    O4    A    
Cu1   O1    S    
C38   H1    S    
C12   C23   A    
C30   C35   A    
C36   C37   A    
C3    C7    A    
C5    C6    A    
Cu2   O4    S    
C1    O2    A    
C18   C19   A    
C11   H4    S    
C18   H10   S    
C8    C9    A    
Cu2   N1    S    
C8    C14   A    
C35   H16   S    
C1    C15   S    
C9    C10   A    
C32   H7    S    
C9    H9    S    
Cu1   O5    S    
C6    C31   A    
C5    F1    S    
C13   C14   A    
Cu2   O2    S    
C16   O5    A    
C28   O7    A    
C4    O3    A    
Cu2   O8    S    
C7    C31   A    
C6    F5    S    
C13   C19   A    
C34   C39   A    
C24   C25   A    
C21   H12   S    
C39   C40   A    
C25   C26   A    
C37   C38   A    
C27   N1    A    
C39   H8    S    
C10   F3    S    
Cu2   O6    S    
C17   C18   A    
C12   C35   A    
C40   H6    S    
C22   C24   A    
C2    C5    A    
C7    H5    S    
C12   C34   A    
Cu1   O3    S    
C15   C17   A    
C24   H14   S    
C30   C33   A    
C26   N1    A    
C28   C31   S    
C25   N2    A    
C8    F2    S    
Cu1   N2    S    
C23   C38   A    
C23   C32   A    
C2    C3    A    
C27   H11   S    
C32   C33   A    
C22   H13   S    
C37   H2    S    
C11   C13   A    
C20   C26   A    
C3    C36   A    
C16   C19   S    
C1    O1    A    
C34   C36   A    
C20   F4    S    
C10   C11   A    
Cu1   O7    S    
C29   N2    A    
C2    C40   A    
C20   C21   A    
C33   F6    S    
C14   C15   A    
C21   C22   A    
C4    C30   S    
