data_mof_unit_24750.cif
_audit_creation_date              2012-12-10T17:17:30-0500
_audit_creation_method            fapswitch 2.2
_symmetry_space_group_name_H-M    P1
_symmetry_Int_Tables_number       1
_space_group_crystal_system       triclinic
_cell_length_a                    10.287672
_cell_length_b                    10.596188
_cell_length_c                    12.393015
_cell_angle_alpha                 91.040408
_cell_angle_beta                  109.089416
_cell_angle_gamma                 94.994678
_cell_volume                      1270.26454028

loop_
_atom_site_label
_atom_site_type_symbol
_atom_type_description
_atom_site_fract_x
_atom_site_fract_y
_atom_site_fract_z
_atom_type_partial_charge
Br1   Br    Br    0.228567 0.949972 0.459080 -0.575086
C1    C     C_R   0.052926 0.734228 0.497291 0.882112
C2    C     C_R   0.216567 0.522363 0.836279 -0.121049
C3    C     C_2   0.090342 0.870439 0.516073 0.091448
C4    C     C_R   0.134406 0.506978 0.714096 0.838768
C5    C     C_2   0.023896 0.934816 0.573300 -0.227206
C6    C     C_2   0.932642 0.132760 0.528419 -0.418678
C7    C     C_2   0.040592 0.071460 0.588437 0.246950
C8    C     C_2   0.425577 0.524074 0.487809 -0.178470
C9    C     C_2   0.567104 0.485106 0.491947 0.226129
C10   C     C_R   0.951602 0.266852 0.511020 0.918435
C11   C     C_R   0.867272 0.491606 0.286748 0.876795
C12   C     C_R   0.450329 0.559445 0.974836 0.020969
C13   C     C_R   0.778262 0.432640 0.971723 -0.220347
C14   C     C_R   0.798046 0.493435 0.164816 -0.048769
C15   C     C_R   0.165845 0.588537 0.910006 -0.262491
C16   C     C_R   0.256858 0.651396 0.008580 -0.135214
C17   C     C_R   0.400127 0.650553 0.034320 0.163597
C18   C     C_3   0.565894 0.358757 0.431353 -0.356271
C19   C     C_3   0.576197 0.249770 0.512456 -0.821980
C20   C     C_3   0.687004 0.667752 0.613796 -0.246326
C21   C     C_3   0.809752 0.681949 0.723889 -0.795498
C22   C     C_3   0.492593 0.757768 0.113701 -0.444663
C23   C     C_R   0.357672 0.496930 0.873620 0.078881
C24   C     C_3   0.452152 0.888543 0.072033 -0.834166
C25   C     C_3   0.173523 0.138930 0.670438 -0.305808
C26   C     C_3   0.250256 0.057407 0.767171 -0.884281
C27   C     C_R   0.588012 0.525482 0.012172 0.078012
C28   C     C_R   0.640342 0.460279 0.936654 0.187279
C29   C     C_R   0.549866 0.407171 0.834177 -0.256153
C30   C     C_R   0.409921 0.413797 0.810096 -0.180656
C31   C     C_R   0.665903 0.533537 0.127280 -0.298003
C32   C     C_R   0.858102 0.450741 0.086274 -0.188225
H1    H     H_    0.961995 0.422038 0.114317 0.165187
H2    H     H_    0.215693 0.711760 0.058348 0.159681
H3    H     H_    0.344867 0.352376 0.740212 0.171613
H4    H     H_    0.667468 0.269138 0.590940 0.265875
H5    H     H_    0.483234 0.235789 0.539113 0.247951
H6    H     H_    0.585885 0.160402 0.468776 0.253207
H7    H     H_    0.471750 0.339792 0.355210 0.164442
H8    H     H_    0.646670 0.358183 0.392288 0.253896
H9    H     H_    0.819843 0.590707 0.767173 0.254146
H10   H     H_    0.905879 0.715072 0.707161 0.269342
H11   H     H_    0.793415 0.754743 0.782592 0.214309
H12   H     H_    0.944564 0.888041 0.602818 0.143191
H13   H     H_    0.688593 0.752686 0.562835 0.181726
H14   H     H_    0.597267 0.665145 0.644523 0.171842
H15   H     H_    0.449227 0.896916 0.982028 0.264669
H16   H     H_    0.349844 0.905604 0.078165 0.258167
H17   H     H_    0.529685 0.963295 0.126101 0.250576
H18   H     H_    0.486733 0.747959 0.201166 0.212780
H19   H     H_    0.601845 0.757490 0.118227 0.223810
H20   H     H_    0.180823 0.020630 0.814223 0.257658
H21   H     H_    0.289506 0.976672 0.733043 0.283819
H22   H     H_    0.340074 0.115806 0.828041 0.249396
H23   H     H_    0.833630 0.080976 0.481071 0.136723
H24   H     H_    0.243230 0.170884 0.622150 0.233939
H25   H     H_    0.147415 0.222870 0.711319 0.165056
H26   H     H_    0.413699 0.620353 0.510603 0.170965
H27   H     H_    0.319881 0.353223 0.435896 0.197685
H28   H     H_    0.585281 0.348380 0.778938 0.151550
H29   H     H_    0.820310 0.387513 0.912967 0.138429
H30   H     H_    0.619018 0.561337 0.189298 0.165657
H31   H     H_    0.057749 0.603720 0.885727 0.168450
N1    N     N_2   0.313640 0.446500 0.454900 -0.202432
N2    N     N_2   0.686360 0.553430 0.545150 -0.060822
O1    O     O_R   0.936910 0.692950 0.509080 -0.625118
O2    O     O_R   0.138320 0.658600 0.480130 -0.567417
O3    O     O_R   0.002900 0.525670 0.675280 -0.608039
O4    O     O_R   0.204310 0.491320 0.646330 -0.613105
O5    O     O_R   0.861680 0.341400 0.519870 -0.612194
O6    O     O_R   0.063090 0.307050 0.490920 -0.599081
O7    O     O_R   0.795690 0.508680 0.353670 -0.640248
O8    O     O_R   0.997100 0.474330 0.324720 -0.600031
Zn1   Zn    Zn3+2 0.865520 0.522940 0.519330 0.920169
Zn2   Zn    Zn3+2 0.134480 0.477060 0.480670 0.952546

loop_
_geom_bond_atom_site_label_1
_geom_bond_atom_site_label_2
_ccdc_geom_bond_type
C6    C10   S    
C26   H20   S    
C12   C27   A    
O3    Zn1   S    
C28   C29   A    
C24   H17   S    
C5    H12   S    
C11   O8    A    
C20   N2    S    
O2    Zn2   S    
C7    C25   S    
C8    C9    S    
C8    H26   S    
C1    C3    S    
C18   C19   S    
C11   C14   S    
C9    C18   S    
O6    Zn2   S    
Br1   C3    S    
C13   C32   A    
C22   C24   S    
C16   C17   A    
C25   C26   S    
C26   H21   S    
C6    C7    D    
C20   H13   S    
C11   O7    A    
O5    Zn1   S    
C19   H4    S    
O7    Zn1   S    
C24   H15   S    
C22   H19   S    
C21   H9    S    
N1    Zn2   S    
O8    Zn2   S    
C6    H23   S    
N2    Zn1   S    
C12   C17   A    
C16   H2    S    
C27   C28   A    
C10   O6    A    
C14   C32   A    
H27   N1    S    
C32   H1    S    
C1    O2    A    
C9    N2    D    
O4    Zn2   S    
C29   C30   A    
C25   H24   S    
C26   H22   S    
C23   C30   A    
C4    O4    A    
O1    Zn1   S    
C18   H7    S    
C2    C15   A    
C13   C28   A    
C17   C22   S    
C13   H29   S    
C18   H8    S    
C27   C31   A    
C19   H5    S    
C12   C23   A    
C3    C5    D    
C1    O1    A    
C29   H28   S    
C19   H6    S    
C30   H3    S    
C5    C7    S    
C15   H31   S    
C8    N1    D    
C20   H14   S    
C20   C21   S    
C4    O3    A    
C25   H25   S    
C10   O5    A    
C21   H11   S    
C22   H18   S    
C21   H10   S    
C31   H30   S    
C2    C23   A    
C15   C16   A    
C2    C4    S    
C24   H16   S    
C14   C31   A    
