data_mof_unit_50919.cif
_audit_creation_date              2012-12-11T18:07:17-0500
_audit_creation_method            fapswitch 2.2
_symmetry_space_group_name_H-M    P1
_symmetry_Int_Tables_number       1
_space_group_crystal_system       triclinic
_cell_length_a                    8.198474
_cell_length_b                    12.923409
_cell_length_c                    26.926115
_cell_angle_alpha                 96.863483
_cell_angle_beta                  92.541733
_cell_angle_gamma                 81.43975
_cell_volume                      2799.85869429

loop_
_atom_site_label
_atom_site_type_symbol
_atom_type_description
_atom_site_fract_x
_atom_site_fract_y
_atom_site_fract_z
_atom_type_partial_charge
Ba1   Ba    Ba6+2 0.859560 0.448380 0.523550 1.655784
Ba2   Ba    Ba6+2 0.330270 0.551530 0.476440 1.674297
C1    C     C_3   0.656886 0.094157 0.668840 -0.338892
C2    C     C_R   0.957228 0.610157 0.183581 0.595266
C3    C     C_2   0.770988 0.580118 0.273357 -0.090518
C4    C     C_3   0.171932 0.223746 0.663525 0.264875
C5    C     C_3   0.741689 0.608629 0.328728 -0.101686
C6    C     C_1   0.985755 0.479633 0.343366 0.030665
C7    C     C_2   0.028045 0.470259 0.295595 -0.083554
C8    C     C_2   0.914695 0.522149 0.257437 0.219553
C9    C     C_R   0.034584 0.511096 0.103121 -0.082002
C10   C     C_R   0.049941 0.417372 0.125946 -0.032894
C11   C     C_R   0.103010 0.321531 0.096969 -0.054126
C12   C     C_3   0.663649 0.192186 0.644014 0.318426
C13   C     C_R   0.989476 0.608086 0.132337 -0.033366
C14   C     C_2   0.849902 0.537969 0.360999 -0.252833
C15   C     C_2   0.351241 0.476099 0.641491 -0.284809
C16   C     C_3   0.115029 0.219439 0.716408 -0.186841
C17   C     C_R   0.177259 0.412045 0.972662 0.026309
C18   C     C_R   0.049067 0.597532 0.974655 -0.020159
C19   C     C_R   0.134018 0.504622 0.948329 0.053979
C20   C     C_R   0.269113 0.323338 0.945767 -0.096680
C21   C     C_R   0.314411 0.324999 0.896548 -0.042153
C22   C     C_R   0.267748 0.414502 0.871554 -0.033517
C23   C     C_3   0.461710 0.717348 0.627217 0.309958
C24   C     C_R   0.175231 0.504008 0.897223 -0.073557
C25   C     C_R   0.124380 0.592943 0.871852 -0.048156
C26   C     C_R   0.167039 0.591618 0.821310 0.602492
C27   C     C_R   0.311487 0.416110 0.821361 0.586457
C28   C     C_3   0.214669 0.227562 0.418978 0.294688
C29   C     C_2   0.459436 0.483507 0.729554 -0.065358
C30   C     C_3   0.500253 0.488650 0.675440 -0.049537
C31   C     C_1   0.206704 0.523905 0.657055 0.042679
C32   C     C_2   0.167359 0.526982 0.704746 -0.104455
C33   C     C_2   0.300173 0.503425 0.744068 0.194892
C34   C     C_3   0.481667 0.736941 0.683976 -0.364052
C35   C     C_R   0.129228 0.411709 0.023070 0.022919
C36   C     C_R   0.066167 0.508144 0.051100 0.053090
C37   C     C_R   0.036735 0.602214 0.027756 0.035673
C38   C     C_R   0.143903 0.318736 0.046893 -0.095947
C39   C     C_R   0.981183 0.701444 0.109952 -0.048072
C40   C     C_3   0.243991 0.108449 0.406551 -0.373363
C41   C     C_R   0.980436 0.681365 0.946443 -0.045014
C42   C     C_R   0.025482 0.679903 0.896678 -0.080306
C43   C     C_R   0.006121 0.698533 0.058908 -0.039533
C44   C     C_R   0.758162 0.824879 0.483306 -0.268620
C45   C     C_3   0.937306 0.825172 0.344307 0.349504
C46   C     C_R   0.432003 0.190361 0.521811 -0.285624
C47   C     C_R   0.414251 0.018241 0.545879 -0.089188
C48   C     C_R   0.348048 0.123357 0.544461 -0.047576
C49   C     C_R   0.575645 0.152844 0.495469 0.057199
C50   C     C_R   0.639789 0.042661 0.492352 -0.040255
C51   C     C_R   0.556857 0.973371 0.517391 -0.094630
C52   C     C_3   0.962618 0.774312 0.585685 0.300217
C53   C     C_R   0.618539 0.862851 0.511102 0.024443
C54   C     C_R   0.848002 0.892034 0.463729 0.000695
C55   C     C_R   0.785767 0.999724 0.465938 -0.071876
C56   C     C_3   0.915393 0.882494 0.297745 -0.316259
C57   C     C_3   0.894545 0.885910 0.606340 -0.324765
C58   C     C_3   0.697740 0.310980 0.375808 0.297081
C59   C     C_3   0.714236 0.282673 0.319611 -0.357796
C60   C     C_2   0.841743 0.763266 0.963978 0.847930
C61   C     C_2   0.325972 0.964317 0.579162 0.895973
C62   C     C_2   0.177205 0.115782 0.735269 0.913138
C63   C     C_3   0.472671 0.811956 0.325889 0.339266
C64   C     C_3   0.372750 0.899230 0.299554 -0.343670
C65   C     C_R   0.010280 0.421568 0.177050 0.595665
H1    H     H_    0.770352 0.176964 0.618747 0.096895
H2    H     H_    0.630666 0.031471 0.639547 0.108259
H3    H     H_    0.821430 0.220184 0.311724 0.128262
H4    H     H_    0.732842 0.352971 0.301819 0.080048
H5    H     H_    0.600298 0.253929 0.303177 0.132757
H6    H     H_    0.547317 0.209868 0.621973 -0.042053
H7    H     H_    0.557468 0.108185 0.696562 0.180965
H8    H     H_    0.329244 0.732765 0.616950 0.054765
H9    H     H_    0.512616 0.634550 0.614350 0.011882
H10   H     H_    0.460639 0.822491 0.696949 0.164681
H11   H     H_    0.390598 0.699398 0.702130 0.082693
H12   H     H_    0.341636 0.085923 0.378410 0.110713
H13   H     H_    0.608433 0.704159 0.695864 0.113432
H14   H     H_    0.776833 0.069758 0.687930 0.157582
H15   H     H_    0.161329 0.283463 0.741647 0.069145
H16   H     H_    0.970809 0.739534 0.332853 0.060717
H17   H     H_    0.817379 0.840454 0.363557 -0.118764
H18   H     H_    0.893536 0.969000 0.308613 0.098993
H19   H     H_    0.592380 0.792368 0.306930 -0.040899
H20   H     H_    0.492783 0.841755 0.365899 0.013407
H21   H     H_    0.341013 0.868844 0.260530 0.126819
H22   H     H_    0.446397 0.964452 0.298608 0.068159
H23   H     H_    0.284054 0.070039 0.440559 0.088296
H24   H     H_    0.135012 0.305929 0.654850 0.051750
H25   H     H_    0.258259 0.930896 0.319798 0.148608
H26   H     H_    0.147104 0.427470 0.284163 0.116533
H27   H     H_    0.114914 0.247816 0.113119 0.123907
H28   H     H_    0.559120 0.470586 0.757044 0.105713
H29   H     H_    0.386169 0.255025 0.877953 0.147167
H30   H     H_    0.312690 0.252182 0.962480 0.078393
H31   H     H_    0.182361 0.241883 0.027196 0.078889
H32   H     H_    0.685616 0.618412 0.246912 0.096879
H33   H     H_    0.954572 0.777647 0.131856 0.120251
H34   H     H_    0.860440 0.733551 0.569311 0.008363
H35   H     H_    0.308086 0.204646 0.662671 -0.013113
H36   H     H_    0.975073 0.745287 0.876208 0.162294
H37   H     H_    0.039878 0.547617 0.715654 0.128492
H38   H     H_    0.005907 0.773099 0.044564 0.076755
H39   H     H_    0.826599 0.549479 0.400785 0.075234
H40   H     H_    0.361887 0.428006 0.605499 0.067184
H41   H     H_    0.853506 0.048436 0.447236 0.097657
H42   H     H_    0.803687 0.741330 0.479310 0.042079
H43   H     H_    0.380122 0.272540 0.522687 0.066597
H44   H     H_    0.978409 0.234067 0.717444 0.112608
H45   H     H_    0.053312 0.774594 0.556442 0.088664
H46   H     H_    0.332846 0.255315 0.430710 0.002976
H47   H     H_    0.126679 0.247671 0.449959 0.073896
H48   H     H_    0.128284 0.080055 0.391427 0.138745
H49   H     H_    0.813974 0.336203 0.391710 0.006029
H50   H     H_    0.027188 0.861894 0.274812 0.150184
H51   H     H_    0.808296 0.859617 0.274697 0.115544
H52   H     H_    0.730194 0.913321 0.963810 0.320484
H53   H     H_    0.288784 0.938437 0.649540 0.328796
H54   H     H_    0.340665 0.034579 0.779629 0.317692
H55   H     H_    0.793240 0.881760 0.631480 0.137269
H56   H     H_    0.850207 0.934573 0.576012 0.077739
H57   H     H_    0.990235 0.923933 0.629016 0.187921
H58   H     H_    0.595050 0.376750 0.382629 0.089332
N1    N     N_R   0.961920 0.517434 0.205261 -0.422950
N2    N     N_R   0.259158 0.503637 0.796404 -0.429928
O1    O     O_2   0.907040 0.557650 0.617910 -0.457710
O2    O     O_2   0.192568 0.880482 0.463365 -0.439933
O3    O     O_3   0.065665 0.861723 0.374408 -0.595180
O4    O     O_3   0.139040 0.557570 0.557730 -0.498504
O5    O     O_3   0.571310 0.369620 0.475470 -0.494270
O6    O     O_2   0.348200 0.764910 0.523260 -0.448104
O7    O     O_3   0.545721 0.786691 0.606037 -0.635597
O8    O     O_2   0.450111 0.519914 0.326087 -0.484098
O9    O     O_3   0.389311 0.723548 0.321903 -0.556340
O10   O     O_2   0.016872 0.339825 0.196118 -0.596391
O11   O     O_2   0.395344 0.339118 0.799803 -0.563841
O12   O     O_3   0.665792 0.222438 0.396963 -0.641391
O13   O     O_2   0.925648 0.695007 0.209052 -0.623060
O14   O     O_2   0.123765 0.669533 0.799690 -0.581463
O15   O     O_3   0.684960 0.360550 0.588460 -0.487577
O16   O     O_2   0.844807 0.425274 0.672051 -0.496366
O17   O     O_3   0.038081 0.725680 0.625754 -0.632374
O18   O     O_3   0.681705 0.274736 0.681388 -0.587529
O19   O     O_2   0.841490 0.235060 0.476710 -0.473512
O20   O     O_3   0.099640 0.305100 0.564190 -0.496388
O21   O     O_2   0.007447 0.122429 0.535379 -0.458199
O22   O     O_2   0.733761 0.740947 0.989009 -0.602324
O23   O     O_3   0.098307 0.152120 0.629482 -0.580771
O24   O     O_R   0.831040 0.865001 0.950107 -0.748988
O25   O     O_2   0.197114 0.933613 0.564256 -0.608796
O26   O     O_R   0.368646 0.969340 0.629983 -0.774648
O27   O     O_2   0.110016 0.038731 0.721133 -0.610059
O28   O     O_R   0.309802 0.108376 0.769718 -0.725643
O29   O     O_2   0.282660 0.442310 0.382060 -0.450498
O30   O     O_3   0.050670 0.442340 0.442260 -0.504539
O31   O     O_3   0.504750 0.639360 0.411530 -0.462840
O32   O     O_3   0.151893 0.272778 0.376176 -0.628259
O33   O     O_3   0.618400 0.630290 0.524520 -0.479309
O34   O     O_3   0.090070 0.694820 0.435810 -0.476330
P1    P     P_3+3 0.072810 0.589830 0.610360 0.990875
P2    P     P_3+3 0.661990 0.251250 0.462170 0.966093
P3    P     P_3+3 0.139506 0.173284 0.568466 0.989802
P4    P     P_3+3 0.116900 0.410080 0.389630 0.986392
P5    P     P_3+3 0.047720 0.832709 0.435443 0.998857
P6    P     P_3+3 0.678253 0.390290 0.653642 0.977290
P7    P     P_3+3 0.534060 0.762233 0.540840 0.954499
P8    P     P_3+3 0.521467 0.621333 0.346308 0.974159

loop_
_geom_bond_atom_site_label_1
_geom_bond_atom_site_label_2
_ccdc_geom_bond_type
C59   H3    S    
C46   H43   S    
C19   C24   A    
C47   C61   S    
C60   O22   D    
C28   H47   S    
C39   C43   A    
C52   H34   S    
C52   O17   S    
Ba1   O1    S    
Ba1   O5    S    
C63   H19   S    
C21   H29   S    
O33   P7    S    
C27   O11   D    
C62   O28   S    
C24   C25   A    
O2    P5    D    
C58   H58   S    
C1    H2    S    
C22   C24   A    
C32   C33   S    
C35   C38   A    
C34   H10   S    
C15   H40   S    
C64   H21   S    
C36   C37   A    
C47   C51   A    
C4    H24   S    
C62   O27   D    
C56   H51   S    
C54   C55   A    
Ba1   Ba2   S    
C1    H7    S    
C22   C27   A    
C11   C38   A    
Ba1   O15   S    
C17   C35   A    
O15   P6    S    
C30   P6    S    
C9    C13   A    
C25   C42   A    
C46   C49   A    
C3    H32   S    
C6    C7    D    
C44   C53   A    
C1    H14   S    
Ba2   O5    S    
C21   C22   A    
C49   P2    S    
C45   H16   S    
C7    C8    S    
O34   P5    S    
C26   N2    Am   
C14   H39   S    
C37   C43   A    
C59   H4    S    
C57   H55   S    
O8    P8    D    
C40   H12   S    
C6    C14   D    
C20   H30   S    
H52   O24   S    
Ba1   O19   S    
C15   C31   D    
C53   P7    S    
Ba2   O34   S    
C42   H36   S    
C43   H38   S    
C63   H20   S    
C64   H22   S    
C52   C57   S    
C51   C53   A    
C57   H56   S    
C28   O32   S    
C4    C16   S    
C10   C65   A    
Ba2   O6    S    
Ba2   O4    S    
C60   O24   S    
C45   O3    S    
C48   P3    S    
C49   C50   A    
O21   P3    D    
C12   H6    S    
C17   C20   A    
C16   H44   S    
C13   C39   A    
C34   H13   S    
C65   N1    Am   
O30   P4    S    
C3    C5    S    
C18   C37   A    
C64   H25   S    
C23   C34   S    
O4    P1    S    
C46   C48   A    
C56   H50   S    
C32   H37   S    
O32   P4    S    
C58   C59   S    
C40   H23   S    
C9    C36   A    
C41   C42   A    
C5    P8    S    
C35   C36   A    
C2    O13   D    
O3    P5    S    
C29   C30   S    
C12   O18   S    
Ba2   O31   S    
O16   P6    D    
C18   C19   A    
O1    P1    D    
C31   C32   D    
C39   H33   S    
C52   H45   S    
C45   H17   S    
C10   C11   A    
C33   N2    S    
C23   O7    S    
Ba2   P4    S    
C61   O26   S    
C1    C12   S    
C59   H5    S    
C5    C14   S    
Ba1   P1    S    
C63   C64   S    
C27   N2    Am   
O7    P7    S    
C58   H49   S    
C54   P5    S    
C56   H18   S    
C7    H26   S    
C18   C41   A    
C50   C51   A    
O18   P6    S    
C6    P4    S    
C57   H57   S    
Ba2   O29   S    
H54   O28   S    
O17   P1    S    
Ba1   O33   S    
Ba1   O4    S    
C9    C10   A    
O31   P8    S    
O23   P3    S    
O19   P2    D    
C2    N1    Am   
C11   H27   S    
O20   P3    S    
C23   H9    S    
C2    C13   A    
Ba1   O30   S    
C31   P1    S    
O5    P2    S    
C3    C8    D    
C34   H11   S    
C45   C56   S    
C38   H31   S    
C16   C62   S    
O29   P4    D    
Ba2   O30   S    
C29   H28   S    
O12   P2    S    
H53   O26   S    
C16   H15   S    
C29   C33   D    
C4    H35   S    
C65   O10   D    
C61   O25   D    
C63   O9    S    
Ba1   O20   S    
C50   C55   A    
C58   O12   S    
C4    O23   S    
C40   H48   S    
O6    P7    D    
C55   H41   S    
O9    P8    S    
Ba1   P2    S    
Ba2   O33   S    
C47   C48   A    
C44   H42   S    
C44   C54   A    
C25   C26   A    
C15   C30   S    
C12   H1    S    
C20   C21   A    
C28   C40   S    
C26   O14   D    
C23   H8    S    
C8    N1    S    
C41   C60   S    
C17   C19   A    
C28   H46   S    
