data_mof_unit_37448.cif
_audit_creation_date              2012-12-11T15:55:59-0500
_audit_creation_method            fapswitch 2.2
_symmetry_space_group_name_H-M    P1
_symmetry_Int_Tables_number       1
_space_group_crystal_system       triclinic
_cell_length_a                    10.966841
_cell_length_b                    11.035763
_cell_length_c                    18.719513
_cell_angle_alpha                 90.405321
_cell_angle_beta                  90.645458
_cell_angle_gamma                 60.028403
_cell_volume                      1962.47961058

loop_
_atom_site_label
_atom_site_type_symbol
_atom_type_description
_atom_site_fract_x
_atom_site_fract_y
_atom_site_fract_z
_atom_type_partial_charge
C1    C     C_R   0.385845 0.710532 0.389574 0.563792
C2    C     C_R   0.225982 0.419641 0.204894 0.373072
C3    C     C_R   0.235221 0.419770 0.278785 0.003739
C4    C     C_R   0.389868 0.356861 0.386719 0.530984
C5    C     C_R   0.887161 0.679260 0.413941 -0.101094
C6    C     C_R   0.976177 0.538615 0.430932 -0.070772
C7    C     C_R   0.078582 0.449904 0.382739 -0.053318
C8    C     C_R   0.104899 0.505038 0.321097 0.101296
C9    C     C_R   0.369631 0.347397 0.310709 -0.031731
C10   C     C_R   0.856658 0.331638 0.182206 0.068569
C11   C     C_R   0.912199 0.214623 0.227126 0.026480
C12   C     C_R   0.614477 0.204323 0.151467 0.065506
C13   C     C_R   0.887298 0.228210 0.299515 -0.081854
C14   C     C_R   0.738824 0.477162 0.282385 -0.127017
C15   C     C_R   0.763071 0.463182 0.209447 -0.141504
C16   C     C_R   0.774134 0.381087 0.402370 0.529579
C17   C     C_3   0.062284 0.105011 0.237689 0.272379
C18   C     C_3   0.035502 0.119134 0.317018 -0.233567
C19   C     C_R   0.809847 0.361195 0.328281 0.039800
C20   C     C_R   0.368682 0.815746 0.169090 -0.033041
C21   C     C_R   0.405657 0.881307 0.221714 0.161881
C22   C     C_R   0.407371 0.852707 0.293149 -0.012624
C23   C     C_R   0.348005 0.341849 0.162718 0.048256
C24   C     C_R   0.331457 0.688529 0.264086 -0.184849
C25   C     C_R   0.326755 0.720676 0.191523 -0.198832
C26   C     C_3   0.525929 0.905967 0.229384 0.245113
C27   C     C_3   0.524304 0.881255 0.309170 -0.230528
C28   C     C_R   0.371548 0.705879 0.611179 0.581490
C29   C     C_R   0.377878 0.750038 0.315373 -0.013489
C30   C     C_R   0.304210 0.306921 0.809817 0.029131
C31   C     C_R   0.365519 0.188000 0.765752 0.049637
C32   C     C_R   0.373540 0.198669 0.693086 0.027995
C33   C     C_R   0.239523 0.449254 0.704621 -0.170584
C34   C     C_R   0.491570 0.287979 0.268354 -0.114915
C35   C     C_R   0.236654 0.438584 0.778540 -0.177176
C36   C     C_3   0.509319 0.061838 0.769772 -0.265045
C37   C     C_3   0.516831 0.071505 0.689616 -0.280731
C38   C     C_R   0.318633 0.330131 0.662084 0.019706
C39   C     C_R   0.902740 0.295107 0.822720 0.015756
C40   C     C_R   0.368890 0.349930 0.594842 0.547379
C41   C     C_R   0.941362 0.372065 0.779352 0.031225
C42   C     C_R   0.915552 0.382846 0.706832 0.029861
C43   C     C_R   0.804244 0.241837 0.719619 -0.118189
C44   C     C_R   0.835189 0.227875 0.792505 -0.171402
C45   C     C_R   0.483244 0.284700 0.194136 -0.015681
C46   C     C_3   0.898061 0.523456 0.786099 -0.261539
C47   C     C_3   0.886188 0.531028 0.705827 -0.281157
C48   C     C_R   0.837898 0.325615 0.676913 0.036458
C49   C     C_R   0.319999 0.803791 0.834544 0.022750
C50   C     C_R   0.221123 0.784397 0.796364 -0.034204
C51   C     C_R   0.239555 0.746869 0.725260 0.030916
C52   C     C_R   0.765868 0.375711 0.609315 0.528118
C53   C     C_R   0.468895 0.724035 0.729815 -0.167308
C54   C     C_R   0.451138 0.758644 0.802766 -0.160413
C55   C     C_3   0.067010 0.879196 0.787286 -0.211581
C56   C     C_R   0.015719 0.647516 0.304799 -0.050812
C57   C     C_3   0.084076 0.832352 0.710009 0.154392
C58   C     C_R   0.358263 0.729249 0.688653 0.039811
C59   C     C_R   0.911916 0.314495 0.111610 0.612410
C60   C     C_R   0.327106 0.295516 0.092440 0.603659
C61   C     C_R   0.312346 0.890776 0.102335 0.584643
C62   C     C_R   0.941404 0.283865 0.897092 0.559251
C63   C     C_R   0.295573 0.286702 0.885097 0.522853
C64   C     C_R   0.825734 0.023393 0.057062 -0.055724
C65   C     C_R   0.277805 0.889168 0.899399 0.532469
C66   C     C_R   0.827847 0.982795 0.127746 -0.123934
C67   C     C_R   0.905643 0.733217 0.350325 -0.145122
C68   C     C_R   0.722392 0.072130 0.174716 -0.056989
C69   C     C_3   0.962838 0.939823 0.605663 0.036237
C70   C     C_3   0.978609 0.008161 0.538222 -0.222973
C71   C     C_3   0.891133 0.996904 0.477524 -0.447407
C72   C     C_R   0.622889 0.249505 0.082513 -0.101688
C73   C     C_R   0.723582 0.156988 0.034636 -0.067317
Cr1   Cr    Cr6+3 0.601740 0.606840 0.505840 0.974060
Cr2   Cr    Cr6+3 0.291500 0.601560 0.495070 0.977369
Cr3   Cr    Cr6+3 0.606780 0.291630 0.499130 0.956009
Cr4   Cr    Cr6+3 0.062440 0.063060 0.008240 0.994030
Cr5   Cr    Cr6+3 0.062950 0.375000 0.998920 1.061042
Cr6   Cr    Cr6+3 0.374550 0.061770 0.992470 1.043167
F1    F     F_    0.153170 0.151497 0.217593 -0.587371
F2    F     F_    0.481735 0.042826 0.213854 -0.613834
F3    F     F_    0.094787 0.486851 0.175192 -0.620696
H1    H     H_    0.594558 0.243920 0.293432 0.136987
H2    H     H_    0.299132 0.615964 0.280416 0.120806
H3    H     H_    0.720674 0.188699 0.979885 0.124460
H4    H     H_    0.284973 0.676046 0.153431 0.133133
H5    H     H_    0.622564 0.828339 0.201111 0.097875
H6    H     H_    0.621786 0.789818 0.329369 0.100161
H7    H     H_    0.488005 0.977756 0.341743 0.181567
H8    H     H_    0.191544 0.551202 0.681062 0.123486
H9    H     H_    0.186995 0.532241 0.811073 0.111930
H10   H     H_    0.506596 0.967894 0.787136 0.149189
H11   H     H_    0.586238 0.082011 0.799121 0.132076
H12   H     H_    0.804586 0.746654 0.450363 0.099062
H13   H     H_    0.601476 0.092611 0.673572 0.143753
H14   H     H_    0.837744 0.842665 0.337526 0.098482
H15   H     H_    0.515696 0.983728 0.660677 0.145308
H16   H     H_    0.742435 0.198093 0.698450 0.128168
H17   H     H_    0.802873 0.168419 0.825209 0.116084
H18   H     H_    0.979169 0.543306 0.808863 0.145650
H19   H     H_    0.794129 0.585079 0.812410 0.139300
H20   H     H_    0.781224 0.610330 0.686936 0.147110
H21   H     H_    0.971355 0.539766 0.679550 0.131506
H22   H     H_    0.564126 0.704247 0.704507 0.123629
H23   H     H_    0.964228 0.497520 0.481078 0.126071
H24   H     H_    0.534560 0.762794 0.832112 0.113929
H25   H     H_    0.041642 0.988404 0.794447 0.177671
H26   H     H_    0.904297 0.952218 0.019957 0.114610
H27   H     H_    0.004302 0.845783 0.819399 0.086429
H28   H     H_    0.032400 0.768349 0.701158 0.054828
H29   H     H_    0.908405 0.880220 0.145511 0.112365
H30   H     H_    0.721502 0.034436 0.227809 0.131458
H31   H     H_    0.034206 0.693715 0.258286 0.129464
H32   H     H_    0.543728 0.351922 0.063723 0.074672
H33   H     H_    0.851507 0.996946 0.623234 0.111657
H34   H     H_    0.145036 0.340677 0.396414 0.095014
H35   H     H_    0.989697 0.831259 0.590441 0.123518
H36   H     H_    0.947426 0.118400 0.548448 0.177480
H37   H     H_    0.089706 0.956636 0.521059 0.212175
H38   H     H_    0.933429 0.885426 0.463712 0.129509
H39   H     H_    0.897870 0.050882 0.429677 0.159836
H40   H     H_    0.779108 0.043802 0.493073 0.170260
H41   H     H_    0.666192 0.578698 0.303242 0.126900
H42   H     H_    0.714786 0.554735 0.175431 0.114146
H43   H     H_    0.086568 0.001993 0.215499 0.130046
H44   H     H_    0.044116 0.022762 0.340030 0.096683
H45   H     H_    0.094472 0.161344 0.346808 0.164810
O1    O     O_R   0.748670 0.497520 0.427970 -0.534255
O2    O     O_R   0.417470 0.174910 0.067830 -0.468969
O3    O     O_R   0.375160 0.946380 0.070880 -0.460158
O4    O     O_R   0.476470 0.723930 0.429450 -0.499963
O5    O     O_R   0.160500 0.919670 0.926690 -0.541307
O6    O     O_R   0.933140 0.190380 0.936050 -0.539614
O7    O     O_R   0.909010 0.403210 0.925030 -0.531164
O8    O     O_R   0.179590 0.361290 0.918480 -0.532219
O9    O     O_R   0.391360 0.170840 0.907510 -0.534953
O10   O     O_R   0.350950 0.942600 0.922260 -0.516978
O11   O     O_3   0.166650 0.166610 0.999880 -0.265154
O12   O     O_R   0.300170 0.471020 0.567120 -0.530241
O13   O     O_R   0.264730 0.744140 0.416740 -0.522171
O14   O     O_R   0.309440 0.472410 0.418220 -0.517218
O15   O     O_R   0.501630 0.260530 0.414310 -0.521921
O16   O     O_R   0.727920 0.305730 0.428950 -0.517024
O17   O     O_R   0.738670 0.496020 0.588600 -0.543340
O18   O     O_R   0.467190 0.722540 0.578350 -0.504239
O19   O     O_R   0.254720 0.742640 0.577370 -0.506363
O20   O     O_3   0.050291 0.942709 0.661205 -0.538186
O21   O     O_R   0.491630 0.259030 0.574940 -0.526594
O22   O     O_R   0.718640 0.304340 0.577850 -0.519861
O23   O     O_3   0.500010 0.500010 0.500020 -0.279259
O24   O     O_R   0.186620 0.923750 0.087000 -0.525761
O25   O     O_R   0.957350 0.194160 0.084660 -0.498403
O26   O     O_R   0.935120 0.407280 0.085350 -0.447669
O27   O     O_R   0.203800 0.365060 0.067090 -0.434530

loop_
_geom_bond_atom_site_label_1
_geom_bond_atom_site_label_2
_ccdc_geom_bond_type
C66   C68   A    
C21   C26   S    
C23   C45   A    
C22   C29   A    
C41   C42   A    
C71   H40   S    
C43   H16   S    
C5    C67   A    
Cr4   O24   S    
C37   H15   S    
C5    H12   S    
C59   O26   A    
C7    C8    A    
C39   C41   A    
C59   O25   A    
Cr6   O9    S    
C12   C68   A    
C28   O18   A    
C52   O17   A    
C49   C65   S    
C13   C18   S    
C5    C6    A    
C62   O6    A    
C21   C22   A    
C36   C37   S    
C10   C15   A    
C4    O15   A    
C30   C31   A    
C44   H17   S    
C20   C25   A    
C53   H22   S    
C49   C54   A    
Cr6   O2    S    
C40   O12   A    
C72   H32   S    
C37   H13   S    
C68   H30   S    
C20   C61   S    
Cr3   O15   S    
C24   C29   A    
C46   H18   S    
Cr1   O18   S    
C36   H11   S    
Cr1   O1    S    
C57   H28   S    
C26   H5    S    
C41   C46   S    
C70   C71   S    
C51   C57   S    
C32   C38   A    
C66   H29   S    
Cr2   O14   S    
Cr5   O8    S    
C65   O10   A    
C36   H10   S    
C12   C72   A    
C47   H20   S    
C30   C63   S    
C55   H27   S    
C8    C56   A    
C69   C70   S    
Cr4   O6    S    
Cr5   O11   S    
Cr4   O25   S    
C64   H26   S    
Cr2   O19   S    
C23   C60   S    
C46   H19   S    
C47   H21   S    
C15   H42   S    
C54   H24   S    
C16   O16   A    
C24   C25   A    
C3    C8    S    
C4    O14   A    
C51   C58   A    
C13   C19   A    
Cr5   O27   S    
C50   C51   A    
C53   C54   A    
Cr6   O3    S    
C17   F1    S    
C55   H25   S    
Cr4   O5    S    
C63   O8    A    
C7    H34   S    
C43   C44   A    
C3    C9    A    
C18   H45   S    
Cr5   O7    S    
C52   O22   A    
C31   C32   A    
Cr3   O23   S    
C70   H37   S    
C56   H31   S    
C1    C29   S    
C17   C18   S    
C26   C27   S    
C34   C45   A    
C42   C48   A    
C32   C37   S    
Cr4   O11   S    
C61   O24   A    
C73   H3    S    
C6    C7    A    
C1    O13   A    
C61   O3    A    
C71   H38   S    
Cr6   O10   S    
C64   C73   A    
C26   F2    S    
C22   C27   S    
C57   O20   S    
C67   H14   S    
C69   O20   S    
C2    F3    S    
C34   H1    S    
C65   O5    A    
C43   C48   A    
C39   C62   S    
Cr1   O17   S    
C46   C47   S    
C69   H33   S    
C40   O21   A    
C14   H41   S    
C31   C36   S    
C14   C19   A    
C71   H39   S    
C50   C55   S    
C72   C73   A    
C1    O4    A    
C11   C17   S    
C60   O2    A    
C53   C58   A    
Cr5   O26   S    
C39   C44   A    
C12   C45   S    
C28   C58   S    
C56   C67   A    
C30   C35   A    
C28   O19   A    
C33   C38   A    
Cr2   O13   S    
C63   O9    A    
C62   O7    A    
C55   C57   S    
C2    C3    A    
C24   H2    S    
Cr2   O12   S    
C33   H8    S    
C18   H44   S    
C38   C40   S    
C11   C13   A    
C17   H43   S    
C9    C34   A    
Cr3   O22   S    
C70   H36   S    
C16   C19   S    
C69   H35   S    
C25   H4    S    
C33   C35   A    
C6    H23   S    
C27   H7    S    
C42   C47   S    
C16   O1    A    
C27   H6    S    
C60   O27   A    
C10   C11   A    
Cr3   O16   S    
C48   C52   S    
Cr6   O11   S    
C20   C21   A    
Cr3   O21   S    
C49   C50   A    
C2    C23   A    
C14   C15   A    
Cr1   O23   S    
Cr2   O23   S    
C4    C9    S    
Cr1   O4    S    
C10   C59   S    
C64   C66   A    
C35   H9    S    
