data_mof_unit_7899.cif
_audit_creation_date              2012-12-10T16:54:59-0500
_audit_creation_method            fapswitch 2.2
_symmetry_space_group_name_H-M    P1
_symmetry_Int_Tables_number       1
_space_group_crystal_system       triclinic
_cell_length_a                    7.765144
_cell_length_b                    8.572301
_cell_length_c                    15.735243
_cell_angle_alpha                 90.808992
_cell_angle_beta                  85.821295
_cell_angle_gamma                 93.653479
_cell_volume                      1042.46413647

loop_
_atom_site_label
_atom_site_type_symbol
_atom_type_description
_atom_site_fract_x
_atom_site_fract_y
_atom_site_fract_z
_atom_type_partial_charge
C1    C     C_R   0.545813 0.794762 0.497818 0.959330
C2    C     C_2   0.430059 0.041759 0.503482 -0.377525
C3    C     C_R   0.502011 0.499730 0.661547 0.903845
C4    C     C_R   0.454189 0.205239 0.502207 0.961881
C5    C     C_R   0.498116 0.500147 0.338443 0.901922
C6    C     C_3   0.409614 0.627959 0.953066 -0.538499
C7    C     C_3   0.705280 0.523377 0.944222 -0.033287
C8    C     C_3   0.705994 0.516849 0.044636 0.197984
C9    C     C_1   0.495216 0.500478 0.249786 -0.149736
C10   C     C_3   0.515911 0.491053 0.916479 0.298058
C11   C     C_3   0.846398 0.432324 0.894014 -0.950908
C12   C     C_3   0.403946 0.630182 0.051148 -0.419007
C13   C     C_3   0.797936 0.671731 0.076489 -0.865435
C14   C     C_2   0.805046 0.379736 0.073314 0.429748
C15   C     C_3   0.490497 0.182157 0.916429 -0.938776
C16   C     C_3   0.510468 0.497756 0.082521 0.203183
C17   C     C_3   0.422273 0.340732 0.052218 -0.466424
C18   C     C_3   0.423645 0.336161 0.953766 0.050386
C19   C     C_1   0.499429 0.499862 0.174407 -0.049565
C20   C     C_1   0.511154 0.493786 0.825096 -0.073801
C21   C     C_1   0.506713 0.496765 0.750075 -0.191286
C22   C     C_2   0.569948 0.958244 0.496586 -0.376669
H1    H     H_    0.451375 0.746755 0.074605 0.185348
H2    H     H_    0.742436 0.645997 0.924197 0.170494
H3    H     H_    0.286207 0.334532 0.937248 0.166263
H4    H     H_    0.285504 0.329242 0.079373 0.212773
H5    H     H_    0.975322 0.469806 0.916179 0.238160
H6    H     H_    0.827090 0.304674 0.901506 0.251533
H7    H     H_    0.850963 0.458666 0.824983 0.261146
H8    H     H_    0.795725 0.676734 0.147124 0.266588
H9    H     H_    0.935472 0.680756 0.050883 0.243881
H10   H     H_    0.737957 0.776706 0.054720 0.208017
H11   H     H_    0.774049 0.262337 0.050556 0.045841
H12   H     H_    0.275005 0.615697 0.932642 0.188962
H13   H     H_    0.390337 0.085635 0.930157 0.239451
H14   H     H_    0.516520 0.188129 0.846261 0.258873
H15   H     H_    0.608107 0.149343 0.945625 0.237100
H16   H     H_    0.266769 0.613143 0.077114 0.214511
H17   H     H_    0.483884 0.239198 0.077435 0.169209
H18   H     H_    0.702054 0.009336 0.490013 0.181996
H19   H     H_    0.297953 0.990668 0.510060 0.181283
H20   H     H_    0.013547 0.382039 0.436575 0.200011
H21   H     H_    0.986448 0.617949 0.563431 0.191044
H22   H     H_    0.467257 0.742250 0.928365 0.186798
N1    N     N_2   0.950340 0.457950 0.477370 -0.168601
N2    N     N_2   0.049660 0.542050 0.522630 -0.173591
O1    O     O_R   0.389240 0.738570 0.505550 -0.613370
O2    O     O_R   0.678400 0.711630 0.491050 -0.630872
O3    O     O_R   0.355360 0.513470 0.630110 -0.613169
O4    O     O_R   0.644510 0.486530 0.615610 -0.624677
O5    O     O_R   0.321600 0.288370 0.508950 -0.631130
O6    O     O_R   0.610760 0.261430 0.494450 -0.612735
O7    O     O_R   0.355490 0.513470 0.384390 -0.618401
O8    O     O_R   0.644640 0.486530 0.369890 -0.599905
O9    O     O_2   0.920764 0.398435 0.121841 -0.594196
Zn1   Zn    Zn3+2 0.306930 0.517990 0.509680 0.949927
Zn2   Zn    Zn3+2 0.693070 0.482010 0.490320 0.956021

loop_
_geom_bond_atom_site_label_1
_geom_bond_atom_site_label_2
_ccdc_geom_bond_type
C6    C10   S    
C7    C10   S    
C2    C4    S    
C1    O2    A    
C5    C9    S    
C8    C13   S    
C15   C18   S    
O3    Zn1   S    
O2    Zn2   S    
C15   H14   S    
C13   H10   S    
C11   H5    S    
C22   H18   S    
C2    C22   D    
C14   H11   S    
C14   O9    D    
C3    O3    A    
C1    C22   S    
C8    C16   S    
C6    H22   S    
N1    N2    D    
O8    Zn2   S    
C7    C11   S    
O1    Zn1   S    
C12   H1    S    
N1    Zn2   S    
C18   H3    S    
C11   H6    S    
C10   C18   S    
C16   C19   S    
C17   H4    S    
C15   H13   S    
C3    O4    A    
C4    O6    A    
C17   C18   S    
C6    C12   S    
H21   N2    S    
C3    C21   S    
O6    Zn2   S    
C2    H19   S    
C7    H2    S    
C12   H16   S    
C12   C16   S    
C5    O8    A    
C7    C8    S    
C20   C21   T    
C11   H7    S    
C5    O7    A    
O5    Zn1   S    
C17   H17   S    
O7    Zn1   S    
N2    Zn1   S    
C1    O1    A    
C8    C14   S    
C4    O5    A    
C13   H8    S    
O4    Zn2   S    
C13   H9    S    
C15   H15   S    
C6    H12   S    
C9    C19   T    
C10   C20   S    
C16   C17   S    
H20   N1    S    
