data_mof_unit_33850.cif
_audit_creation_date              2012-12-10T18:54:29-0500
_audit_creation_method            fapswitch 2.2
_symmetry_space_group_name_H-M    P1
_symmetry_Int_Tables_number       1
_space_group_crystal_system       triclinic
_cell_length_a                    10.708273
_cell_length_b                    9.927191
_cell_length_c                    23.35266
_cell_angle_alpha                 89.265177
_cell_angle_beta                  94.016733
_cell_angle_gamma                 86.647729
_cell_volume                      2471.76742809

loop_
_atom_site_label
_atom_site_type_symbol
_atom_type_description
_atom_site_fract_x
_atom_site_fract_y
_atom_site_fract_z
_atom_type_partial_charge
C1    C     C_R   0.260239 0.504086 0.504539 0.901406
C2    C     C_R   0.739589 0.495643 0.495337 0.898144
C3    C     C_R   0.566215 0.363012 0.244145 -0.022727
C4    C     C_R   0.443348 0.357850 0.756719 -0.018248
C5    C     C_R   0.557809 0.373468 0.303251 -0.167897
C6    C     C_R   0.451776 0.370716 0.697609 -0.195994
C7    C     C_R   0.522560 0.496510 0.328031 -0.063408
C8    C     C_R   0.478181 0.493611 0.672223 -0.074793
C9    C     C_R   0.505741 0.613548 0.294100 -0.202231
C10   C     C_R   0.486771 0.608382 0.705801 -0.203580
C11   C     C_R   0.515010 0.607368 0.234963 0.040911
C12   C     C_R   0.480824 0.599006 0.765099 0.028487
C13   C     C_R   0.542609 0.481449 0.209709 0.200017
C14   C     C_R   0.461106 0.472963 0.790803 0.205889
C15   C     C_R   0.073086 0.392008 0.527925 -0.093552
C16   C     C_R   0.926552 0.604352 0.470033 -0.092671
C17   C     C_R   0.948295 0.373547 0.510627 -0.132634
C18   C     C_R   0.050635 0.624260 0.488133 -0.137076
C19   C     C_R   0.873217 0.486197 0.487847 -0.172090
C20   C     C_R   0.126186 0.511891 0.511244 -0.176612
C21   C     C_R   0.565898 0.065799 0.542763 -0.075162
C22   C     C_R   0.433455 0.934341 0.457218 -0.047493
C23   C     C_R   0.431361 0.078296 0.458207 -0.024595
C24   C     C_R   0.570702 0.922147 0.540985 -0.013043
C25   C     C_R   0.504889 0.499989 0.389539 0.920894
C26   C     C_R   0.495055 0.499031 0.610524 0.922921
C27   C     C_R   0.589825 0.453547 0.879239 0.542785
C28   C     C_R   0.414947 0.470313 0.121451 0.545012
C29   C     C_R   0.366335 0.463213 0.881379 0.558566
C30   C     C_R   0.638176 0.468715 0.119219 0.557144
C31   C     C_R   0.376130 0.461620 0.941333 -0.016598
C32   C     C_R   0.628670 0.462457 0.059367 -0.010872
C33   C     C_R   0.496348 0.458928 0.970251 -0.022247
C34   C     C_R   0.508559 0.462200 0.030492 -0.020550
C35   C     C_R   0.604362 0.454120 0.939066 -0.018815
C36   C     C_R   0.400565 0.466083 0.061685 -0.020050
C37   C     C_R   0.269178 0.464777 0.972846 -0.164762
C38   C     C_R   0.735702 0.456977 0.027885 -0.164317
C39   C     C_R   0.281316 0.466516 0.032560 -0.168064
C40   C     C_R   0.723663 0.452318 0.968214 -0.165503
H1    H     H_    0.175938 0.466532 0.951519 0.192153
H2    H     H_    0.828892 0.456626 0.049188 0.191858
H3    H     H_    0.197081 0.469389 0.055743 0.193913
H4    H     H_    0.807917 0.448742 0.945039 0.194057
H5    H     H_    0.576817 0.284206 0.330255 0.241320
H6    H     H_    0.439062 0.283479 0.671037 0.239329
H7    H     H_    0.483700 0.709280 0.313396 0.193418
H8    H     H_    0.499828 0.705135 0.686407 0.229703
N1    N     N_R   0.472337 0.460638 0.851925 -0.336191
N2    N     N_R   0.532118 0.472783 0.148647 -0.337254
N3    N     N_R   0.500000 0.857200 0.500000 -0.154467
N4    N     N_R   0.500000 0.142800 0.500000 -0.163497
O1    O     O_R   0.316770 0.614620 0.500000 -0.564032
O2    O     O_R   0.683230 0.385380 0.500000 -0.569360
O3    O     O_R   0.683230 0.614620 0.500000 -0.616061
O4    O     O_R   0.316770 0.385380 0.500000 -0.611658
O5    O     O_R   0.499970 0.614690 0.416160 -0.605595
O6    O     O_R   0.500030 0.385310 0.583840 -0.615923
O7    O     O_R   0.500030 0.614690 0.583840 -0.603413
O8    O     O_R   0.499970 0.385310 0.416160 -0.613400
O9    O     O_2   0.691876 0.447707 0.848333 -0.557125
O10   O     O_2   0.312990 0.472336 0.152390 -0.553740
O11   O     O_2   0.252396 0.468383 0.852532 -0.547728
O12   O     O_2   0.751871 0.470158 0.147989 -0.552390
Zn1   Zn    Zn3+2 0.500000 0.653120 0.500000 1.046972
Zn2   Zn    Zn3+2 0.500000 0.346880 0.500000 1.035728
C41   C     C_2   0.594383 0.226427 0.220273 0.966167
O13   O     O_2   0.594050 0.209624 0.168539 -0.648929
O14   O     O_R   0.620863 0.115297 0.257556 -0.771059
H9    H     H_    0.638558 0.028203 0.236614 0.360191
C42   C     C_2   0.420698 0.222166 0.780976 0.958509
O15   O     O_2   0.422167 0.202685 0.832772 -0.645061
O16   O     O_R   0.397368 0.115208 0.744006 -0.766755
H10   H     H_    0.382781 0.028429 0.765189 0.361724
C43   C     C_R   0.486639 0.731556 0.199429 0.110813
C44   C     C_R   0.576320 0.780403 0.164583 -0.187371
C45   C     C_R   0.547027 0.894780 0.129562 -0.126644
C46   C     C_R   0.428714 0.962106 0.129597 -0.057633
C47   C     C_R   0.339605 0.915308 0.164753 -0.112278
C48   C     C_R   0.368215 0.800364 0.199500 -0.098979
H11   H     H_    0.668911 0.730537 0.164720 0.181857
H12   H     H_    0.616326 0.931730 0.102652 0.164655
H13   H     H_    0.406319 0.050899 0.102598 0.158206
H14   H     H_    0.248066 0.967628 0.164823 0.154897
H15   H     H_    0.297541 0.763748 0.225774 0.150088
C49   C     C_R   0.506790 0.718815 0.800327 0.096441
C50   C     C_R   0.420253 0.769484 0.838399 -0.195726
C51   C     C_R   0.450109 0.875803 0.874587 -0.123219
C52   C     C_R   0.565583 0.933670 0.872414 -0.061347
C53   C     C_R   0.650645 0.886605 0.833489 -0.129511
C54   C     C_R   0.621560 0.779616 0.797550 -0.061052
H16   H     H_    0.329961 0.726741 0.840169 0.177483
H17   H     H_    0.383596 0.913563 0.904225 0.160841
H18   H     H_    0.588638 0.015864 0.900506 0.161451
H19   H     H_    0.739645 0.932206 0.831533 0.155572
H20   H     H_    0.689551 0.742236 0.768462 0.172064
C55   C     C_2   0.148156 0.290236 0.565674 1.021793
O17   O     O_2   0.194931 0.324923 0.612018 -0.628427
O18   O     O_R   0.170209 0.157964 0.547324 -0.725124
H21   H     H_    0.225459 0.100435 0.576280 0.364893
C56   C     C_2   0.852261 0.700727 0.429625 1.032539
O19   O     O_2   0.809797 0.660222 0.383439 -0.626738
O20   O     O_R   0.824726 0.833896 0.445285 -0.739695
H22   H     H_    0.769771 0.886569 0.414614 0.346148
C57   C     C_2   0.901028 0.235359 0.510588 1.064972
O21   O     O_2   0.921993 0.159944 0.552395 -0.553250
O22   O     O_R   0.834264 0.190751 0.461530 -0.766603
H23   H     H_    0.803512 0.097255 0.467064 0.364047
C58   C     C_2   0.094949 0.763820 0.489328 1.075342
O23   O     O_2   0.150202 0.803550 0.532954 -0.581788
O24   O     O_R   0.070115 0.851407 0.441997 -0.747452
H24   H     H_    0.101254 0.944549 0.449406 0.380066
C59   C     C_2   0.625589 0.129817 0.593794 0.960590
O25   O     O_2   0.696099 0.220218 0.588476 -0.576838
O26   O     O_R   0.602583 0.084022 0.648720 -0.776102
H25   H     H_    0.649998 0.133534 0.680269 0.351098
C60   C     C_2   0.368583 0.870375 0.407275 0.922056
O27   O     O_2   0.302560 0.776729 0.414031 -0.584480
O28   O     O_R   0.379628 0.920975 0.351841 -0.787031
H26   H     H_    0.322352 0.877507 0.321988 0.337612
C61   C     C_2   0.344593 0.158274 0.417116 1.015219
O29   O     O_2   0.377698 0.188655 0.369895 -0.585678
O30   O     O_R   0.221279 0.188869 0.430607 -0.781923
H27   H     H_    0.169835 0.241541 0.398796 0.349142
C62   C     C_2   0.665120 0.844397 0.579171 1.008464
O31   O     O_2   0.640287 0.810569 0.627216 -0.628073
O32   O     O_R   0.786801 0.821373 0.562114 -0.752358
H28   H     H_    0.844301 0.769895 0.592220 0.348971

loop_
_geom_bond_atom_site_label_1
_geom_bond_atom_site_label_2
_ccdc_geom_bond_type
C22   C60   S    
C38   C40   A    
C50   C51   A    
C29   O11   S    
C56   O19   D    
C30   O12   S    
C8    C26   S    
O16   H10   S    
O24   H24   S    
C18   C58   S    
C55   O17   D    
C23   N4    A    
O30   H27   S    
C23   C61   S    
C29   N1    A    
C45   C46   A    
C57   O22   S    
C1    O4    A    
C38   H2    S    
C49   C54   A    
C58   O24   S    
C47   H14   S    
C14   N1    S    
O26   H25   S    
C15   C17   A    
N3    Zn1   S    
C52   H18   S    
C1    O1    A    
C27   O9    S    
C55   O18   S    
C54   H20   S    
C28   N2    A    
C46   H13   S    
O6    Zn2   S    
O22   H23   S    
C31   C33   A    
C25   O8    A    
C32   C38   A    
O1    Zn1   S    
C43   C48   A    
C18   C20   A    
C3    C13   A    
C24   N3    A    
C30   N2    A    
O8    Zn2   S    
C56   O20   S    
C50   H16   S    
C4    C14   A    
C25   O5    A    
C15   C55   S    
O3    Zn1   S    
C15   C20   A    
C41   O13   D    
C53   H19   S    
C44   C45   A    
C4    C6    A    
C2    O2    A    
C42   O16   S    
C49   C50   A    
C17   C19   A    
C39   H3    S    
C27   C35   A    
C5    H5    S    
C13   N2    S    
C41   O14   S    
C32   C34   A    
C43   C44   A    
C48   H15   S    
C17   C57   S    
C26   O6    A    
O18   H21   S    
C29   C31   A    
C33   C34   A    
C16   C18   A    
C9    C11   A    
C61   O29   D    
C10   C12   A    
C21   C59   S    
C12   C14   A    
C9    H7    S    
C10   H8    S    
C62   O31   D    
O32   H28   S    
N4    Zn2   S    
C5    C7    A    
C59   O25   D    
C26   O7    A    
C7    C9    A    
C51   H17   S    
C1    C20   S    
C6    H6    S    
C2    C19   S    
C46   C47   A    
C36   C39   A    
C3    C41   S    
O5    Zn1   S    
C3    C5    A    
C44   H11   S    
C6    C8    A    
O28   H26   S    
O2    Zn2   S    
C57   O21   D    
C7    C25   S    
C12   C49   S    
C2    O3    A    
C60   O28   S    
C35   C40   A    
C42   O15   D    
C37   C39   A    
C11   C43   S    
C60   O27   D    
O7    Zn1   S    
C30   C32   A    
C11   C13   A    
C53   C54   A    
C24   C62   S    
C45   H12   S    
C16   C19   A    
O4    Zn2   S    
C33   C35   A    
C34   C36   A    
C21   N4    A    
C37   H1    S    
O14   H9    S    
C61   O30   S    
C47   C48   A    
C31   C37   A    
C16   C56   S    
C40   H4    S    
C51   C52   A    
C28   C36   A    
C8    C10   A    
C21   C24   A    
O20   H22   S    
C62   O32   S    
C22   C23   A    
C52   C53   A    
C58   O23   D    
C4    C42   S    
C27   N1    A    
C22   N3    A    
C59   O26   S    
C28   O10   S    
