data_mof_unit_59149.cif
_audit_creation_date              2012-12-10T19:00:48-0500
_audit_creation_method            fapswitch 2.2
_symmetry_space_group_name_H-M    P1
_symmetry_Int_Tables_number       1
_space_group_crystal_system       triclinic
_cell_length_a                    15.082368
_cell_length_b                    10.827172
_cell_length_c                    9.532721
_cell_angle_alpha                 89.866441
_cell_angle_beta                  90.012102
_cell_angle_gamma                 90.142478
_cell_volume                      1556.67847297

loop_
_atom_site_label
_atom_site_type_symbol
_atom_type_description
_atom_site_fract_x
_atom_site_fract_y
_atom_site_fract_z
_atom_type_partial_charge
C1    C     C_R   0.501462 0.262323 0.500162 0.799829
C2    C     C_R   0.907110 0.499605 0.628532 0.109273
C3    C     C_R   0.953726 0.499649 0.244288 -0.208841
C4    C     C_R   0.046166 0.499638 0.244288 -0.210184
C5    C     C_R   0.092872 0.499652 0.371475 0.109288
C6    C     C_R   0.046467 0.499676 0.500006 0.062026
C7    C     C_R   0.092911 0.499673 0.628535 0.110135
C8    C     C_R   0.046243 0.499657 0.755720 -0.211011
C9    C     C_R   0.953802 0.499609 0.755720 -0.208920
C10   C     C_R   0.185251 0.499659 0.372379 -0.245580
C11   C     C_R   0.231665 0.499723 0.499999 -0.073385
C12   C     C_R   0.328567 0.499854 0.500001 0.812817
C13   C     C_R   0.185289 0.499699 0.627627 -0.251207
C14   C     C_R   0.506889 0.063415 0.626544 0.100605
C15   C     C_R   0.509742 0.129306 0.500544 -0.119768
C16   C     C_R   0.524135 0.064900 0.374781 -0.195411
C17   C     C_R   0.523576 0.936216 0.374526 -0.209708
C18   C     C_R   0.508800 0.870947 0.500008 -0.092389
C19   C     C_R   0.506055 0.936093 0.626077 0.097198
C20   C     C_3   0.440156 0.929495 0.743143 -0.500889
C21   C     C_3   0.441390 0.070082 0.743951 -0.220977
C22   C     C_R   0.574066 0.534557 0.073530 0.267844
C23   C     C_R   0.501078 0.737745 0.499881 0.805727
C24   C     C_R   0.430333 0.453487 0.074506 -0.056223
C25   C     C_R   0.430288 0.453600 0.925656 -0.062535
C26   C     C_R   0.574167 0.534174 0.926133 0.268995
C27   C     C_3   0.620652 0.655633 0.919241 -0.505963
C28   C     C_3   0.619939 0.656598 0.078529 -0.510825
C29   C     C_R   0.671431 0.499957 0.500003 0.815279
C30   C     C_R   0.814740 0.499500 0.627619 -0.245234
C31   C     C_R   0.768326 0.499735 0.500011 -0.071804
C32   C     C_R   0.814704 0.499616 0.372393 -0.245582
C33   C     C_R   0.907073 0.499657 0.371480 0.109374
C34   C     C_R   0.953518 0.499680 0.500006 0.062031
Cu1   Cu    Cu3+1 0.500000 0.499980 0.640670 0.947337
Cu2   Cu    Cu3+1 0.500000 0.500020 0.359330 0.948395
H1    H     H_    0.779157 0.499050 0.726406 0.149950
H2    H     H_    0.530606 0.888702 0.275552 0.159419
H3    H     H_    0.375476 0.890280 0.708886 0.192405
H4    H     H_    0.468277 0.885670 0.838849 0.194114
H5    H     H_    0.377424 0.113497 0.713634 0.142405
H6    H     H_    0.373463 0.417098 0.129974 0.135094
H7    H     H_    0.373410 0.417223 0.870342 0.131081
H8    H     H_    0.688380 0.647453 0.874432 0.191732
H9    H     H_    0.579310 0.729385 0.871780 0.216644
H10   H     H_    0.687277 0.649943 0.125209 0.193080
H11   H     H_    0.779092 0.499310 0.273597 0.150075
H12   H     H_    0.577477 0.730421 0.122758 0.210344
H13   H     H_    0.918737 0.499667 0.144961 0.136009
H14   H     H_    0.081112 0.499623 0.144956 0.134974
H15   H     H_    0.220857 0.499650 0.273568 0.148185
H16   H     H_    0.220924 0.499731 0.726436 0.147895
H17   H     H_    0.081220 0.499669 0.855049 0.134962
H18   H     H_    0.918843 0.499606 0.855043 0.136059
H19   H     H_    0.531716 0.113319 0.275976 0.189917
N1    N     N_R   0.500570 0.500930 0.147930 -0.187806
N2    N     N_R   0.500570 0.500890 0.852020 -0.187253
O1    O     O_R   0.500000 0.319640 0.618810 -0.577475
O2    O     O_R   0.500010 0.319680 0.381230 -0.576687
O3    O     O_R   0.370250 0.499950 0.618800 -0.596151
O4    O     O_R   0.370260 0.499990 0.381220 -0.592545
O5    O     O_R   0.499990 0.680320 0.618770 -0.578812
O6    O     O_R   0.500000 0.680360 0.381190 -0.585986
O7    O     O_R   0.629740 0.500010 0.618780 -0.586243
O8    O     O_R   0.629750 0.500050 0.381200 -0.586763
C35   C     C_1   0.481179 0.122346 0.871701 0.300617
N3    N     N_1   0.512568 0.163362 0.972161 -0.318958

loop_
_geom_bond_atom_site_label_1
_geom_bond_atom_site_label_2
_ccdc_geom_bond_type
C8    H17   S    
C11   C12   S    
C6    C7    A    
C1    C15   S    
C21   C35   S    
C24   N1    A    
Cu2   O6    S    
C24   H6    S    
C19   C20   S    
Cu1   N2    S    
C30   C31   A    
C2    C30   A    
Cu2   O2    S    
C32   C33   A    
C27   H9    S    
C23   O6    A    
C17   C18   A    
C3    H13   S    
C16   H19   S    
C5    C10   A    
C29   C31   S    
C22   C28   S    
C1    O1    A    
C24   C25   A    
C12   O4    A    
C11   C13   A    
C28   H10   S    
C26   C27   S    
Cu1   O7    S    
C25   N2    A    
Cu1   O1    S    
C29   O8    A    
C10   H15   S    
C14   C19   A    
C14   C21   S    
C25   H7    S    
C32   H11   S    
C33   C34   A    
Cu1   O5    S    
C17   H2    S    
C1    O2    A    
Cu2   O4    S    
C5    C6    A    
C20   H4    S    
C26   N2    A    
C21   H5    S    
C29   O7    A    
C7    C8    A    
C10   C11   A    
C3    C33   A    
C18   C23   S    
C13   H16   S    
C6    C34   A    
C7    C13   A    
C35   N3    T    
C20   C21   S    
C30   H1    S    
C18   C19   A    
C22   C26   A    
Cu2   N1    S    
C27   C28   S    
C20   H3    S    
Cu2   O8    S    
Cu1   O3    S    
C22   N1    A    
C9    H18   S    
C23   O5    A    
C2    C34   A    
C14   C15   A    
C2    C9    A    
C4    C5    A    
C27   H8    S    
C31   C32   A    
C28   H12   S    
C3    C4    A    
C15   C16   A    
C16   C17   A    
C4    H14   S    
C8    C9    A    
Cu1   Cu2   S    
C12   O3    A    
