data_mof_unit_64365.cif
_audit_creation_date              2012-12-10T17:49:55-0500
_audit_creation_method            fapswitch 2.2
_symmetry_space_group_name_H-M    P1
_symmetry_Int_Tables_number       1
_space_group_crystal_system       triclinic
_cell_length_a                    44.489264
_cell_length_b                    39.001157
_cell_length_c                    21.54701
_cell_angle_alpha                 90.168243
_cell_angle_beta                  118.764939
_cell_angle_gamma                 90.016517
_cell_volume                      32773.2229937

loop_
_atom_site_label
_atom_site_type_symbol
_atom_type_description
_atom_site_fract_x
_atom_site_fract_y
_atom_site_fract_z
_atom_type_partial_charge
C1    C     C_R   0.066207 0.000052 0.566191 0.783732
C2    C     C_R   0.933790 0.999993 0.433822 0.783599
C3    C     C_R   0.566207 0.500052 0.566190 0.783845
C4    C     C_R   0.433790 0.499993 0.433822 0.783716
C5    C     C_3   0.010274 0.964782 0.222796 -0.392911
C6    C     C_3   0.973936 0.972584 0.759785 -0.377724
C7    C     C_3   0.510276 0.464782 0.222798 -0.393270
C8    C     C_3   0.473926 0.472592 0.759774 -0.377812
C9    C     C_R   0.377947 0.985269 0.927464 -0.184493
C10   C     C_R   0.621968 0.985178 0.072264 -0.184404
C11   C     C_R   0.877947 0.485266 0.927460 -0.184490
C12   C     C_R   0.121968 0.485174 0.072269 -0.184402
C13   C     C_R   0.342158 0.984961 0.891432 -0.167719
C14   C     C_R   0.657754 0.984775 0.108307 -0.167789
C15   C     C_R   0.842158 0.484959 0.891428 -0.167716
C16   C     C_R   0.157754 0.484772 0.108312 -0.167784
C17   C     C_R   0.323873 0.000272 0.824334 0.106511
C18   C     C_R   0.676131 0.999998 0.175708 0.106527
C19   C     C_R   0.823873 0.500275 0.824334 0.106514
C20   C     C_R   0.176131 0.500000 0.175707 0.106528
C21   C     C_R   0.342392 0.015544 0.793988 -0.167934
C22   C     C_R   0.657703 0.015285 0.206333 -0.167911
C23   C     C_R   0.842393 0.515552 0.793994 -0.168281
C24   C     C_R   0.157703 0.515292 0.206327 -0.168250
C25   C     C_R   0.378172 0.015100 0.829342 -0.184134
C26   C     C_R   0.621921 0.014938 0.170951 -0.184205
C27   C     C_R   0.878172 0.515107 0.829348 -0.184443
C28   C     C_R   0.121920 0.514944 0.170945 -0.184504
C29   C     C_R   0.396202 0.000135 0.896482 -0.026589
C30   C     C_R   0.603800 0.000057 0.103519 -0.026600
C31   C     C_R   0.896202 0.500137 0.896482 -0.026586
C32   C     C_R   0.103800 0.500058 0.103518 -0.026604
C33   C     C_R   0.267435 0.998294 0.711758 -0.177245
C34   C     C_R   0.732548 0.997842 0.288261 -0.177355
C35   C     C_R   0.767436 0.498303 0.711758 -0.177281
C36   C     C_R   0.232548 0.497851 0.288261 -0.177390
C37   C     C_R   0.231655 0.998713 0.675986 -0.177005
C38   C     C_R   0.768331 0.998223 0.324061 -0.176987
C39   C     C_R   0.731656 0.498721 0.675986 -0.177115
C40   C     C_R   0.268330 0.498231 0.324062 -0.177094
C41   C     C_R   0.213514 0.000306 0.713951 0.091981
C42   C     C_R   0.786485 0.999858 0.286144 0.091723
C43   C     C_R   0.713514 0.500308 0.713950 0.091963
C44   C     C_R   0.286485 0.499859 0.286144 0.091706
C45   C     C_R   0.000785 0.999956 0.380537 0.759273
C46   C     C_R   0.999203 0.000088 0.619450 0.759187
C47   C     C_R   0.500785 0.499956 0.380537 0.759367
C48   C     C_R   0.499204 0.500088 0.619451 0.759311
C49   C     C_R   0.231429 0.001888 0.787991 -0.176954
C50   C     C_R   0.768594 0.001498 0.212137 -0.176807
C51   C     C_R   0.731429 0.501885 0.787991 -0.177016
C52   C     C_R   0.268594 0.501494 0.212137 -0.176868
C53   C     C_R   0.267215 0.002288 0.823816 -0.177276
C54   C     C_R   0.732810 0.001934 0.176296 -0.177367
C55   C     C_R   0.767215 0.502285 0.823817 -0.177471
C56   C     C_R   0.232810 0.501930 0.176295 -0.177556
C57   C     C_R   0.285730 0.000288 0.786198 0.100422
C58   C     C_R   0.714274 0.999919 0.213858 0.100435
C59   C     C_R   0.785731 0.500291 0.786199 0.100360
C60   C     C_R   0.214273 0.499921 0.213858 0.100375
C61   C     C_R   0.157727 0.973491 0.686571 -0.169066
C62   C     C_R   0.842220 0.972939 0.313876 -0.169071
C63   C     C_R   0.657728 0.473492 0.686571 -0.169097
C64   C     C_R   0.342220 0.472940 0.313875 -0.169102
C65   C     C_R   0.121939 0.973192 0.649972 -0.191575
C66   C     C_R   0.878010 0.972742 0.350454 -0.192014
C67   C     C_R   0.621939 0.473193 0.649972 -0.191766
C68   C     C_R   0.378010 0.472743 0.350453 -0.192206
C69   C     C_R   0.103886 0.000136 0.604009 -0.026968
C70   C     C_R   0.896105 0.999946 0.396060 -0.027106
C71   C     C_R   0.603886 0.500137 0.604008 -0.026912
C72   C     C_R   0.396105 0.499947 0.396061 -0.027047
C73   C     C_R   0.122111 0.027160 0.594490 -0.193058
C74   C     C_R   0.877914 0.027124 0.405256 -0.192881
C75   C     C_R   0.622111 0.527160 0.594489 -0.193111
C76   C     C_R   0.377915 0.527124 0.405258 -0.192932
C77   C     C_R   0.157905 0.026998 0.629745 -0.168822
C78   C     C_R   0.842122 0.026871 0.370025 -0.168841
C79   C     C_R   0.657905 0.526998 0.629744 -0.168950
C80   C     C_R   0.342122 0.526872 0.370028 -0.168968
C81   C     C_R   0.175853 0.000275 0.676254 0.100128
C82   C     C_R   0.824139 0.999891 0.323865 0.099989
C83   C     C_R   0.675853 0.500276 0.676254 0.100206
C84   C     C_R   0.324139 0.499892 0.323866 0.100069
C85   C     C_R   0.000029 0.066173 0.999983 0.783550
C86   C     C_R   0.500029 0.566173 0.999983 0.783520
C87   C     C_3   0.027272 0.026311 0.312970 -0.379363
C88   C     C_3   0.989945 0.036017 0.705876 -0.356971
C89   C     C_3   0.527271 0.526312 0.312968 -0.379402
C90   C     C_3   0.489959 0.536020 0.705891 -0.357013
C91   C     C_R   0.999945 0.000787 0.120131 0.759482
C92   C     C_R   0.000056 0.999301 0.879868 0.759430
C93   C     C_R   0.499945 0.500787 0.120131 0.759347
C94   C     C_R   0.500056 0.499300 0.879868 0.759308
C95   C     C_R   0.999971 0.933803 0.999995 0.783675
C96   C     C_R   0.499971 0.433804 0.000002 0.783600
C97   C     C_R   0.500014 0.933844 0.999936 0.783451
C98   C     C_R   0.000014 0.433844 0.999936 0.783453
C99   C     C_R   0.433907 0.000025 0.933996 0.783200
C100  C     C_R   0.566094 0.000017 0.066005 0.783135
C101  C     C_R   0.933907 0.500026 0.933996 0.782998
C102  C     C_R   0.066094 0.500017 0.066005 0.782965
C103  C     C_R   0.500005 0.066040 0.000084 0.782332
C104  C     C_R   0.000000 0.566039 0.000081 0.782140
C105  C     C_R   0.485234 0.877912 0.935747 -0.184519
C106  C     C_R   0.514997 0.878090 0.063895 -0.184221
C107  C     C_R   0.985234 0.377912 0.935747 -0.184434
C108  C     C_R   0.014997 0.378090 0.063895 -0.184137
C109  C     C_R   0.484903 0.842126 0.935664 -0.167764
C110  C     C_R   0.515418 0.842312 0.063897 -0.167952
C111  C     C_R   0.984904 0.342126 0.935664 -0.167692
C112  C     C_R   0.015418 0.342312 0.063897 -0.167880
C113  C     C_R   0.500172 0.823818 0.999764 0.106532
C114  C     C_R   0.000172 0.323818 0.999764 0.106497
C115  C     C_R   0.500083 0.896142 0.999845 -0.026597
C116  C     C_R   0.000083 0.396142 0.999845 -0.026649
C117  C     C_R   0.498137 0.767360 0.053839 -0.177285
C118  C     C_R   0.502232 0.767193 0.945660 -0.177316
C119  C     C_R   0.998137 0.267360 0.053839 -0.177215
C120  C     C_R   0.002232 0.267193 0.945661 -0.177244
C121  C     C_3   0.026167 0.027404 0.240336 -0.379571
C122  C     C_3   0.989580 0.035266 0.777034 -0.395247
C123  C     C_3   0.526166 0.527405 0.240335 -0.379583
C124  C     C_3   0.489592 0.535269 0.777048 -0.395260
C125  C     C_R   0.998560 0.231581 0.054236 -0.177033
C126  C     C_R   0.001836 0.231409 0.945286 -0.176939
C127  C     C_R   0.498560 0.731581 0.054236 -0.177097
C128  C     C_R   0.501836 0.731409 0.945286 -0.177001
C129  C     C_R   0.000206 0.213469 0.999771 0.091969
C130  C     C_R   0.500206 0.713469 0.999771 0.092014
C131  C     C_R   0.500181 0.785679 0.999749 0.100440
C132  C     C_R   0.000181 0.285679 0.999749 0.100408
C133  C     C_R   0.973457 0.157685 0.944493 -0.169131
C134  C     C_R   0.026889 0.157865 0.055110 -0.168842
C135  C     C_R   0.473457 0.657685 0.944493 -0.169181
C136  C     C_R   0.526889 0.657865 0.055110 -0.168893
C137  C     C_R   0.973178 0.121898 0.945003 -0.191774
C138  C     C_R   0.027072 0.122073 0.054734 -0.193048
C139  C     C_R   0.473178 0.621898 0.945003 -0.191795
C140  C     C_R   0.527072 0.622073 0.054734 -0.193071
C141  C     C_R   0.000095 0.103849 0.999912 -0.026878
C142  C     C_R   0.500095 0.603849 0.999912 -0.026867
C143  C     C_R   0.000193 0.175810 0.999774 0.100203
C144  C     C_R   0.500193 0.675810 0.999774 0.100218
C145  C     C_R   0.484989 0.121899 0.034537 -0.184196
C146  C     C_R   0.514991 0.121899 0.966018 -0.184055
C147  C     C_R   0.984979 0.621889 0.034708 -0.186260
C148  C     C_R   0.014984 0.621926 0.965932 -0.186220
C149  C     C_R   0.484562 0.157686 0.033843 -0.167738
C150  C     C_R   0.515316 0.157684 0.966741 -0.167838
C151  C     C_R   0.984582 0.657683 0.034048 -0.168598
C152  C     C_R   0.015333 0.657720 0.966824 -0.168596
C153  C     C_R   0.499899 0.176093 0.000269 0.106438
C154  C     C_R   0.999944 0.675741 0.000491 0.098710
C155  C     C_3   0.964721 0.010131 0.252169 -0.393323
C156  C     C_3   0.035309 0.990080 0.747856 -0.395247
C157  C     C_3   0.464720 0.510129 0.252169 -0.393360
C158  C     C_3   0.535306 0.490066 0.747854 -0.395325
C159  C     C_R   0.500005 0.103751 0.000245 -0.026465
C160  C     C_R   0.999992 0.603749 0.000256 -0.025699
C161  C     C_R   0.497934 0.232550 0.942173 -0.177207
C162  C     C_R   0.501634 0.232758 0.058135 -0.177217
C163  C     C_R   0.030922 0.731514 0.033678 -0.176342
C164  C     C_R   0.968898 0.731360 0.967482 -0.176223
C165  C     C_R   0.030924 0.767300 0.034379 -0.178017
C166  C     C_R   0.968867 0.767145 0.966667 -0.178060
C167  C     C_R   0.498320 0.268334 0.942562 -0.177016
C168  C     C_R   0.501200 0.268544 0.057658 -0.176793
C169  C     C_R   0.999890 0.785633 0.000461 0.099355
C170  C     C_R   0.499761 0.286469 0.000097 0.091765
C171  C     C_R   0.499814 0.214243 0.000191 0.100376
C172  C     C_R   0.999919 0.713407 0.000585 0.091876
C173  C     C_R   0.972997 0.842229 0.001590 -0.168118
C174  C     C_R   0.026780 0.842151 0.998803 -0.167946
C175  C     C_R   0.472908 0.342223 0.001430 -0.169089
C176  C     C_R   0.526762 0.342124 0.998733 -0.168821
C177  C     C_R   0.972824 0.878014 0.000588 -0.189947
C178  C     C_R   0.026982 0.877936 0.999542 -0.190478
C179  C     C_R   0.472729 0.378016 0.000484 -0.192093
C180  C     C_R   0.527036 0.377918 0.999593 -0.192758
C181  C     C_R   0.999915 0.896111 0.000011 -0.028036
C182  C     C_R   0.499906 0.396113 0.000010 -0.027199
C183  C     C_R   0.999887 0.823783 0.000285 0.107617
C184  C     C_R   0.499811 0.324134 0.000099 0.100103
C185  C     C_3   0.009902 0.964020 0.293941 -0.356331
C186  C     C_3   0.972821 0.973662 0.687146 -0.377194
C187  C     C_3   0.509904 0.464020 0.293943 -0.356753
C188  C     C_3   0.472812 0.473671 0.687136 -0.377425
C189  C     C_3   0.000759 0.999996 0.311547 0.159008
C190  C     C_3   0.999231 0.000072 0.688439 0.159279
C191  C     C_3   0.500759 0.499996 0.311547 0.159365
C192  C     C_3   0.499232 0.500072 0.688440 0.159510
C193  C     C_3   0.999972 0.000770 0.189120 0.158931
C194  C     C_3   0.000027 0.999323 0.810876 0.159167
C195  C     C_3   0.499972 0.500769 0.189120 0.159298
C196  C     C_3   0.500027 0.499322 0.810876 0.159383
C197  C     C_3   0.963954 0.009750 0.179883 -0.356756
C198  C     C_3   0.036078 0.990477 0.820143 -0.356696
C199  C     C_3   0.463954 0.509748 0.179883 -0.356751
C200  C     C_3   0.536075 0.490462 0.820141 -0.356735
Cu1   Cu    Cu3+1 0.000000 0.034220 0.500000 0.921981
Cu2   Cu    Cu3+1 0.500000 0.534220 0.500000 0.921804
Cu3   Cu    Cu3+1 1.000000 0.965810 0.500000 0.923115
Cu4   Cu    Cu3+1 0.500000 0.465810 0.500000 0.921845
Cu5   Cu    Cu3+1 0.034220 0.999990 0.034180 0.921772
Cu6   Cu    Cu3+1 0.965780 0.999990 0.965820 0.921493
Cu7   Cu    Cu3+1 0.534220 0.499990 0.034180 0.921899
Cu8   Cu    Cu3+1 0.465780 0.499990 0.965820 0.921615
Cu9   Cu    Cu3+1 0.500020 0.999940 0.937520 0.936836
Cu10  Cu    Cu3+1 0.499980 0.999940 0.062480 0.936836
Cu11  Cu    Cu3+1 0.000020 0.499940 0.937520 0.937140
Cu12  Cu    Cu3+1 0.999980 0.499940 0.062480 0.937129
H1    H     H_    0.021757 0.052399 0.325967 0.176834
H2    H     H_    0.008972 0.055446 0.709039 0.175694
H3    H     H_    0.521755 0.552400 0.325964 0.176777
H4    H     H_    0.508993 0.555442 0.709062 0.175642
H5    H     H_    0.992188 0.945117 0.186392 0.150890
H6    H     H_    0.981296 0.946440 0.782762 0.150703
H7    H     H_    0.492190 0.445117 0.186395 0.150401
H8    H     H_    0.481278 0.446444 0.782741 0.150147
H9    H     H_    0.945139 0.991957 0.250953 0.150569
H10   H     H_    0.042257 0.964049 0.737619 0.167240
H11   H     H_    0.445140 0.491954 0.250954 0.150499
H12   H     H_    0.542245 0.464033 0.737608 0.166991
H13   H     H_    0.944685 0.990557 0.144807 0.173490
H14   H     H_    0.044479 0.964959 0.845721 0.157400
H15   H     H_    0.444685 0.490554 0.144807 0.173450
H16   H     H_    0.544468 0.464942 0.845711 0.157170
H17   H     H_    0.391363 0.973263 0.978986 0.145071
H18   H     H_    0.608480 0.973232 0.020512 0.145141
H19   H     H_    0.891363 0.473256 0.978977 0.145132
H20   H     H_    0.108480 0.473225 0.020521 0.145200
H21   H     H_    0.328904 0.972271 0.915894 0.123270
H22   H     H_    0.670931 0.972078 0.083610 0.123275
H23   H     H_    0.828904 0.472266 0.915886 0.123338
H24   H     H_    0.170931 0.472072 0.083619 0.123343
H25   H     H_    0.329330 0.028284 0.743271 0.123332
H26   H     H_    0.670843 0.027961 0.257301 0.123320
H27   H     H_    0.829330 0.528295 0.743281 0.123227
H28   H     H_    0.170843 0.527972 0.257290 0.123219
H29   H     H_    0.391763 0.027052 0.804748 0.145310
H30   H     H_    0.608402 0.026894 0.195769 0.145251
H31   H     H_    0.891764 0.527062 0.804758 0.145294
H32   H     H_    0.108401 0.526904 0.195759 0.145239
H33   H     H_    0.280672 0.995941 0.680972 0.124773
H34   H     H_    0.719291 0.995474 0.318987 0.124784
H35   H     H_    0.780672 0.495954 0.680971 0.124849
H36   H     H_    0.219291 0.495487 0.318989 0.124859
H37   H     H_    0.218073 0.997203 0.618705 0.130794
H38   H     H_    0.781901 0.996680 0.381316 0.130910
H39   H     H_    0.718074 0.497215 0.618705 0.130810
H40   H     H_    0.281901 0.496692 0.381317 0.130924
H41   H     H_    0.217669 0.003389 0.817918 0.130882
H42   H     H_    0.782374 0.003032 0.182263 0.131016
H43   H     H_    0.717669 0.503381 0.817919 0.130875
H44   H     H_    0.282373 0.503022 0.182263 0.131007
H45   H     H_    0.053484 0.019180 0.354766 0.148594
H46   H     H_    0.964321 0.044095 0.663099 0.156779
H47   H     H_    0.553484 0.519182 0.354765 0.148579
H48   H     H_    0.464337 0.544108 0.663116 0.156764
H49   H     H_    0.280284 0.004620 0.880915 0.124761
H50   H     H_    0.719760 0.004323 0.119241 0.124770
H51   H     H_    0.780284 0.504613 0.880917 0.124741
H52   H     H_    0.219760 0.504315 0.119239 0.124750
H53   H     H_    0.171317 0.952664 0.722280 0.130378
H54   H     H_    0.828593 0.951919 0.278419 0.130463
H55   H     H_    0.671318 0.452665 0.722280 0.130324
H56   H     H_    0.328593 0.451921 0.278417 0.130407
H57   H     H_    0.108365 0.952195 0.658344 0.142121
H58   H     H_    0.891551 0.951617 0.342330 0.142257
H59   H     H_    0.608366 0.452195 0.658345 0.141935
H60   H     H_    0.391550 0.451618 0.342328 0.142067
H61   H     H_    0.108674 0.048106 0.559009 0.141525
H62   H     H_    0.891376 0.048276 0.440452 0.141662
H63   H     H_    0.608673 0.548106 0.559007 0.141466
H64   H     H_    0.391377 0.548276 0.440455 0.141603
H65   H     H_    0.171635 0.047867 0.621432 0.130278
H66   H     H_    0.828420 0.047869 0.378075 0.130404
H67   H     H_    0.671635 0.547868 0.621430 0.130145
H68   H     H_    0.328420 0.547869 0.378079 0.130270
H69   H     H_    0.473266 0.891346 0.885655 0.145088
H70   H     H_    0.526933 0.891662 0.114027 0.145258
H71   H     H_    0.973266 0.391346 0.885655 0.145151
H72   H     H_    0.026933 0.391662 0.114027 0.145320
H73   H     H_    0.472233 0.828891 0.885263 0.123272
H74   H     H_    0.528123 0.829230 0.114273 0.123302
H75   H     H_    0.972233 0.328891 0.885263 0.123330
H76   H     H_    0.028123 0.329230 0.114273 0.123359
H77   H     H_    0.495746 0.780575 0.095471 0.124761
H78   H     H_    0.504603 0.780283 0.904014 0.124752
H79   H     H_    0.995745 0.280575 0.095471 0.124821
H80   H     H_    0.004604 0.280283 0.904014 0.124811
H81   H     H_    0.997013 0.217978 0.096380 0.130806
H82   H     H_    0.003380 0.217671 0.903140 0.130904
H83   H     H_    0.497014 0.717978 0.096380 0.130754
H84   H     H_    0.503380 0.717671 0.903139 0.130853
H85   H     H_    0.952652 0.171274 0.901507 0.130307
H86   H     H_    0.047721 0.171594 0.098063 0.130277
H87   H     H_    0.452652 0.671274 0.901507 0.130271
H88   H     H_    0.547721 0.671594 0.098063 0.130242
H89   H     H_    0.052281 0.022010 0.247910 0.176767
H90   H     H_    0.963468 0.041898 0.768140 0.167325
H91   H     H_    0.552280 0.522011 0.247909 0.176774
H92   H     H_    0.463483 0.541909 0.768155 0.167305
H93   H     H_    0.952217 0.108324 0.902019 0.141906
H94   H     H_    0.047995 0.108637 0.097767 0.141516
H95   H     H_    0.452217 0.608324 0.902019 0.141898
H96   H     H_    0.547995 0.608637 0.097767 0.141508
H97   H     H_    0.472957 0.108394 0.060690 0.145184
H98   H     H_    0.527053 0.108399 0.939831 0.145227
H99   H     H_    0.973123 0.608386 0.061210 0.146016
H100  H     H_    0.026854 0.608455 0.939330 0.146040
H101  H     H_    0.471761 0.170840 0.058826 0.123277
H102  H     H_    0.528082 0.170839 0.941769 0.123290
H103  H     H_    0.972659 0.671330 0.060351 0.131321
H104  H     H_    0.027234 0.671394 0.940600 0.131333
H105  H     H_    0.495716 0.219318 0.895939 0.124765
H106  H     H_    0.503873 0.219691 0.104401 0.124754
H107  H     H_    0.055078 0.717905 0.059939 0.132084
H108  H     H_    0.944754 0.717627 0.941228 0.132061
H109  H     H_    0.055262 0.780512 0.062318 0.124819
H110  H     H_    0.944521 0.780231 0.938672 0.124747
H111  H     H_    0.496930 0.281922 0.897475 0.130827
H112  H     H_    0.502587 0.282298 0.102723 0.130944
H113  H     H_    0.952248 0.829109 0.004381 0.122209
H114  H     H_    0.047518 0.828964 0.996105 0.122177
H115  H     H_    0.451908 0.328601 0.002369 0.130296
H116  H     H_    0.547726 0.328426 0.997822 0.130310
H117  H     H_    0.951837 0.891563 0.001707 0.141119
H118  H     H_    0.047989 0.891419 0.998351 0.140737
H119  H     H_    0.451639 0.391557 0.001180 0.141974
H120  H     H_    0.548166 0.391378 0.998879 0.141602
H121  H     H_    0.957874 0.036186 0.262515 0.170785
H122  H     H_    0.054820 0.008325 0.748989 0.153242
H123  H     H_    0.457873 0.536184 0.262514 0.170738
H124  H     H_    0.554824 0.508304 0.748994 0.153239
H125  H     H_    0.955652 0.035302 0.154414 0.160781
H126  H     H_    0.055274 0.009745 0.855135 0.175374
H127  H     H_    0.455651 0.535300 0.154412 0.160748
H128  H     H_    0.555278 0.509725 0.855140 0.175403
H129  H     H_    0.990798 0.944663 0.290687 0.174027
H130  H     H_    0.978431 0.947590 0.674265 0.178529
H131  H     H_    0.490800 0.444662 0.290689 0.173609
H132  H     H_    0.478413 0.447597 0.674245 0.178083
H133  H     H_    0.035494 0.955836 0.336679 0.160853
H134  H     H_    0.946580 0.980693 0.645329 0.150263
H135  H     H_    0.535496 0.455837 0.336681 0.160674
H136  H     H_    0.446574 0.480711 0.645322 0.150262
H137  H     H_    0.036361 0.958053 0.231670 0.171029
H138  H     H_    0.947803 0.977878 0.752196 0.177939
H139  H     H_    0.536363 0.458054 0.231671 0.170926
H140  H     H_    0.447795 0.477895 0.752187 0.177982
O1    O     O_R   0.049910 0.028900 0.549880 -0.585886
O2    O     O_R   0.950090 0.028900 0.450120 -0.586034
O3    O     O_R   0.549910 0.528900 0.549880 -0.585860
O4    O     O_R   0.450090 0.528900 0.450120 -0.586006
O5    O     O_R   0.450110 0.999950 0.897350 -0.585931
O6    O     O_R   0.549890 0.999950 0.102650 -0.585977
O7    O     O_R   0.950110 0.499950 0.897350 -0.585854
O8    O     O_R   0.049890 0.499950 0.102650 -0.585896
O9    O     O_R   0.450110 0.000020 0.002860 -0.585823
O10   O     O_R   0.549890 0.000020 0.997140 -0.585869
O11   O     O_R   0.950110 0.500020 0.002860 -0.585827
O12   O     O_R   0.049890 0.500020 0.997140 -0.585859
O13   O     O_R   0.500000 0.049850 0.947140 -0.585757
O14   O     O_R   0.500000 0.049850 0.052860 -0.585767
O15   O     O_R   1.000000 0.549850 0.947140 -0.585693
O16   O     O_R   0.000000 0.549850 0.052860 -0.585716
O17   O     O_R   0.049940 0.971130 0.549860 -0.586015
O18   O     O_R   0.950060 0.971130 0.450140 -0.586099
O19   O     O_R   0.549940 0.471130 0.549860 -0.586199
O20   O     O_R   0.450060 0.471130 0.450140 -0.586279
O21   O     O_R   0.000010 0.028900 0.408850 -0.592279
O22   O     O_R   0.999990 0.028900 0.591150 -0.593542
O23   O     O_R   0.500010 0.528900 0.408850 -0.592260
O24   O     O_R   0.499990 0.528900 0.591150 -0.593517
O25   O     O_R   0.000040 0.971130 0.408830 -0.593622
O26   O     O_R   0.999960 0.971130 0.591170 -0.592347
O27   O     O_R   0.500040 0.471130 0.408830 -0.593819
O28   O     O_R   0.499960 0.471130 0.591170 -0.592557
O29   O     O_R   0.028910 0.049900 0.028910 -0.585765
O30   O     O_R   0.971090 0.049900 0.971090 -0.585982
O31   O     O_R   0.528910 0.549900 0.028910 -0.585757
O32   O     O_R   0.471090 0.549900 0.971090 -0.585975
O33   O     O_R   0.028900 1.000000 0.120010 -0.592242
O34   O     O_R   0.971100 1.000000 0.879990 -0.592400
O35   O     O_R   0.528900 0.500000 0.120010 -0.592234
O36   O     O_R   0.471100 0.500000 0.879990 -0.592384
O37   O     O_R   0.971130 0.000040 0.062270 -0.593565
O38   O     O_R   0.028870 0.000040 0.937730 -0.593438
O39   O     O_R   0.471130 0.500040 0.062270 -0.593569
O40   O     O_R   0.528870 0.500040 0.937730 -0.593426
O41   O     O_R   0.028890 0.950090 0.028810 -0.585972
O42   O     O_R   0.971110 0.950090 0.971190 -0.586120
O43   O     O_R   0.528890 0.450090 0.028810 -0.585926
O44   O     O_R   0.471110 0.450090 0.971190 -0.586074
O45   O     O_R   0.500050 0.950050 0.947320 -0.585996
O46   O     O_R   0.499950 0.950050 0.052680 -0.585984
O47   O     O_R   0.000050 0.450050 0.947320 -0.585949
O48   O     O_R   0.999950 0.450050 0.052680 -0.585936
H141  H     H_    0.018914 0.053581 0.217474 0.148575
H142  H     H_    0.007588 0.055005 0.813346 0.152954
H143  H     H_    0.518912 0.553581 0.217471 0.148528
H144  H     H_    0.507608 0.555002 0.813368 0.152931

loop_
_geom_bond_atom_site_label_1
_geom_bond_atom_site_label_2
_ccdc_geom_bond_type
C133  C137  A    
C55   C59   A    
C89   H47   S    
C136  C140  A    
C90   H48   S    
Cu9   O45   S    
C135  C139  A    
C94   C196  S    
C31   C101  S    
C163  C165  A    
C68   H60   S    
C92   C194  S    
C198  H126  S    
C139  C142  A    
C174  H114  S    
C146  H98   S    
C176  C184  A    
C148  C160  A    
C119  H79   S    
C149  C153  A    
C64   C84   A    
C163  H107  S    
C118  C131  A    
C155  C189  S    
C86   O31   A    
C164  H108  S    
C11   C15   A    
C18   C58   S    
C5    H5    S    
C162  C171  A    
C12   C16   A    
C34   H34   S    
C105  H69   S    
C97   C115  S    
C24   H28   S    
C148  H100  S    
C75   H63   S    
C188  H132  S    
Cu9   O5    S    
Cu12  O16   S    
C99   O9    A    
C122  C194  S    
C41   C49   A    
C180  C182  A    
C25   C29   A    
C107  H71   S    
C29   C99   S    
C27   C31   A    
C28   C32   A    
C78   H66   S    
C88   C122  S    
Cu10  O9    S    
C126  C129  A    
C6    H138  S    
C93   O35   A    
C74   H62   S    
C17   C21   A    
C165  H109  S    
C186  C190  S    
C19   C23   A    
C157  C191  S    
C66   H58   S    
C158  C192  S    
C10   C30   A    
C85   O29   A    
C110  H74   S    
C16   C20   A    
C163  C172  A    
C124  H144  S    
C199  H127  S    
C188  H136  S    
C125  C129  A    
Cu6   O37   S    
C6    C194  S    
C46   O22   A    
C24   C28   A    
C127  H83   S    
C128  H84   S    
Cu2   O4    S    
Cu8   O32   S    
Cu4   O20   S    
C122  H90   S    
C123  H143  S    
C138  C141  A    
C94   O40   A    
C102  O12   A    
Cu8   O36   S    
C6    C186  S    
C106  C115  A    
Cu10  O46   S    
C187  H135  S    
C175  H115  S    
C66   C70   A    
C49   C53   A    
C51   C55   A    
C177  H117  S    
C61   C65   A    
C87   H1    S    
C1    O1    A    
C34   C58   A    
C73   C77   A    
C28   H32   S    
C75   C79   A    
C198  H14   S    
C180  H120  S    
C150  H102  S    
C21   H25   S    
C43   C83   S    
C87   H45   S    
C112  C114  A    
C90   C192  S    
C102  O8    A    
C97   O45   A    
C8    H8    S    
C64   C68   A    
C7    C187  S    
C185  H129  S    
C120  C132  A    
C91   C193  S    
C187  H131  S    
C30   C100  S    
C10   H18   S    
C53   H49   S    
C161  H105  S    
C134  H86   S    
C95   O42   A    
C9    C13   A    
C4    O20   A    
C130  C144  S    
C44   C52   A    
C134  C143  A    
C146  C150  A    
C151  H103  S    
Cu1   Cu3   S    
Cu11  O7    S    
C147  C160  A    
C195  C199  S    
C178  H118  S    
Cu6   O34   S    
C88   C190  S    
C95   O41   A    
C62   C66   A    
Cu12  O11   S    
C2    O2    A    
C10   C14   A    
C85   C141  S    
C95   C181  S    
C19   C59   S    
C106  H70   S    
C101  O11   A    
C147  C151  A    
C70   C74   A    
Cu3   O17   S    
C135  H87   S    
C98   O47   A    
C158  C200  S    
C124  C196  S    
Cu9   Cu10  S    
C90   H4    S    
C33   H33   S    
C161  C167  A    
C42   C50   A    
C162  C168  A    
C186  H130  S    
C140  H96   S    
C176  H116  S    
C26   C30   A    
C74   C78   A    
Cu1   O2    S    
C164  C172  A    
Cu4   O28   S    
C137  H93   S    
C13   H21   S    
C108  C112  A    
C21   C25   A    
C133  H85   S    
C117  H77   S    
C18   C22   A    
C107  C111  A    
C105  C115  A    
C76   C80   A    
C108  H72   S    
C185  C189  S    
C25   H29   S    
C157  H123  S    
C103  O13   A    
C188  C192  S    
C47   O23   A    
C170  C184  S    
Cu10  O6    S    
C67   H59   S    
C101  O7    A    
C61   C81   A    
C62   H54   S    
Cu7   O40   S    
C194  C198  S    
Cu8   O39   S    
C1    O17   A    
C177  C181  A    
Cu9   O13   S    
C37   C41   A    
Cu12  O8    S    
C107  C116  A    
C155  H9    S    
C86   O32   A    
C138  H94   S    
C40   C44   A    
C56   C60   A    
C147  H99   S    
C157  H11   S    
C3    O19   A    
Cu1   O22   S    
C22   H26   S    
C94   O36   A    
C197  H13   S    
C92   O34   A    
C91   O37   A    
C5    C185  S    
C80   C84   A    
C51   H43   S    
C8    C188  S    
C15   C19   A    
C50   C54   A    
Cu2   Cu4   S    
C140  C142  A    
C4    O4    A    
C54   C58   A    
C40   H40   S    
C121  H141  S    
C197  H125  S    
Cu2   O24   S    
C35   C59   A    
C200  H16   S    
C105  C109  A    
Cu7   O43   S    
C6    H6    S    
C47   O27   A    
C150  C153  A    
C48   O28   A    
C104  O15   A    
C5    H137  S    
C69   C73   A    
C20   C60   S    
Cu3   O26   S    
C7    H139  S    
C174  C178  A    
C100  O10   A    
C155  C197  S    
C88   H46   S    
C179  C182  A    
Cu7   O35   S    
C168  C170  A    
C62   C82   A    
Cu5   O33   S    
C165  C169  A    
C2    O18   A    
C123  C195  S    
C185  H133  S    
C104  C160  S    
C121  C193  S    
Cu7   Cu8   S    
C148  C152  A    
C162  H106  S    
Cu4   O19   S    
Cu11  O12   S    
C64   H56   S    
C87   C121  S    
C53   C57   A    
C33   C37   A    
C166  H110  S    
C63   C83   A    
C68   C72   A    
C35   C39   A    
C50   H42   S    
C23   H27   S    
Cu11  Cu12  S    
C77   C81   A    
C41   C81   S    
C96   O43   A    
C48   O24   A    
C117  C127  A    
C103  O14   A    
C119  C125  A    
C120  H80   S    
C7    C195  S    
Cu6   O42   S    
C4    C72   S    
Cu6   O30   S    
C86   C142  S    
C5    C193  S    
C137  C141  A    
C158  H12   S    
C99   O5    A    
C90   C124  S    
C156  C198  S    
C96   C182  S    
C44   C84   S    
C128  C130  A    
C174  C183  A    
C149  H101  S    
C129  C143  S    
C13   C17   A    
C108  C116  A    
C52   H44   S    
C136  C144  A    
C79   C83   A    
C186  H134  S    
C43   C51   A    
C85   O30   A    
C65   C69   A    
C8    C196  S    
C111  C114  A    
C67   C71   A    
C47   C191  S    
Cu11  O15   S    
C48   C192  S    
C178  C181  A    
Cu12  O48   S    
C145  H97   S    
C39   H39   S    
C173  C183  A    
C79   H67   S    
C22   C26   A    
C15   H23   S    
C80   H68   S    
C111  H75   S    
Cu9   O10   S    
C118  H78   S    
C2    C70   S    
C199  H15   S    
C145  C149  A    
C17   C57   S    
C175  C184  A    
C155  H121  S    
C156  C190  S    
Cu2   O3    S    
C14   C18   A    
C3    C71   S    
C42   C82   S    
C196  C200  S    
C38   H38   S    
Cu5   Cu6   S    
C88   H2    S    
C55   H51   S    
C156  H10   S    
C56   H52   S    
C38   C42   A    
C193  C197  S    
C139  H95   S    
C16   H24   S    
C45   O21   A    
C156  H122  S    
C76   H64   S    
C9    H17   S    
C168  H112  S    
C151  C154  A    
C77   H65   S    
C78   C82   A    
C169  C183  S    
C98   O48   A    
Cu8   O44   S    
C92   O38   A    
C100  O6    A    
C20   C24   A    
C73   H61   S    
C93   O39   A    
C8    H140  S    
C91   O33   A    
C23   C27   A    
C65   H57   S    
C187  C191  S    
C9    C29   A    
C89   H3    S    
C109  H73   S    
C1    C69   S    
C11   C31   A    
C145  C159  A    
C12   C32   A    
Cu1   O1    S    
Cu2   O23   S    
C93   C195  S    
C118  C128  A    
C46   C190  S    
C117  C131  A    
Cu10  O14   S    
C179  H119  S    
C12   H20   S    
C167  C170  A    
C122  H142  S    
C39   C43   A    
C63   C67   A    
C97   O46   A    
C133  C143  A    
Cu5   O38   S    
C54   H50   S    
C3    O3    A    
C36   C40   A    
C96   O44   A    
C46   O26   A    
C175  C179  A    
C146  C159  A    
C89   C123  S    
C121  H89   S    
C157  C199  S    
C161  C171  A    
C123  H91   S    
C124  H92   S    
C49   H41   S    
C176  C180  A    
C98   C116  S    
C11   H19   S    
C173  C177  A    
C153  C171  S    
C119  C132  A    
C89   C191  S    
C154  C172  S    
C72   C76   A    
Cu11  O47   S    
C110  C113  A    
C61   H53   S    
C120  C126  A    
C45   C189  S    
C135  C144  A    
C152  C154  A    
C36   H36   S    
C32   C102  S    
Cu1   O21   S    
C173  H113  S    
C14   H22   S    
C106  C110  A    
C33   C57   A    
C113  C131  S    
C34   C38   A    
C114  C132  S    
C36   C60   A    
C134  C138  A    
C125  H81   S    
C26   H30   S    
C109  C113  A    
C35   H35   S    
C87   C189  S    
C158  H124  S    
C152  H104  S    
C45   O25   A    
C164  C166  A    
C127  C130  A    
C7    H7    S    
Cu3   O18   S    
C71   C75   A    
C103  C159  S    
C200  H128  S    
C167  H111  S    
C37   H37   S    
C126  H82   S    
Cu5   O41   S    
C27   H31   S    
C136  H88   S    
Cu5   O29   S    
C166  C169  A    
C104  O16   A    
Cu7   O31   S    
C112  H76   S    
Cu3   O25   S    
Cu4   O27   S    
C63   H55   S    
C52   C56   A    
