data_mof_unit_19254.cif
_audit_creation_date              2012-12-10T17:22:08-0500
_audit_creation_method            fapswitch 2.2
_symmetry_space_group_name_H-M    P1
_symmetry_Int_Tables_number       1
_space_group_crystal_system       triclinic
_cell_length_a                    15.871717
_cell_length_b                    10.860681
_cell_length_c                    9.580941
_cell_angle_alpha                 90.835283
_cell_angle_beta                  89.797597
_cell_angle_gamma                 93.103205
_cell_volume                      1648.93693246

loop_
_atom_site_label
_atom_site_type_symbol
_atom_type_description
_atom_site_fract_x
_atom_site_fract_y
_atom_site_fract_z
_atom_type_partial_charge
C1    C     C_R   0.507393 0.263523 0.499522 0.799964
C2    C     C_3   0.952846 0.555185 0.637733 -0.379192
C3    C     C_3   0.916693 0.496733 0.500333 0.290014
C4    C     C_3   0.954664 0.574116 0.378219 -0.418521
C5    C     C_3   0.052115 0.570221 0.377431 -0.377730
C6    C     C_1   0.824657 0.500420 0.499254 -0.102184
C7    C     C_1   0.174631 0.494249 0.501552 -0.105968
C8    C     C_1   0.250325 0.496124 0.500990 -0.187737
C9    C     C_R   0.571942 0.130028 0.743073 -0.155180
C10   C     C_R   0.570139 0.074795 0.873249 -0.164527
C11   C     C_R   0.529913 0.959152 0.888500 -0.150543
C12   C     C_R   0.340195 0.498659 0.500286 0.837176
C13   C     C_R   0.499712 0.893388 0.771223 -0.171456
C14   C     C_R   0.509741 0.942626 0.635250 0.091795
C15   C     C_R   0.533834 0.069012 0.625732 0.088091
C16   C     C_R   0.517147 0.130465 0.500223 -0.119894
C17   C     C_R   0.498170 0.062272 0.378460 -0.219808
C18   C     C_R   0.491562 0.935008 0.381605 -0.218743
C19   C     C_R   0.496314 0.873174 0.508529 -0.114620
C20   C     C_R   0.613973 0.663103 0.146012 -0.147680
C21   C     C_R   0.670274 0.741660 0.074444 -0.230474
C22   C     C_R   0.670470 0.741137 0.930620 -0.200575
C23   C     C_R   0.497066 0.737995 0.502192 0.775784
C24   C     C_R   0.614017 0.662571 0.857517 -0.142407
C25   C     C_R   0.556009 0.580061 0.926056 0.189883
C26   C     C_R   0.555983 0.580155 0.075751 0.208250
C27   C     C_R   0.447099 0.423198 0.072987 -0.069943
C28   C     C_R   0.447096 0.423263 0.924976 -0.061565
C29   C     C_R   0.659675 0.500983 0.499742 0.801340
C30   C     C_3   0.050268 0.551488 0.639290 -0.384575
C31   C     C_3   0.043199 0.360057 0.487683 -0.412333
C32   C     C_3   0.945030 0.361538 0.480336 -0.111783
C33   C     C_1   0.749208 0.501342 0.499238 -0.170290
C34   C     C_3   0.082343 0.493754 0.501457 0.313330
Cu1   Cu    Cu3+1 0.499990 0.499990 0.640660 0.921358
Cu2   Cu    Cu3+1 0.500010 0.500010 0.359340 0.927517
H1    H     H_    0.925004 0.507960 0.730303 0.165611
H2    H     H_    0.078684 0.646837 0.653145 0.166049
H3    H     H_    0.935226 0.652845 0.646670 0.163455
H4    H     H_    0.929125 0.538009 0.276656 0.161329
H5    H     H_    0.487516 0.107238 0.280358 0.163320
H6    H     H_    0.604186 0.219959 0.735191 0.168228
H7    H     H_    0.597355 0.123541 0.963067 0.138827
H8    H     H_    0.523400 0.919141 0.991102 0.144507
H9    H     H_    0.465478 0.807241 0.791640 0.172977
H10   H     H_    0.480373 0.885066 0.284120 0.165582
H11   H     H_    0.403800 0.360244 0.127559 0.134934
H12   H     H_    0.070125 0.497181 0.729906 0.155663
H13   H     H_    0.618950 0.671773 0.256143 0.198536
H14   H     H_    0.713810 0.803920 0.131322 0.146093
H15   H     H_    0.713856 0.803371 0.874956 0.144886
H16   H     H_    0.617811 0.672191 0.747602 0.199606
H17   H     H_    0.403795 0.360340 0.868797 0.142024
H18   H     H_    0.067270 0.315704 0.391025 0.149281
H19   H     H_    0.064383 0.304247 0.575948 0.161163
H20   H     H_    0.928016 0.333576 0.371124 0.114318
H21   H     H_    0.080720 0.665990 0.384138 0.166519
H22   H     H_    0.073160 0.528968 0.277026 0.161570
H23   H     H_    0.936653 0.671496 0.388692 0.170961
N1    N     N_R   0.500800 0.501210 0.147910 -0.197391
N2    N     N_R   0.500820 0.501290 0.852040 -0.202567
O1    O     O_R   0.499990 0.319640 0.618810 -0.584958
O2    O     O_R   0.500000 0.319660 0.381240 -0.582017
O3    O     O_R   0.379430 0.499990 0.618840 -0.574075
O4    O     O_R   0.379440 0.500020 0.381260 -0.571983
O5    O     O_R   0.500000 0.680340 0.618760 -0.614885
O6    O     O_R   0.500010 0.680360 0.381190 -0.598809
O7    O     O_R   0.620560 0.499980 0.618740 -0.594835
O8    O     O_R   0.620570 0.500010 0.381160 -0.592680
C35   C     C_R   0.899040 0.268075 0.575788 0.137293
C36   C     C_R   0.831502 0.192379 0.521806 -0.164185
C37   C     C_R   0.785760 0.109761 0.607592 -0.137839
C38   C     C_R   0.806852 0.101059 0.748236 -0.113988
C39   C     C_R   0.873929 0.174676 0.803202 -0.147696
C40   C     C_R   0.919834 0.257659 0.717926 -0.143132
H24   H     H_    0.813203 0.198557 0.413454 0.112218
H25   H     H_    0.733620 0.052874 0.565068 0.131898
H26   H     H_    0.771196 0.037322 0.814618 0.123297
H27   H     H_    0.890335 0.167642 0.912252 0.119732
H28   H     H_    0.971512 0.313020 0.763613 0.114385

loop_
_geom_bond_atom_site_label_1
_geom_bond_atom_site_label_2
_ccdc_geom_bond_type
C24   H16   S    
C38   C39   A    
Cu1   Cu2   S    
C3    C6    S    
C1    O1    A    
Cu2   O6    S    
C7    C8    T    
C9    H6    S    
C20   H13   S    
C5    H22   S    
C23   O5    A    
C30   H12   S    
C27   N1    A    
C36   H24   S    
C12   O3    A    
C15   C16   A    
C29   C33   S    
C30   H2    S    
C18   C19   A    
C23   O6    A    
C2    H3    S    
C4    H4    S    
C16   C17   A    
C38   H26   S    
Cu1   O3    S    
Cu2   O2    S    
C9    C10   A    
C28   N2    A    
C21   C22   A    
C18   H10   S    
C21   H14   S    
C29   O8    A    
C39   C40   A    
C30   C34   S    
C24   C25   A    
Cu2   O4    S    
C37   C38   A    
C32   C35   S    
Cu1   O5    S    
C25   C26   A    
C19   C23   S    
C37   H25   S    
C29   O7    A    
C31   C32   S    
C8    C12   S    
C5    C34   S    
C17   C18   A    
C31   C34   S    
C11   H8    S    
Cu1   N2    S    
C1    C16   S    
C25   N2    A    
C35   C36   A    
C39   H27   S    
C7    C34   S    
C22   C24   A    
C3    C4    S    
C35   C40   A    
Cu2   O8    S    
C40   H28   S    
C27   H11   S    
C1    O2    A    
C10   H7    S    
C14   C19   A    
C4    C5    S    
Cu2   N1    S    
C28   H17   S    
C12   O4    A    
C6    C33   T    
C5    H21   S    
C2    C30   S    
C2    C3    S    
C9    C15   A    
C36   C37   A    
C13   H9    S    
C11   C13   A    
C2    H1    S    
C20   C26   A    
Cu1   O7    S    
C4    H23   S    
Cu1   O1    S    
C31   H18   S    
C3    C32   S    
C17   H5    S    
C10   C11   A    
C20   C21   A    
C27   C28   A    
C14   C15   A    
C31   H19   S    
C13   C14   A    
C26   N1    A    
C32   H20   S    
C22   H15   S    
