data_mof_unit_33747.cif
_audit_creation_date              2012-10-26T19:57:51-0400
_audit_creation_method            fapswitch 2.2
_symmetry_space_group_name_H-M    P1
_symmetry_Int_Tables_number       1
_space_group_crystal_system       triclinic
_cell_length_a                    7.482209
_cell_length_b                    8.741692
_cell_length_c                    13.019772
_cell_angle_alpha                 87.110865
_cell_angle_beta                  79.158843
_cell_angle_gamma                 102.9786
_cell_volume                      811.193665904

loop_
_atom_site_label
_atom_site_type_symbol
_atom_type_description
_atom_site_fract_x
_atom_site_fract_y
_atom_site_fract_z
_atom_type_partial_charge
C1    C     C_R   0.453109 0.200199 0.504573 0.567596
C2    C     C_R   0.711752 0.599404 0.123598 -0.166005
C3    C     C_R   0.593423 0.574145 0.859487 0.095061
C4    C     C_R   0.405288 0.419711 0.141453 0.078128
C5    C     C_R   0.581762 0.546927 0.968493 0.076147
C6    C     C_R   0.416362 0.443876 0.032040 0.037356
C7    C     C_2   0.427802 0.032558 0.518124 0.083042
C8    C     C_2   0.572194 0.967450 0.481788 0.084366
C9    C     C_R   0.546896 0.799806 0.495389 0.568437
C10   C     C_R   0.467391 0.498698 0.700757 0.537526
C11   C     C_R   0.532439 0.500408 0.299285 0.543067
C12   C     C_R   0.549508 0.505236 0.186276 -0.006773
C13   C     C_R   0.449762 0.490622 0.813821 -0.032852
C14   C     C_R   0.267351 0.371252 0.983291 0.095575
C15   C     C_R   0.731884 0.618753 0.015702 0.110971
C16   C     C_R   0.288326 0.393985 0.875666 -0.116644
Cu1   Cu    Cu3+1 0.686350 0.517570 0.488220 0.990328
Cu2   Cu    Cu3+1 0.313650 0.482430 0.511780 0.994401
H1    H     H_    0.308339 0.229677 0.251985 0.241496
H2    H     H_    0.013757 0.657885 0.970500 0.231945
H3    H     H_    0.927276 0.239028 0.594271 0.217560
H4    H     H_    0.936083 0.378598 0.678163 0.217247
H5    H     H_    0.064016 0.621114 0.321796 0.210625
H6    H     H_    0.072601 0.760887 0.405546 0.216415
H7    H     H_    0.226220 0.982453 0.651446 0.227228
H8    H     H_    0.144911 0.956733 0.539161 0.227517
H9    H     H_    0.855102 0.043288 0.460677 0.228340
H10   H     H_    0.773695 0.017548 0.348425 0.220255
H11   H     H_    0.163828 0.357086 0.253493 0.264492
H12   H     H_    0.836542 0.640042 0.748880 0.272798
H13   H     H_    0.691420 0.767004 0.751075 0.231379
H14   H     H_    0.824685 0.660666 0.158731 0.120669
H15   H     H_    0.176342 0.333037 0.839705 0.154361
H16   H     H_    0.026819 0.339162 0.094530 0.257461
H17   H     H_    0.109147 0.170909 0.072897 0.266457
H18   H     H_    0.931951 0.823235 0.980822 0.234424
N1    N     N_2   0.033570 0.455950 0.529530 -0.020262
N2    N     N_3   0.749167 0.059836 0.422233 -0.614179
N3    N     N_2   0.966430 0.544050 0.470470 -0.019882
N4    N     N_3   0.254536 0.302407 0.205876 -0.654257
N5    N     N_3   0.744735 0.693392 0.796823 -0.572375
N6    N     N_3   0.090483 0.275474 0.038832 -0.631465
N7    N     N_3   0.907441 0.710225 0.955355 -0.582878
N8    N     N_3   0.903627 0.350787 0.605701 -0.440876
N9    N     N_3   0.096366 0.649133 0.394249 -0.442959
N10   N     N_3   0.250800 0.940171 0.577639 -0.609816
O1    O     O_R   0.621060 0.286250 0.492350 -0.444590
O2    O     O_R   0.378940 0.713750 0.507650 -0.443922
O3    O     O_R   0.306310 0.256580 0.512240 -0.537564
O4    O     O_R   0.693690 0.743420 0.487760 -0.537367
O5    O     O_R   0.631800 0.512400 0.642670 -0.493753
O6    O     O_R   0.368200 0.487600 0.357330 -0.492346
O7    O     O_R   0.317060 0.482730 0.662570 -0.518872
O8    O     O_R   0.682940 0.517270 0.337430 -0.523033

loop_
_geom_bond_atom_site_label_1
_geom_bond_atom_site_label_2
_ccdc_geom_bond_type
Cu1   O4    S    
C11   C12   S    
H12   N5    S    
N3    N9    S    
H5    N9    S    
C16   H15   S    
C6    C14   A    
H3    N8    S    
C3    C13   A    
H10   N2    S    
C14   N6    S    
C2    C12   A    
Cu1   O5    S    
N1    N8    S    
Cu1   Cu2   S    
C15   N7    S    
C7    C8    D    
N1    N3    D    
C2    C15   A    
C11   O8    A    
C8    N2    S    
C10   O5    A    
H7    N10   S    
H11   N4    S    
C4    C6    A    
Cu2   N1    S    
H16   N6    S    
C5    C6    A    
C14   C16   A    
C5    C15   A    
C4    C12   A    
H1    N4    S    
H6    N9    S    
H9    N2    S    
Cu2   O6    S    
C7    N10   S    
Cu1   O1    S    
H2    N7    S    
C9    O2    A    
C2    H14   S    
Cu1   N3    S    
C13   C16   A    
C10   O7    A    
H17   N6    S    
H8    N10   S    
C3    N5    S    
H18   N7    S    
H4    N8    S    
C11   O6    A    
H13   N5    S    
Cu2   O7    S    
C1    C7    S    
C1    O3    A    
Cu1   O8    S    
C1    O1    A    
C9    O4    A    
C4    N4    S    
Cu2   O3    S    
C8    C9    S    
C3    C5    A    
C10   C13   S    
Cu2   O2    S    
