data_mof_unit_48376.cif
_audit_creation_date              2012-12-10T16:56:31-0500
_audit_creation_method            fapswitch 2.2
_symmetry_space_group_name_H-M    P1
_symmetry_Int_Tables_number       1
_space_group_crystal_system       triclinic
_cell_length_a                    7.826153
_cell_length_b                    8.63408
_cell_length_c                    15.722968
_cell_angle_alpha                 92.097545
_cell_angle_beta                  85.36906
_cell_angle_gamma                 93.081033
_cell_volume                      1056.87187131

loop_
_atom_site_label
_atom_site_type_symbol
_atom_type_description
_atom_site_fract_x
_atom_site_fract_y
_atom_site_fract_z
_atom_type_partial_charge
C1    C     C_R   0.544434 0.793861 0.498736 0.909376
C2    C     C_3   0.383360 0.395297 0.030146 0.083784
C3    C     C_1   0.503490 0.499660 0.750265 -0.158646
C4    C     C_1   0.496510 0.500340 0.249735 -0.158647
C5    C     C_3   0.340781 0.534898 0.978011 -0.277742
C6    C     C_3   0.659218 0.465102 0.021989 -0.277743
C7    C     C_3   0.499893 0.499978 0.916159 0.119904
C8    C     C_3   0.500106 0.500022 0.083841 0.119904
C9    C     C_1   0.502905 0.499554 0.825425 -0.025336
C10   C     C_1   0.497094 0.500446 0.174574 -0.025336
C11   C     C_1   0.709050 0.012283 0.557594 0.242740
C12   C     C_R   0.455566 0.206139 0.501264 0.909376
C13   C     C_1   0.290953 0.987717 0.442403 0.242738
C14   C     C_1   0.027140 0.361175 0.415019 0.421663
C15   C     C_1   0.972860 0.638825 0.584981 0.421662
C16   C     C_R   0.501270 0.500134 0.661709 0.902918
C17   C     C_R   0.498730 0.499865 0.338291 0.902917
C18   C     C_2   0.563898 0.955779 0.510390 -0.248219
C19   C     C_2   0.436103 0.044221 0.489609 -0.248218
C20   C     C_3   0.461521 0.638796 0.031757 0.126193
C21   C     C_3   0.538477 0.361204 0.968243 0.126191
C22   C     C_3   0.616639 0.604703 0.969854 0.083784
H1    H     H_    0.787950 0.436958 0.040098 0.149838
H2    H     H_    0.470849 0.164417 0.901600 0.184752
H3    H     H_    0.212049 0.563042 0.959901 0.149838
H4    H     H_    0.803528 0.772669 0.986378 0.179855
H5    H     H_    0.833134 0.664658 0.896084 0.196034
H6    H     H_    0.196474 0.227328 0.013622 0.179853
H7    H     H_    0.166857 0.335348 0.103911 0.196033
H8    H     H_    0.408055 0.863355 0.017458 0.191389
H9    H     H_    0.529144 0.835580 0.098404 0.184753
H10   H     H_    0.591948 0.136646 0.982542 0.191388
N1    N     N_2   0.950320 0.457950 0.477300 -0.156536
N2    N     N_1   0.910952 0.720166 0.637500 -0.236842
N3    N     N_2   0.049680 0.542050 0.522700 -0.156536
N4    N     N_3   0.740852 0.722240 0.935234 -0.453966
N5    N     N_3   0.259144 0.277763 0.064766 -0.453963
N6    N     N_3   0.421878 0.791407 0.068221 -0.444991
N7    N     N_3   0.578119 0.208592 0.931779 -0.444991
N8    N     N_1   0.824209 0.057437 0.594951 -0.181662
N9    N     N_1   0.175797 0.942563 0.405045 -0.181662
N10   N     N_1   0.089047 0.279835 0.362499 -0.236841
O1    O     O_R   0.389250 0.738570 0.505570 -0.619792
O2    O     O_R   0.610750 0.261430 0.494430 -0.619793
O3    O     O_R   0.678390 0.711630 0.491020 -0.626197
O4    O     O_R   0.321610 0.288370 0.508980 -0.626197
O5    O     O_R   0.355460 0.513480 0.630490 -0.624997
O6    O     O_R   0.644540 0.486520 0.369510 -0.624996
O7    O     O_R   0.644600 0.486540 0.615950 -0.622255
O8    O     O_R   0.355400 0.513460 0.384050 -0.622254
Zn1   Zn    Zn3+2 0.306940 0.517990 0.509710 0.968739
Zn2   Zn    Zn3+2 0.693060 0.482010 0.490290 0.968738

loop_
_geom_bond_atom_site_label_1
_geom_bond_atom_site_label_2
_ccdc_geom_bond_type
C17   O8    A    
C6    C8    S    
C17   O6    A    
C11   C18   S    
C3    C9    T    
H5    N4    S    
C7    C22   S    
C22   N4    S    
C15   N2    T    
C21   N7    S    
H9    N6    S    
C14   N10   T    
O7    Zn2   S    
O1    Zn1   S    
O2    Zn2   S    
C14   N1    S    
C13   N9    T    
O8    Zn1   S    
C12   O2    A    
C5    C20   S    
H8    N6    S    
N1    Zn2   S    
C2    N5    S    
C1    O3    A    
C1    C18   S    
C8    C20   S    
H6    N5    S    
C2    C21   S    
C5    H3    S    
C6    H1    S    
C12   C19   S    
H4    N4    S    
N1    N3    D    
C20   C22   S    
N3    Zn1   S    
C11   N8    T    
C2    C5    S    
H7    N5    S    
C13   C19   S    
C4    C10   T    
C6    C22   S    
C7    C9    S    
O6    Zn2   S    
H2    N7    S    
C20   N6    S    
C16   O7    A    
C16   O5    A    
C8    C10   S    
C18   C19   D    
H10   N7    S    
C15   N3    S    
C5    C7    S    
O5    Zn1   S    
O3    Zn2   S    
C7    C21   S    
C6    C21   S    
O4    Zn1   S    
C1    O1    A    
C2    C8    S    
C3    C16   S    
C12   O4    A    
C4    C17   S    
