data_mof_unit_62488.cif
_audit_creation_date              2012-12-10T21:38:49-0500
_audit_creation_method            fapswitch 2.2
_symmetry_space_group_name_H-M    P1
_symmetry_Int_Tables_number       1
_space_group_crystal_system       triclinic
_cell_length_a                    16.140446
_cell_length_b                    16.83755
_cell_length_c                    19.156251
_cell_angle_alpha                 90.926729
_cell_angle_beta                  92.117155
_cell_angle_gamma                 85.8126
_cell_volume                      5188.09367847

loop_
_atom_site_label
_atom_site_type_symbol
_atom_type_description
_atom_site_fract_x
_atom_site_fract_y
_atom_site_fract_z
_atom_type_partial_charge
C1    C     C_R   0.487536 0.652712 0.498176 0.921873
C2    C     C_R   0.512464 0.347288 0.501824 0.921875
C3    C     C_R   0.476984 0.738725 0.497915 -0.107408
C4    C     C_R   0.523016 0.261275 0.502085 -0.107416
C5    C     C_R   0.529937 0.779590 0.542756 -0.218669
C6    C     C_R   0.470062 0.220410 0.457244 -0.218655
C7    C     C_R   0.524525 0.861675 0.544268 -0.124818
C8    C     C_R   0.475474 0.138325 0.455732 -0.124812
C9    C     C_R   0.466055 0.904078 0.500324 0.297261
C10   C     C_R   0.533945 0.095922 0.499676 0.297256
C11   C     C_R   0.409542 0.863885 0.458830 -0.204490
C12   C     C_R   0.590458 0.136115 0.541170 -0.204494
C13   C     C_R   0.415217 0.780811 0.455525 -0.059445
C14   C     C_R   0.584783 0.219189 0.544474 -0.059443
C15   C     C_R   0.766856 0.460270 0.467871 0.277722
C16   C     C_R   0.233144 0.539731 0.532128 0.277722
C17   C     C_R   0.853026 0.464076 0.470960 -0.279321
C18   C     C_R   0.146974 0.535928 0.529036 -0.279318
C19   C     C_R   0.890812 0.518623 0.516011 0.234330
C20   C     C_R   0.109187 0.481385 0.483981 0.234327
C21   C     C_R   0.838404 0.569349 0.558304 -0.157283
C22   C     C_R   0.161595 0.430659 0.441688 -0.157287
C23   C     C_R   0.499621 0.501415 0.634599 0.919311
C24   C     C_R   0.500379 0.498585 0.365401 0.919312
C25   C     C_R   0.751188 0.563072 0.553037 -0.078649
C26   C     C_R   0.248811 0.436930 0.446960 -0.078648
C27   C     C_R   0.427017 0.496059 0.745692 -0.150941
C28   C     C_R   0.572985 0.503939 0.254309 -0.150946
C29   C     C_R   0.427600 0.501739 0.817877 -0.147748
C30   C     C_R   0.572400 0.498264 0.182123 -0.147745
C31   C     C_R   0.500202 0.519472 0.855483 0.006497
C32   C     C_R   0.499794 0.480545 0.144516 0.006498
C33   C     C_R   0.572333 0.535795 0.820261 -0.027628
C34   C     C_R   0.427660 0.464229 0.179737 -0.027620
C35   C     C_R   0.571190 0.528444 0.747612 -0.201318
C36   C     C_R   0.428804 0.471574 0.252386 -0.201315
C37   C     C_R   0.499245 0.507830 0.710386 -0.049869
C38   C     C_R   0.500754 0.492175 0.289613 -0.049868
C39   C     C_R   0.498887 0.488452 0.069221 0.348858
C40   C     C_R   0.501111 0.511568 0.930778 0.348869
H1    H     H_    0.370687 0.480780 0.717738 0.176890
H2    H     H_    0.629319 0.519208 0.282264 0.176897
H3    H     H_    0.110009 0.576081 0.562134 0.223907
H4    H     H_    0.889991 0.423923 0.437862 0.223905
H5    H     H_    0.710031 0.600969 0.584682 0.178859
H6    H     H_    0.289968 0.399035 0.415315 0.178862
H7    H     H_    0.372149 0.489023 0.844615 0.166516
H8    H     H_    0.627855 0.510975 0.155386 0.166519
H9    H     H_    0.626140 0.540601 0.719900 0.192297
H10   H     H_    0.373852 0.459423 0.280096 0.192281
H11   H     H_    0.423935 0.252206 0.423518 0.170577
H12   H     H_    0.576064 0.747794 0.576482 0.170564
H13   H     H_    0.432939 0.107954 0.421365 0.164598
H14   H     H_    0.567060 0.892046 0.578635 0.164591
H15   H     H_    0.364787 0.897867 0.425442 0.183270
H16   H     H_    0.635213 0.102133 0.574557 0.183267
N1    N     N_R   0.565532 0.470156 0.964193 -0.133821
N2    N     N_R   0.434466 0.529865 0.035806 -0.133819
N3    N     N_R   0.564798 0.459337 0.032590 -0.144740
N4    N     N_R   0.435200 0.540684 0.967409 -0.144735
N5    N     N_2   0.465213 0.987139 0.493986 -0.183819
N6    N     N_2   0.534786 0.012861 0.506014 -0.183822
N7    N     N_R   0.716910 0.509720 0.508510 -0.115014
N8    N     N_R   0.283090 0.490280 0.491490 -0.115015
N9    N     N_2   0.979580 0.523447 0.519794 -0.103214
N10   N     N_2   0.020419 0.476560 0.480200 -0.103216
O1    O     O_R   0.422540 0.612660 0.496960 -0.575440
O2    O     O_R   0.577460 0.387340 0.503040 -0.575441
O3    O     O_R   0.561840 0.618900 0.502420 -0.631209
O4    O     O_R   0.438160 0.381100 0.497580 -0.631202
O5    O     O_R   0.430320 0.496890 0.599130 -0.610820
O6    O     O_R   0.569680 0.503110 0.400870 -0.610820
O7    O     O_R   0.569630 0.503130 0.604590 -0.605611
O8    O     O_R   0.430370 0.496870 0.395410 -0.605618
Zn1   Zn    Zn3+2 0.406980 0.495830 0.496350 1.009598
Zn2   Zn    Zn3+2 0.593020 0.504170 0.503650 1.009599
C41   C     C_2   0.872186 0.629017 0.608138 0.960229
O9    O     O_2   0.824821 0.671210 0.643724 -0.616132
O10   O     O_R   0.957630 0.637609 0.614951 -0.786439
H17   H     H_    0.972020 0.680139 0.650531 0.360394
C42   C     C_2   0.127812 0.370999 0.391848 0.960252
O11   O     O_2   0.175189 0.328716 0.356344 -0.616169
O12   O     O_R   0.042354 0.362519 0.384930 -0.786430
H18   H     H_    0.027966 0.319983 0.349357 0.360396
C43   C     C_2   0.647988 0.563346 0.857166 0.930801
O13   O     O_2   0.716186 0.549512 0.831982 -0.591967
O14   O     O_R   0.641254 0.607371 0.919502 -0.786552
H19   H     H_    0.697042 0.622986 0.939149 0.360653
C44   C     C_2   0.351999 0.436691 0.142830 0.930791
O15   O     O_2   0.283801 0.450542 0.168010 -0.591994
O16   O     O_R   0.358728 0.392662 0.080496 -0.786547
H20   H     H_    0.302937 0.377058 0.060847 0.360649
C45   C     C_2   0.359858 0.741551 0.404054 0.942871
O17   O     O_2   0.385008 0.681527 0.372272 -0.621726
O18   O     O_R   0.279460 0.775491 0.389810 -0.780417
H21   H     H_    0.247859 0.744034 0.353413 0.358827
C46   C     C_2   0.640142 0.258449 0.595945 0.942868
O19   O     O_2   0.614992 0.318472 0.627727 -0.621725
O20   O     O_R   0.720541 0.224509 0.610189 -0.780426
H22   H     H_    0.752142 0.255966 0.646585 0.358822
I1    I     I_    0.279556 0.625702 0.602190 -0.291600
I2    I     I_    0.720444 0.374296 0.397812 -0.291605

loop_
_geom_bond_atom_site_label_1
_geom_bond_atom_site_label_2
_ccdc_geom_bond_type
C30   C32   A    
O14   H19   S    
C45   O17   D    
C40   N4    A    
C27   C29   A    
O18   H21   S    
O6    Zn2   S    
C46   O19   D    
C36   H10   S    
C41   O9    D    
C29   H7    S    
C9    N5    S    
C30   H8    S    
C19   C21   A    
C2    O2    A    
N1    N3    A    
N7    Zn2   S    
N2    N4    A    
C31   C40   S    
O3    Zn2   S    
C7    C9    A    
C25   N7    A    
C32   C39   S    
C28   H2    S    
C33   C43   S    
C26   N8    A    
C46   O20   S    
O20   H22   S    
C35   H9    S    
C24   C38   S    
C31   C33   A    
C5    H12   S    
C6    H11   S    
C44   O16   S    
C18   C20   A    
C3    C13   A    
C43   O14   S    
C45   O18   S    
C10   N6    S    
C23   O7    A    
C42   O12   S    
C42   O11   D    
C41   O10   S    
O8    Zn1   S    
C22   C42   S    
C23   O5    A    
C4    C6    A    
O16   H20   S    
C5    C7    A    
C17   C19   A    
C6    C8    A    
C43   O13   D    
C39   N2    A    
C1    O3    A    
C13   C45   S    
C1    C3    S    
C32   C34   A    
C2    C4    S    
C27   H1    S    
O12   H18   S    
C28   C38   A    
C39   N3    A    
C9    C11   A    
C12   H16   S    
C10   C12   A    
C16   C18   A    
C12   C14   A    
O7    Zn2   S    
O1    Zn1   S    
C25   H5    S    
C11   H15   S    
C24   O6    A    
C14   C46   S    
C20   N10   S    
C15   C17   A    
C21   C25   A    
C40   N1    A    
C35   C37   A    
C20   C22   A    
C3    C5    A    
C8    H13   S    
C1    O1    A    
O2    Zn2   S    
C28   C30   A    
C17   H4    S    
C29   C31   A    
C23   C37   S    
C18   H3    S    
O5    Zn1   S    
C11   C13   A    
C24   O8    A    
C27   C37   A    
C36   C38   A    
C33   C35   A    
N8    Zn1   S    
C19   N9    S    
C34   C36   A    
C15   I2    S    
C4    C14   A    
N5    N6    D    
C34   C44   S    
C26   H6    S    
O10   H17   S    
C16   I1    S    
C8    C10   A    
N9    N10   D    
C22   C26   A    
C21   C41   S    
O4    Zn1   S    
C15   N7    A    
C16   N8    A    
C7    H14   S    
C44   O15   D    
C2    O4    A    
