data_mof_unit_35038.cif
_audit_creation_date              2012-12-10T20:49:08-0500
_audit_creation_method            fapswitch 2.2
_symmetry_space_group_name_H-M    P1
_symmetry_Int_Tables_number       1
_space_group_crystal_system       triclinic
_cell_length_a                    8.928811
_cell_length_b                    8.132016
_cell_length_c                    10.556529
_cell_angle_alpha                 90.085157
_cell_angle_beta                  90.002679
_cell_angle_gamma                 90.017766
_cell_volume                      766.500599167

loop_
_atom_site_label
_atom_site_type_symbol
_atom_type_description
_atom_site_fract_x
_atom_site_fract_y
_atom_site_fract_z
_atom_type_partial_charge
C1    C     C_R   0.218105 0.499985 0.500000 0.925690
C2    C     C_3   0.635108 0.547492 0.045121 -0.370738
C3    C     C_3   0.503474 0.501425 0.877354 -0.303001
C4    C     C_3   0.496526 0.498575 0.122646 -0.303001
C5    C     C_1   0.065224 0.499979 0.499997 -0.118366
C6    C     C_1   0.934775 0.500021 0.500003 -0.118366
C7    C     C_R   0.781895 0.500015 0.500000 0.925690
C8    C     C_R   0.496924 0.499648 0.256956 0.975401
C9    C     C_R   0.503076 0.500352 0.743044 0.975401
C10   C     C_3   0.394061 0.603675 0.039995 0.378479
C11   C     C_3   0.605939 0.396325 0.960005 0.378479
C12   C     C_3   0.531172 0.652215 0.960956 0.425788
C13   C     C_3   0.468828 0.347785 0.039043 0.425787
C14   C     C_3   0.364892 0.452508 0.954879 -0.370737
Cl1   Cl    Cl    0.252010 0.739078 0.096366 -0.452671
Cl2   Cl    Cl    0.747990 0.260922 0.903634 -0.452671
Cl3   Cl    Cl    0.577378 0.853443 0.907249 -0.397396
Cl4   Cl    Cl    0.422621 0.146557 0.092751 -0.397396
H1    H     H_    0.255423 0.414019 0.914657 0.227194
H2    H     H_    0.744577 0.585981 0.085343 0.227194
N1    N     N_1   0.500000 0.073640 0.500000 0.021167
N2    N     N_1   0.500000 0.926360 0.500000 0.021167
O1    O     O_R   0.285350 0.636850 0.500000 -0.607815
O2    O     O_R   0.714650 0.363150 0.500000 -0.607816
O3    O     O_R   0.714650 0.636850 0.500000 -0.616263
O4    O     O_R   0.285350 0.363150 0.500000 -0.616262
O5    O     O_R   0.499970 0.636850 0.313950 -0.588446
O6    O     O_R   0.500030 0.363150 0.686050 -0.588446
O7    O     O_R   0.500030 0.636850 0.686050 -0.592016
O8    O     O_R   0.499970 0.363150 0.313950 -0.592016
Zn1   Zn    Zn3+2 0.500000 0.682780 0.500000 1.092994
Zn2   Zn    Zn3+2 0.500000 0.317220 0.500000 1.092994

loop_
_geom_bond_atom_site_label_1
_geom_bond_atom_site_label_2
_ccdc_geom_bond_type
C12   Cl3   S    
O3    Zn1   S    
C2    C4    S    
O2    Zn2   S    
O4    Zn2   S    
C6    C7    S    
C3    C9    S    
C11   Cl2   S    
C7    O3    A    
C9    O7    A    
C4    C8    S    
C2    C12   S    
C8    O8    A    
O7    Zn1   S    
N1    N2    T    
O8    Zn2   S    
C11   C13   S    
C1    O4    A    
C3    C14   S    
C10   C12   S    
C13   Cl4   S    
C1    C5    S    
C2    C11   S    
C1    O1    A    
C10   Cl1   S    
C5    C6    T    
N1    Zn2   S    
C3    C11   S    
N2    Zn1   S    
O5    Zn1   S    
C7    O2    A    
O6    Zn2   S    
C9    O6    A    
C10   C14   S    
C4    C13   S    
C8    O5    A    
C3    C12   S    
C13   C14   S    
C2    H2    S    
C14   H1    S    
C4    C10   S    
O1    Zn1   S    
