data_mof_unit_11440.cif
_audit_creation_date              2012-12-11T14:23:03-0500
_audit_creation_method            fapswitch 2.2
_symmetry_space_group_name_H-M    P1
_symmetry_Int_Tables_number       1
_space_group_crystal_system       triclinic
_cell_length_a                    10.992709
_cell_length_b                    10.944934
_cell_length_c                    18.838433
_cell_angle_alpha                 90.048679
_cell_angle_beta                  89.698636
_cell_angle_gamma                 60.290351
_cell_volume                      1968.55277941

loop_
_atom_site_label
_atom_site_type_symbol
_atom_type_description
_atom_site_fract_x
_atom_site_fract_y
_atom_site_fract_z
_atom_type_partial_charge
C1    C     C_R   0.236992 0.645265 0.610239 0.524433
C2    C     C_3   0.827898 0.536690 0.782662 -0.219898
C3    C     C_3   0.704644 0.675624 0.811433 0.045357
C4    C     C_3   0.672727 0.646508 0.676485 0.037746
C5    C     C_3   0.680683 0.783513 0.686880 -0.096644
C6    C     C_3   0.807113 0.517037 0.705371 -0.232942
C7    C     C_R   0.685280 0.175311 0.827594 0.035928
C8    C     C_R   0.799789 0.161232 0.785420 0.065117
C9    C     C_R   0.790429 0.153950 0.709898 0.008823
C10   C     C_R   0.547317 0.215348 0.722102 -0.154463
C11   C     C_R   0.558453 0.212860 0.794480 -0.164748
C12   C     C_R   0.652499 0.619584 0.601875 0.551860
C13   C     C_R   0.923280 0.152886 0.814010 0.243596
C14   C     C_R   0.038788 0.115953 0.770007 -0.104084
C15   C     C_R   0.032241 0.097731 0.697596 -0.181202
C16   C     C_R   0.910522 0.114138 0.667776 -0.095913
C17   C     C_R   0.660917 0.186955 0.678452 -0.006592
C18   C     C_R   0.188098 0.662112 0.835991 0.019671
C19   C     C_R   0.195152 0.546081 0.798943 0.042789
C20   C     C_R   0.186616 0.549364 0.723594 0.042625
C21   C     C_R   0.205743 0.760845 0.725154 -0.128910
C22   C     C_R   0.202585 0.763325 0.798216 -0.124251
C23   C     C_R   0.627134 0.230191 0.603788 0.541332
C24   C     C_R   0.209835 0.427186 0.835322 -0.094789
C25   C     C_R   0.203613 0.319959 0.799286 -0.139407
C26   C     C_R   0.179448 0.330290 0.726609 -0.168168
C27   C     C_R   0.169078 0.444568 0.689044 -0.119113
C28   C     C_R   0.196731 0.656803 0.686128 0.011348
C29   C     C_R   0.710881 0.696511 0.181185 0.001112
C30   C     C_R   0.826284 0.615392 0.227682 0.003661
C31   C     C_R   0.801179 0.625960 0.301393 0.039830
C32   C     C_R   0.552065 0.735232 0.278226 -0.148269
C33   C     C_R   0.574354 0.755811 0.207821 -0.144137
C34   C     C_R   0.271248 0.627225 0.392709 0.537330
C35   C     C_R   0.963132 0.514564 0.205007 -0.092821
C36   C     C_R   0.067277 0.436485 0.254087 -0.136714
C37   C     C_R   0.045973 0.468236 0.325666 -0.124190
C38   C     C_R   0.914813 0.568959 0.349064 -0.071005
C39   C     C_R   0.664411 0.674061 0.325552 0.051599
C40   C     C_R   0.628075 0.175731 0.173330 0.025770
C41   C     C_R   0.536457 0.148481 0.216834 -0.003880
C42   C     C_R   0.569574 0.122900 0.289623 -0.001775
C43   C     C_R   0.706101 0.242034 0.277139 -0.170096
C44   C     C_R   0.707469 0.228023 0.204262 -0.156190
C45   C     C_R   0.642632 0.625094 0.393515 0.563390
C46   C     C_R   0.415742 0.143223 0.192382 0.231118
C47   C     C_R   0.349756 0.091386 0.236782 -0.165481
C48   C     C_R   0.398518 0.045753 0.304739 -0.134512
C49   C     C_R   0.512694 0.053730 0.330247 0.253669
C50   C     C_R   0.644954 0.182528 0.320687 0.017910
C51   C     C_R   0.155950 0.687458 0.181801 0.015335
C52   C     C_R   0.112132 0.804518 0.229563 0.032704
C53   C     C_R   0.110647 0.777576 0.301126 0.029422
C54   C     C_R   0.284102 0.532590 0.275895 -0.171311
C55   C     C_R   0.249534 0.552970 0.204750 -0.165981
C56   C     C_R   0.616358 0.231092 0.394139 0.588013
C57   C     C_R   0.080948 0.943494 0.211009 -0.083749
C58   C     C_R   0.028577 0.051140 0.261539 -0.150908
C59   C     C_R   0.996568 0.025809 0.329423 -0.114063
C60   C     C_R   0.029769 0.890239 0.348130 -0.059160
C61   C     C_R   0.211111 0.643494 0.324146 0.012376
C62   C     C_R   0.701538 0.106730 0.897357 0.605872
C63   C     C_R   0.726224 0.689085 0.887608 0.597942
C64   C     C_R   0.121482 0.703852 0.906590 0.568118
C65   C     C_R   0.671182 0.109988 0.103237 0.555904
C66   C     C_R   0.732258 0.714883 0.105752 0.544231
C67   C     C_3   0.567289 0.672908 0.800424 -0.298411
C68   C     C_R   0.096645 0.710588 0.111462 0.537920
C69   C     C_3   0.546525 0.660199 0.720710 -0.253867
C70   C     C_3   0.698933 0.801326 0.768142 0.115075
Cr1   Cr    Cr6+3 0.392940 0.397950 0.502230 1.024206
Cr2   Cr    Cr6+3 0.398400 0.708500 0.501260 1.029707
Cr3   Cr    Cr6+3 0.708640 0.393530 0.496460 0.991820
Cr4   Cr    Cr6+3 0.937880 0.938320 0.007620 1.099472
Cr5   Cr    Cr6+3 0.625560 0.937220 0.994510 1.083951
Cr6   Cr    Cr6+3 0.938080 0.625010 0.001190 1.082954
H1    H     H_    0.476915 0.770697 0.822008 0.116272
H2    H     H_    0.900687 0.498344 0.674260 0.142111
H3    H     H_    0.447119 0.241281 0.700213 0.164807
H4    H     H_    0.469330 0.227417 0.825001 0.147151
H5    H     H_    0.135509 0.100036 0.792117 0.119398
H6    H     H_    0.122797 0.069458 0.664150 0.106832
H7    H     H_    0.913092 0.092002 0.611706 0.142261
H8    H     H_    0.221214 0.839235 0.699016 0.133151
H9    H     H_    0.571025 0.582235 0.829146 0.138921
H10   H     H_    0.233945 0.412106 0.891317 0.147179
H11   H     H_    0.204834 0.849469 0.825205 0.143616
H12   H     H_    0.220659 0.228266 0.828505 0.140549
H13   H     H_    0.172820 0.248043 0.698510 0.116751
H14   H     H_    0.144595 0.449875 0.633367 0.135256
H15   H     H_    0.446677 0.765166 0.295435 0.131788
H16   H     H_    0.993020 0.484557 0.150895 0.205935
H17   H     H_    0.484859 0.809291 0.173169 0.153095
H18   H     H_    0.168320 0.357119 0.236156 0.167434
H19   H     H_    0.130511 0.413427 0.362926 0.142469
H20   H     H_    0.531057 0.568295 0.711262 0.135766
H21   H     H_    0.899774 0.591702 0.405422 0.144090
H22   H     H_    0.755812 0.297447 0.299457 0.146517
H23   H     H_    0.771247 0.256871 0.172060 0.142983
H24   H     H_    0.258217 0.088261 0.218621 0.143449
H25   H     H_    0.348053 0.002338 0.337485 0.153603
H26   H     H_    0.365139 0.430449 0.293618 0.131976
H27   H     H_    0.107264 0.970169 0.160285 0.163719
H28   H     H_    0.297164 0.466400 0.167813 0.183607
H29   H     H_    0.450694 0.756323 0.703660 0.127058
H30   H     H_    0.009217 0.155140 0.247430 0.116875
H31   H     H_    0.950817 0.109801 0.368237 0.133967
H32   H     H_    0.007429 0.871728 0.401880 0.150229
H33   H     H_    0.605518 0.900512 0.786218 0.139089
H34   H     H_    0.578036 0.873848 0.670659 0.117512
H35   H     H_    0.927735 0.537376 0.788858 0.207363
H36   H     H_    0.836076 0.446191 0.812885 0.180924
H37   H     H_    0.798050 0.420469 0.700184 0.152803
O1    O     O_R   0.507340 0.255690 0.581430 -0.503765
O2    O     O_R   0.524510 0.695820 0.424050 -0.481001
O3    O     O_R   0.736370 0.504260 0.414810 -0.541307
O4    O     O_R   0.691220 0.277270 0.422180 -0.525176
O5    O     O_3   0.499990 0.499990 0.499980 -0.270713
O6    O     O_R   0.089570 0.825450 0.930590 -0.485018
O7    O     O_R   0.818700 0.054260 0.929860 -0.417965
O8    O     O_R   0.606310 0.077010 0.915520 -0.524159
O9    O     O_R   0.646730 0.806540 0.917560 -0.498735
O10   O     O_R   0.837290 0.593240 0.915240 -0.475445
O11   O     O_R   0.065320 0.635310 0.931580 -0.491042
O12   O     O_R   0.280360 0.527380 0.578910 -0.513393
O13   O     O_R   0.068470 0.828620 0.091850 -0.540229
O14   O     O_R   0.799150 0.057200 0.079350 -0.506127
O15   O     O_R   0.585220 0.080180 0.076770 -0.456726
O16   O     O_R   0.627170 0.809480 0.067050 -0.489764
O17   O     O_R   0.816200 0.596410 0.076500 -0.520058
O18   O     O_R   0.045770 0.638240 0.081070 -0.518949
O19   O     O_3   0.833840 0.833520 0.001110 -0.285542
O20   O     O_R   0.260600 0.739610 0.584580 -0.527277
O21   O     O_R   0.532370 0.695050 0.573830 -0.495765
O22   O     O_R   0.744850 0.503430 0.576380 -0.532997
O23   O     O_R   0.699080 0.276500 0.571950 -0.512193
O24   O     O_R   0.498860 0.256520 0.419860 -0.477678
O25   O     O_R   0.272490 0.528150 0.429140 -0.517779
O26   O     O_R   0.252110 0.740440 0.423010 -0.529285
Cl1   Cl    Cl    0.846593 0.824034 0.787828 -0.666900
C71   C     C_3   0.790649 0.790105 0.638023 -0.353550
H38   H     H_    0.898249 0.705421 0.650300 0.165385
H39   H     H_    0.768822 0.780695 0.581424 0.144544
H40   H     H_    0.785994 0.893144 0.644198 0.175163
Cl2   Cl    Cl    0.932195 0.217436 0.898732 -0.628646
Cl3   Cl    Cl    0.318831 0.229163 0.115375 -0.658569
Cl4   Cl    Cl    0.587430 0.966638 0.410892 -0.639240

loop_
_geom_bond_atom_site_label_1
_geom_bond_atom_site_label_2
_ccdc_geom_bond_type
C70   Cl1   S    
C8    C13   A    
Cr4   O19   S    
Cr5   O9    S    
C56   O4    A    
C35   C36   A    
C67   H1    S    
C43   H22   S    
C13   Cl2   S    
C69   H20   S    
C49   Cl4   S    
C57   C58   A    
C7    C8    A    
Cr1   O24   S    
C46   Cl3   S    
Cr5   O19   S    
C26   H13   S    
C7    C11   A    
Cr4   O6    S    
Cr2   O2    S    
C2    H36   S    
C26   C27   A    
C17   C23   S    
C64   O6    A    
C23   O23   A    
C65   O14   A    
C36   C37   A    
C9    C16   A    
C1    O12   A    
C18   C19   A    
C71   H39   S    
C30   C31   A    
C44   H23   S    
C6    H2    S    
C32   H15   S    
C5    H34   S    
C10   C17   A    
C15   C16   A    
C29   C33   A    
C34   O26   A    
C37   H19   S    
C27   H14   S    
Cr5   O15   S    
C41   C42   A    
C32   C39   A    
C54   C55   A    
Cr6   O17   S    
Cr2   O26   S    
Cr3   O22   S    
C8    C9    A    
C12   O22   A    
C1    C28   S    
C41   C46   A    
C21   H8    S    
C7    C62   S    
Cr1   O25   S    
C62   O7    A    
C60   H32   S    
C39   C45   S    
C66   O16   A    
C35   H16   S    
C59   C60   A    
C12   O21   A    
C21   C22   A    
C2    C6    S    
C53   C61   A    
C38   H21   S    
C1    O20   A    
C4    C69   S    
C53   C60   A    
C15   H6    S    
C57   H27   S    
Cr4   O14   S    
C2    H35   S    
C67   H9    S    
Cr3   O4    S    
C51   C52   A    
Cr6   O11   S    
C65   O15   A    
C3    C70   S    
C24   C25   A    
C4    C6    S    
C52   C57   A    
C71   H40   S    
C69   H29   S    
C20   C28   A    
C58   C59   A    
C64   O11   A    
C55   H28   S    
C34   O25   A    
C16   H7    S    
C59   H31   S    
C47   H24   S    
Cr1   O1    S    
C67   C69   S    
C37   C38   A    
C68   O18   A    
C43   C44   A    
C6    H37   S    
C29   C30   A    
C70   H33   S    
C45   O2    A    
Cr2   O21   S    
C47   C48   A    
Cr3   O23   S    
C22   H11   S    
Cr3   O3    S    
C42   C50   A    
C30   C35   A    
C9    C17   A    
C40   C41   A    
C54   C61   A    
C21   C28   A    
C40   C65   S    
C4    C12   S    
C68   O13   A    
C63   O9    A    
C52   C53   A    
C46   C47   A    
C48   C49   A    
Cr3   O5    S    
Cr1   O5    S    
Cr5   O8    S    
Cr6   O10   S    
C54   H26   S    
C3    C67   S    
C5    C71   S    
C4    C5    S    
C5    C70   S    
C33   H17   S    
C63   O10   A    
C10   H3    S    
C43   C50   A    
C20   C27   A    
C3    C63   S    
Cr4   O7    S    
C31   C38   A    
C10   C11   A    
C32   C33   A    
C19   C20   A    
C18   C22   A    
C19   C24   A    
C25   C26   A    
C71   H38   S    
C23   O1    A    
C56   O24   A    
Cr6   O19   S    
C45   O3    A    
C18   C64   S    
Cr2   O20   S    
Cr4   O13   S    
C48   H25   S    
Cr6   O18   S    
C31   C39   A    
C2    C3    S    
C51   C55   A    
C51   C68   S    
C25   H12   S    
C50   C56   S    
C11   H4    S    
C42   C49   A    
C29   C66   S    
C36   H18   S    
C40   C44   A    
C34   C61   S    
Cr2   O5    S    
C14   C15   A    
Cr1   O12   S    
C14   H5    S    
C58   H30   S    
C13   C14   A    
C24   H10   S    
C62   O8    A    
Cr5   O16   S    
C66   O17   A    
