data_mof_unit_8997.cif
_audit_creation_date              2012-12-11T14:45:51-0500
_audit_creation_method            fapswitch 2.2
_symmetry_space_group_name_H-M    P1
_symmetry_Int_Tables_number       1
_space_group_crystal_system       triclinic
_cell_length_a                    10.888021
_cell_length_b                    10.948341
_cell_length_c                    18.905574
_cell_angle_alpha                 90.751837
_cell_angle_beta                  89.803316
_cell_angle_gamma                 119.576414
_cell_volume                      1959.81757133

loop_
_atom_site_label
_atom_site_type_symbol
_atom_type_description
_atom_site_fract_x
_atom_site_fract_y
_atom_site_fract_z
_atom_type_partial_charge
C1    C     C_R   0.866583 0.637991 0.604146 0.529547
C2    C     C_R   0.907087 0.099419 0.697874 0.004681
C3    C     C_R   0.894957 0.062063 0.770036 0.009801
C4    C     C_R   0.264788 0.629087 0.606045 0.537012
C5    C     C_R   0.747811 0.193632 0.719609 0.009527
C6    C     C_R   0.696917 0.111190 0.778809 0.016449
C7    C     C_R   0.701985 0.292281 0.707463 -0.070656
C8    C     C_R   0.580853 0.279727 0.738909 -0.106486
C9    C     C_R   0.508496 0.173244 0.786323 -0.101399
C10   C     C_R   0.566694 0.091075 0.806633 -0.054794
C11   C     C_R   0.840691 0.174072 0.674423 -0.019583
C12   C     C_R   0.276394 0.536920 0.793869 0.076915
C13   C     C_R   0.715913 0.637143 0.703602 -0.156748
C14   C     C_R   0.696700 0.640717 0.776348 -0.134832
C15   C     C_R   0.803276 0.655630 0.823559 0.038576
C16   C     C_R   0.863463 0.232500 0.603878 0.527768
C17   C     C_R   0.926598 0.662530 0.798156 -0.134425
C18   C     C_R   0.944565 0.657202 0.725920 -0.128649
C19   C     C_R   0.841684 0.648619 0.678568 0.029638
C20   C     C_R   0.397919 0.609810 0.294876 -0.139127
C21   C     C_R   0.419990 0.620802 0.222908 -0.125158
C22   C     C_R   0.380760 0.703071 0.182324 0.029877
C23   C     C_R   0.269132 0.532521 0.721006 -0.111310
C24   C     C_R   0.330211 0.783984 0.215543 -0.153403
C25   C     C_R   0.306852 0.772116 0.288199 -0.136394
C26   C     C_R   0.334943 0.679821 0.327443 0.026803
C27   C     C_R   0.713253 0.110436 0.293358 -0.139436
C28   C     C_R   0.865490 0.637578 0.397296 0.548666
C29   C     C_R   0.702628 0.094000 0.221023 -0.133229
C30   C     C_R   0.823369 0.130446 0.179886 0.027273
C31   C     C_R   0.954079 0.175926 0.212461 -0.151724
C32   C     C_R   0.965399 0.195096 0.285496 -0.138437
C33   C     C_R   0.845455 0.167414 0.325718 0.026440
C34   C     C_R   0.294821 0.651313 0.682126 -0.009830
C35   C     C_R   0.887581 0.784426 0.296142 -0.148623
C36   C     C_R   0.880271 0.795945 0.224031 -0.154493
C37   C     C_R   0.806503 0.675598 0.180927 0.056245
C38   C     C_R   0.732743 0.541964 0.211424 0.071397
C39   C     C_R   0.741066 0.531238 0.284740 -0.119087
C40   C     C_R   0.272637 0.634862 0.396982 0.551670
C41   C     C_R   0.822650 0.652055 0.326626 0.005001
C42   C     C_R   0.766082 0.036811 0.888124 0.552897
C43   C     C_R   0.388074 0.696787 0.898541 0.530667
C44   C     C_R   0.795410 0.691404 0.896727 0.537298
C45   C     C_R   0.785500 0.065699 0.811406 -0.031090
C46   C     C_R   0.802833 0.099507 0.104783 0.554843
C47   C     C_R   0.407002 0.709360 0.106761 0.547456
C48   C     C_R   0.795844 0.698651 0.106184 0.561565
C49   C     C_R   0.862222 0.227397 0.396207 0.547588
C50   C     C_R   0.315592 0.773305 0.719020 0.062349
C51   C     C_R   0.312776 0.773213 0.792673 -0.126001
C52   C     C_R   0.314278 0.665049 0.829995 -0.005667
C53   C     C_R   0.992441 0.022562 0.796011 -0.084678
C54   C     C_R   0.085500 0.006521 0.751145 -0.115321
C55   C     C_R   0.081557 0.025078 0.679088 -0.098059
C56   C     C_R   0.991291 0.068142 0.652260 -0.091493
Cr1   Cr    Cr6+3 0.791660 0.390250 0.499930 1.009131
Cr2   Cr    Cr6+3 0.098520 0.708290 0.500540 0.998323
Cr3   Cr    Cr6+3 0.109770 0.401430 0.499480 1.005859
Cr4   Cr    Cr6+3 0.874790 0.925890 0.000070 1.000438
Cr5   Cr    Cr6+3 0.574120 0.948670 0.999300 1.001274
Cr6   Cr    Cr6+3 0.551420 0.625320 0.000920 1.023984
H1    H     H_    0.542065 0.350437 0.725706 0.121686
H2    H     H_    0.304390 0.851627 0.185253 0.120472
H3    H     H_    0.311162 0.858392 0.820872 0.116292
H4    H     H_    0.258492 0.827978 0.312612 0.138771
H5    H     H_    0.619221 0.086590 0.323392 0.130169
H6    H     H_    0.598851 0.052093 0.197382 0.140896
H7    H     H_    0.046880 0.199290 0.181513 0.124319
H8    H     H_    0.068914 0.239305 0.309716 0.137266
H9    H     H_    0.949949 0.878716 0.327584 0.135092
H10   H     H_    0.932888 0.900299 0.201933 0.145649
H11   H     H_    0.691539 0.428054 0.308212 0.135168
H12   H     H_    0.759927 0.379212 0.673840 0.167176
H13   H     H_    0.240283 0.432926 0.695152 0.172121
H14   H     H_    0.158573 0.976109 0.772336 0.121774
H15   H     H_    0.150377 0.009567 0.643511 0.123743
H16   H     H_    0.004184 0.006367 0.850262 0.180504
H17   H     H_    0.989994 0.077363 0.595555 0.132930
H18   H     H_    0.511275 0.016669 0.846715 0.157049
H19   H     H_    0.247782 0.876929 0.657051 0.254544
H20   H     H_    0.421521 0.926055 0.647486 0.248768
H21   H     H_    0.727716 0.404718 0.137826 0.239534
H22   H     H_    0.601638 0.329461 0.199292 0.218813
H23   H     H_    0.411808 0.158907 0.810176 0.104245
H24   H     H_    0.183458 0.399771 0.874845 0.258115
H25   H     H_    0.333811 0.406603 0.841561 0.252288
H26   H     H_    0.634484 0.626983 0.667335 0.113199
H27   H     H_    0.601824 0.638507 0.795645 0.131674
H28   H     H_    0.009712 0.675424 0.833997 0.119077
H29   H     H_    0.038435 0.658680 0.706459 0.134959
H30   H     H_    0.422599 0.540215 0.324211 0.131279
H31   H     H_    0.466359 0.562718 0.198880 0.163632
N1    N     N_3   0.339577 0.897988 0.683823 -0.640861
N2    N     N_3   0.654643 0.418569 0.167919 -0.613806
N3    N     N_3   0.241284 0.408374 0.829091 -0.627878
O1    O     O_R   0.766500 0.250040 0.579790 -0.526775
O2    O     O_R   0.413330 0.603360 0.920440 -0.523149
O3    O     O_R   0.676110 0.626250 0.926750 -0.500979
O4    O     O_R   0.798570 0.516780 0.574780 -0.519869
O5    O     O_R   0.895350 0.809870 0.080950 -0.532752
O6    O     O_R   0.872490 0.049760 0.073800 -0.500722
O7    O     O_R   0.691680 0.088070 0.079070 -0.520020
O8    O     O_R   0.451720 0.825250 0.074050 -0.508080
O9    O     O_R   0.413580 0.606370 0.080960 -0.517368
O10   O     O_R   0.676340 0.629040 0.075550 -0.471679
O11   O     O_3   0.666780 0.833290 0.000090 -0.272539
O12   O     O_R   0.218690 0.701900 0.425960 -0.504464
O13   O     O_R   0.984000 0.732950 0.581090 -0.529976
O14   O     O_R   0.218600 0.700890 0.574760 -0.511366
O15   O     O_R   0.249390 0.515350 0.579940 -0.528810
O16   O     O_R   0.982790 0.280900 0.573700 -0.515244
O17   O     O_R   0.766600 0.251130 0.419260 -0.523683
O18   O     O_R   0.798660 0.517790 0.425980 -0.505583
O19   O     O_R   0.984100 0.734040 0.420570 -0.522401
O20   O     O_R   0.249490 0.516440 0.419420 -0.522037
O21   O     O_R   0.982880 0.281910 0.424890 -0.507547
O22   O     O_3   0.999980 0.499990 0.499980 -0.242994
O23   O     O_R   0.895110 0.806860 0.920430 -0.548791
O24   O     O_R   0.872260 0.046970 0.925000 -0.512176
O25   O     O_R   0.691430 0.085060 0.918550 -0.518236
O26   O     O_R   0.451490 0.822460 0.925250 -0.538245

loop_
_geom_bond_atom_site_label_1
_geom_bond_atom_site_label_2
_ccdc_geom_bond_type
C49   O17   A    
C55   C56   A    
C35   C41   A    
H20   N1    S    
C6    C45   A    
C27   C29   A    
Cr2   O13   S    
C35   C36   A    
C43   O2    A    
C26   C40   S    
C7    C8    A    
C39   C41   A    
Cr6   O9    S    
C53   C54   A    
C27   C33   A    
C20   H30   S    
C12   C23   A    
C29   C30   A    
C56   H17   S    
C20   C26   A    
C5    C6    A    
C18   H29   S    
C36   C37   A    
Cr5   O7    S    
C15   C44   S    
C5    C11   A    
C30   C31   A    
C55   H15   S    
C44   O3    A    
C43   C52   S    
C33   C49   S    
C28   C41   S    
Cr2   O22   S    
Cr4   O23   S    
Cr5   O25   S    
C18   C19   A    
C51   H3    S    
C9    H23   S    
Cr6   O2    S    
C48   O10   A    
C8    C9    A    
C47   O9    A    
C38   N2    S    
Cr3   O15   S    
Cr4   O24   S    
C9    C10   A    
Cr2   O12   S    
C40   O12   A    
C1    O13   A    
C22   C47   S    
H21   N2    S    
C24   H2    S    
C21   C22   A    
Cr4   O6    S    
C2    C11   A    
C1    O4    A    
C12   C52   A    
Cr3   O16   S    
C7    H12   S    
C38   C39   A    
C4    C34   S    
C1    C19   S    
C34   C50   A    
C13   C19   A    
C51   C52   A    
Cr5   O8    S    
C24   C25   A    
C5    C7    A    
C10   H18   S    
Cr3   O20   S    
Cr1   O17   S    
Cr6   O11   S    
C44   O23   A    
C25   C26   A    
Cr1   O4    S    
C3    C45   A    
Cr5   O26   S    
H22   N2    S    
C14   H27   S    
C37   C38   A    
C28   O19   A    
C29   H6    S    
C46   O6    A    
C11   C16   S    
C31   C32   A    
C23   C34   A    
Cr1   O1    S    
H25   N3    S    
C50   C51   A    
C37   C48   S    
C43   O26   A    
Cr4   O11   S    
H24   N3    S    
C54   H14   S    
C4    O15   A    
Cr3   O22   S    
Cr2   O19   S    
C49   O21   A    
Cr4   O5    S    
C16   O16   A    
C15   C17   A    
C4    O14   A    
C54   C55   A    
C47   O8    A    
Cr2   O14   S    
C30   C46   S    
C50   N1    S    
C25   H4    S    
C23   H13   S    
C6    C10   A    
C32   H8    S    
Cr1   O18   S    
Cr6   O10   S    
C46   O7    A    
C17   C18   A    
C32   C33   A    
C53   H16   S    
C2    C56   A    
C17   H28   S    
H19   N1    S    
C3    C53   A    
C42   O24   A    
C40   O20   A    
C21   H31   S    
C48   O5    A    
C28   O18   A    
C13   H26   S    
C2    C3    A    
C22   C24   A    
C39   H11   S    
C16   O1    A    
C27   H5    S    
C8    H1    S    
C35   H9    S    
Cr6   O3    S    
C31   H7    S    
C20   C21   A    
Cr3   O21   S    
Cr5   O11   S    
C14   C15   A    
C12   N3    S    
C13   C14   A    
C42   C45   S    
C36   H10   S    
C42   O25   A    
Cr1   O22   S    
