data_mof_unit_62747.cif
_audit_creation_date              2012-12-10T17:45:41-0500
_audit_creation_method            fapswitch 2.2
_symmetry_space_group_name_H-M    P1
_symmetry_Int_Tables_number       1
_space_group_crystal_system       monoclinic
_cell_length_a                    30.315846
_cell_length_b                    30.315847
_cell_length_c                    30.39973
_cell_angle_alpha                 90.0
_cell_angle_beta                  90.0
_cell_angle_gamma                 89.682815
_cell_volume                      27938.4604337

loop_
_atom_site_label
_atom_site_type_symbol
_atom_type_description
_atom_site_fract_x
_atom_site_fract_y
_atom_site_fract_z
_atom_type_partial_charge
C1    C     C_R   0.500000 1.000000 0.914825 0.846175
C2    C     C_R   0.499880 0.085128 0.000692 0.840139
C3    C     C_R   0.500000 0.000000 0.085175 0.837525
C4    C     C_R   0.500120 0.914872 0.000692 0.840139
C5    C     C_R   0.000719 0.085077 0.500004 0.833180
C6    C     C_R   0.085077 0.000719 0.499996 0.833180
C7    C     C_R   0.999281 0.914923 0.500004 0.833181
C8    C     C_R   0.914923 0.999281 0.499996 0.833181
C9    C     C_R   0.085128 0.499880 0.999308 0.840139
C10   C     C_R   1.000000 0.500000 0.914825 0.837525
C11   C     C_R   0.914872 0.500120 0.999308 0.840139
C12   C     C_R   0.000000 0.500000 0.085175 0.846175
C13   C     C_R   0.000000 0.500000 0.414825 0.846175
C14   C     C_R   0.999880 0.585128 0.500692 0.840139
C15   C     C_R   0.000000 0.500000 0.585175 0.837525
C16   C     C_R   0.000120 0.414872 0.500692 0.840140
C17   C     C_R   0.500719 0.585077 0.000004 0.833180
C18   C     C_R   0.585077 0.500719 0.999996 0.833180
C19   C     C_R   0.499281 0.414923 0.000004 0.833181
C20   C     C_R   0.414923 0.499281 0.999996 0.833181
C21   C     C_R   0.585128 0.999880 0.499308 0.840139
C22   C     C_R   0.500000 1.000000 0.414825 0.837525
C23   C     C_R   0.414872 0.000120 0.499308 0.840139
C24   C     C_R   0.500000 0.000000 0.585175 0.846174
C25   C     C_R   0.533664 0.204467 0.994351 0.426011
C26   C     C_R   0.459842 0.000262 0.202722 0.418613
C27   C     C_R   0.532067 0.800991 0.038192 0.422976
C28   C     C_R   0.540157 0.999995 0.797276 0.417992
C29   C     C_R   0.466336 0.795532 0.994351 0.426012
C30   C     C_R   0.540158 0.999738 0.202722 0.418613
C31   C     C_R   0.467933 0.199009 0.038192 0.422975
C32   C     C_R   0.459843 0.000005 0.797276 0.417991
C33   C     C_R   0.198463 0.039769 0.469703 0.424357
C34   C     C_R   0.005860 0.795512 0.465918 0.427312
C35   C     C_R   0.801537 0.960230 0.469703 0.424358
C36   C     C_R   0.994140 0.204488 0.465918 0.427312
C37   C     C_R   0.795512 0.005860 0.534082 0.427312
C38   C     C_R   0.960231 0.801537 0.530297 0.424358
C39   C     C_R   0.204488 0.994140 0.534082 0.427312
C40   C     C_R   0.039769 0.198463 0.530297 0.424358
C41   C     C_R   0.000277 0.459842 0.797278 0.418613
C42   C     C_R   0.800991 0.532067 0.961808 0.422976
C43   C     C_R   0.999994 0.540157 0.202724 0.417992
C44   C     C_R   0.204467 0.533664 0.005649 0.426012
C45   C     C_R   0.000006 0.459843 0.202724 0.417991
C46   C     C_R   0.795533 0.466336 0.005649 0.426012
C47   C     C_R   0.999723 0.540158 0.797278 0.418612
C48   C     C_R   0.199009 0.467933 0.961808 0.422976
C49   C     C_R   0.033664 0.704467 0.494351 0.426012
C50   C     C_R   0.040158 0.499730 0.702722 0.418612
C51   C     C_R   0.032067 0.300991 0.538192 0.422976
C52   C     C_R   0.959843 0.500004 0.297276 0.417992
C53   C     C_R   0.966336 0.295532 0.494351 0.426012
C54   C     C_R   0.959842 0.500270 0.702722 0.418612
C55   C     C_R   0.967933 0.699009 0.538192 0.422976
C56   C     C_R   0.040157 0.499996 0.297276 0.417992
C57   C     C_R   0.698463 0.539769 0.969703 0.424358
C58   C     C_R   0.505860 0.295512 0.965918 0.427312
C59   C     C_R   0.301537 0.460230 0.969703 0.424358
C60   C     C_R   0.494140 0.704488 0.965918 0.427312
C61   C     C_R   0.295512 0.505860 0.034082 0.427312
C62   C     C_R   0.460231 0.301537 0.030297 0.424357
C63   C     C_R   0.704488 0.494140 0.034082 0.427312
C64   C     C_R   0.539769 0.698463 0.030297 0.424358
C65   C     C_R   0.499713 0.040157 0.297278 0.418613
C66   C     C_R   0.300991 0.032067 0.461808 0.422976
C67   C     C_R   0.500004 0.959843 0.702724 0.417992
C68   C     C_R   0.704467 0.033664 0.505649 0.426012
C69   C     C_R   0.499996 0.040157 0.702724 0.417992
C70   C     C_R   0.295533 0.966336 0.505649 0.426012
C71   C     C_R   0.500287 0.959842 0.297278 0.418613
C72   C     C_R   0.699009 0.967933 0.461808 0.422976
C73   C     C_R   0.534443 0.158646 0.989426 -0.175091
C74   C     C_R   0.460010 0.000262 0.156862 -0.182604
C75   C     C_R   0.532984 0.846430 0.030860 -0.189746
C76   C     C_R   0.539989 0.999997 0.843136 -0.182933
C77   C     C_R   0.465557 0.841354 0.989426 -0.175091
C78   C     C_R   0.539990 0.999738 0.156862 -0.182604
C79   C     C_R   0.467016 0.153570 0.030860 -0.189746
C80   C     C_R   0.460011 0.000003 0.843136 -0.182933
C81   C     C_R   0.153119 0.032141 0.468315 -0.191586
C82   C     C_R   0.011048 0.841278 0.465466 -0.175531
C83   C     C_R   0.846881 0.967859 0.468315 -0.191586
C84   C     C_R   0.988952 0.158722 0.465466 -0.175532
C85   C     C_R   0.841278 0.011048 0.534534 -0.175531
C86   C     C_R   0.967859 0.846881 0.531685 -0.191587
C87   C     C_R   0.158722 0.988952 0.534534 -0.175531
C88   C     C_R   0.032141 0.153119 0.531685 -0.191587
C89   C     C_R   0.000276 0.460010 0.843138 -0.182604
C90   C     C_R   0.846430 0.532984 0.969140 -0.189746
C91   C     C_R   0.999997 0.539989 0.156864 -0.182933
C92   C     C_R   0.158646 0.534443 0.010574 -0.175090
C93   C     C_R   0.000003 0.460011 0.156864 -0.182933
C94   C     C_R   0.841354 0.465557 0.010574 -0.175090
C95   C     C_R   0.999724 0.539990 0.843138 -0.182604
C96   C     C_R   0.153570 0.467016 0.969140 -0.189747
C97   C     C_R   0.034443 0.658646 0.489426 -0.175091
C98   C     C_R   0.039990 0.499730 0.656862 -0.182604
C99   C     C_R   0.032984 0.346430 0.530860 -0.189746
C100  C     C_R   0.960011 0.500002 0.343136 -0.182933
C101  C     C_R   0.965557 0.341354 0.489426 -0.175090
C102  C     C_R   0.960010 0.500270 0.656862 -0.182604
C103  C     C_R   0.967016 0.653570 0.530860 -0.189746
C104  C     C_R   0.039989 0.499998 0.343136 -0.182933
C105  C     C_R   0.653119 0.532141 0.968315 -0.191586
C106  C     C_R   0.511048 0.341278 0.965466 -0.175531
C107  C     C_R   0.346881 0.467859 0.968315 -0.191587
C108  C     C_R   0.488952 0.658722 0.965466 -0.175531
C109  C     C_R   0.341278 0.511048 0.034534 -0.175532
C110  C     C_R   0.467859 0.346881 0.031685 -0.191586
C111  C     C_R   0.658722 0.488952 0.034534 -0.175531
C112  C     C_R   0.532141 0.653119 0.031685 -0.191587
C113  C     C_R   0.499713 0.039989 0.343138 -0.182605
C114  C     C_R   0.346430 0.032984 0.469140 -0.189747
C115  C     C_R   0.500001 0.960011 0.656864 -0.182933
C116  C     C_R   0.658646 0.034443 0.510574 -0.175090
C117  C     C_R   0.499999 0.039989 0.656864 -0.182933
C118  C     C_R   0.341354 0.965557 0.510574 -0.175090
C119  C     C_R   0.500287 0.960010 0.343138 -0.182605
C120  C     C_R   0.653570 0.967016 0.469140 -0.189747
C121  C     C_R   0.499357 0.133311 0.004929 -0.168732
C122  C     C_R   0.500000 0.000000 0.133578 -0.170263
C123  C     C_R   0.500642 0.866688 0.004929 -0.168732
C124  C     C_R   0.500000 0.000000 0.866420 -0.171928
C125  C     C_R   0.133197 0.005184 0.499784 -0.167617
C126  C     C_R   0.994816 0.866803 0.500216 -0.167617
C127  C     C_R   0.866803 0.994816 0.499784 -0.167617
C128  C     C_R   0.005184 0.133197 0.500216 -0.167617
C129  C     C_R   0.000000 0.500000 0.866421 -0.170261
C130  C     C_R   0.866688 0.500642 0.995071 -0.168731
C131  C     C_R   0.000000 0.500000 0.133580 -0.171928
C132  C     C_R   0.133311 0.499357 0.995071 -0.168731
C133  C     C_R   0.999357 0.633311 0.504929 -0.168732
C134  C     C_R   1.000000 0.500000 0.633579 -0.170261
C135  C     C_R   0.000643 0.366688 0.504929 -0.168732
C136  C     C_R   0.000000 0.500000 0.366420 -0.171928
C137  C     C_R   0.633197 0.505184 0.999784 -0.167617
C138  C     C_R   0.494816 0.366803 0.000216 -0.167617
C139  C     C_R   0.366803 0.494816 0.999784 -0.167617
C140  C     C_R   0.505184 0.633197 0.000216 -0.167617
C141  C     C_R   0.500000 0.000000 0.366421 -0.170262
C142  C     C_R   0.366689 0.000642 0.495071 -0.168731
C143  C     C_R   0.500000 1.000000 0.633580 -0.171927
C144  C     C_R   0.633311 0.999357 0.495071 -0.168731
C145  C     C_R   0.495724 0.225835 0.012009 -0.053313
C146  C     C_R   0.500000 1.000000 0.225852 -0.020705
C147  C     C_R   0.504276 0.774165 0.012009 -0.053313
C148  C     C_R   0.500000 1.000000 0.774147 -0.019612
C149  C     C_R   0.225585 0.012864 0.496775 -0.052401
C150  C     C_R   0.987136 0.774415 0.503225 -0.052401
C151  C     C_R   0.774415 0.987136 0.496775 -0.052401
C152  C     C_R   0.012864 0.225584 0.503225 -0.052401
C153  C     C_R   1.000000 0.500000 0.774148 -0.020708
C154  C     C_R   0.774165 0.504276 0.987991 -0.053313
C155  C     C_R   1.000000 0.500000 0.225853 -0.019612
C156  C     C_R   0.225835 0.495724 0.987991 -0.053313
C157  C     C_R   0.995724 0.725835 0.512009 -0.053313
C158  C     C_R   1.000000 0.500000 0.725852 -0.020708
C159  C     C_R   0.004276 0.274165 0.512009 -0.053313
C160  C     C_R   0.000000 0.500000 0.274147 -0.019612
C161  C     C_R   0.725585 0.512864 0.996775 -0.052401
C162  C     C_R   0.487136 0.274415 0.003225 -0.052401
C163  C     C_R   0.274415 0.487136 0.996775 -0.052401
C164  C     C_R   0.512864 0.725584 0.003225 -0.052401
C165  C     C_R   0.500000 0.000000 0.274148 -0.020706
C166  C     C_R   0.274165 0.004276 0.487991 -0.053313
C167  C     C_R   0.500000 1.000000 0.725853 -0.019612
C168  C     C_R   0.725835 0.995724 0.487991 -0.053313
Cu1   Cu    Cu3+1 0.455960 0.000000 0.000000 1.060900
Cu2   Cu    Cu3+1 0.544040 0.000000 0.000000 1.060900
Cu3   Cu    Cu3+1 0.000000 0.000000 0.544040 1.062814
Cu4   Cu    Cu3+1 0.000000 0.000000 0.455960 1.062814
Cu5   Cu    Cu3+1 0.000000 0.455960 0.000000 1.060900
Cu6   Cu    Cu3+1 0.000000 0.544040 0.000000 1.060900
Cu7   Cu    Cu3+1 0.955960 0.500000 0.500000 1.060900
Cu8   Cu    Cu3+1 0.044040 0.500000 0.500000 1.060900
Cu9   Cu    Cu3+1 0.500000 0.500000 0.044040 1.062814
Cu10  Cu    Cu3+1 0.500000 0.500000 0.955960 1.062814
Cu11  Cu    Cu3+1 0.500000 0.955960 0.500000 1.060900
Cu12  Cu    Cu3+1 0.500000 0.044040 0.500000 1.060900
H1    H     H_    0.562831 0.142847 0.974404 0.205378
H2    H     H_    0.428798 0.000473 0.139524 0.208533
H3    H     H_    0.555566 0.866615 0.049691 0.199757
H4    H     H_    0.571201 0.999994 0.860473 0.208649
H5    H     H_    0.437169 0.857153 0.974404 0.205378
H6    H     H_    0.571202 0.999527 0.139524 0.208533
H7    H     H_    0.444434 0.133385 0.049691 0.199757
H8    H     H_    0.428799 0.000006 0.860473 0.208649
H9    H     H_    0.132683 0.051543 0.446253 0.199241
H10   H     H_    0.026877 0.856890 0.437608 0.205329
H11   H     H_    0.867317 0.948457 0.446253 0.199240
H12   H     H_    0.973123 0.143110 0.437608 0.205330
H13   H     H_    0.856890 0.026877 0.562392 0.205330
H14   H     H_    0.948457 0.867317 0.553747 0.199241
H15   H     H_    0.143110 0.973123 0.562392 0.205330
H16   H     H_    0.051543 0.132683 0.553747 0.199241
H17   H     H_    0.000499 0.428798 0.860476 0.208532
H18   H     H_    0.866615 0.555566 0.950309 0.199755
H19   H     H_    0.999994 0.571201 0.139527 0.208649
H20   H     H_    0.142847 0.562831 0.025595 0.205378
H21   H     H_    0.000006 0.428799 0.139527 0.208649
H22   H     H_    0.857153 0.437169 0.025596 0.205378
H23   H     H_    0.999501 0.571202 0.860476 0.208532
H24   H     H_    0.133385 0.444434 0.950309 0.199756
H25   H     H_    0.062831 0.642847 0.474404 0.205378
H26   H     H_    0.071202 0.499512 0.639524 0.208533
H27   H     H_    0.055566 0.366615 0.549691 0.199756
H28   H     H_    0.928799 0.500003 0.360473 0.208649
H29   H     H_    0.937169 0.357153 0.474405 0.205378
H30   H     H_    0.928798 0.500488 0.639524 0.208533
H31   H     H_    0.944434 0.633385 0.549691 0.199756
H32   H     H_    0.071201 0.499997 0.360473 0.208649
H33   H     H_    0.632683 0.551543 0.946253 0.199241
H34   H     H_    0.526877 0.356890 0.937608 0.205329
H35   H     H_    0.367317 0.448457 0.946253 0.199241
H36   H     H_    0.473123 0.643110 0.937608 0.205329
H37   H     H_    0.356890 0.526877 0.062392 0.205330
H38   H     H_    0.448457 0.367317 0.053747 0.199241
H39   H     H_    0.643110 0.473123 0.062392 0.205329
H40   H     H_    0.551543 0.632683 0.053747 0.199241
H41   H     H_    0.499482 0.071201 0.360476 0.208532
H42   H     H_    0.366615 0.055566 0.450309 0.199755
H43   H     H_    0.500003 0.928799 0.639527 0.208649
H44   H     H_    0.642847 0.062830 0.525595 0.205378
H45   H     H_    0.499997 0.071201 0.639527 0.208649
H46   H     H_    0.357153 0.937169 0.525596 0.205378
H47   H     H_    0.500518 0.928799 0.360476 0.208532
H48   H     H_    0.633385 0.944434 0.450309 0.199755
O1    O     O_R   0.462810 0.000010 0.935740 -0.578680
O2    O     O_R   0.462810 0.064260 0.000010 -0.572445
O3    O     O_R   0.462810 0.999990 0.064260 -0.581121
O4    O     O_R   0.462810 0.935740 0.999990 -0.574851
O5    O     O_R   0.537190 0.999990 0.935740 -0.578680
O6    O     O_R   0.537190 0.935740 0.000010 -0.572445
O7    O     O_R   0.537190 0.000010 0.064260 -0.581122
O8    O     O_R   0.537190 0.064260 0.999990 -0.574852
O9    O     O_R   0.000010 0.064260 0.537190 -0.571388
O10   O     O_R   0.064260 0.999990 0.537190 -0.576134
O11   O     O_R   0.999990 0.935740 0.537190 -0.571388
O12   O     O_R   0.935740 0.000010 0.537190 -0.576134
O13   O     O_R   0.999990 0.064260 0.462810 -0.576134
O14   O     O_R   0.935740 0.999990 0.462810 -0.571388
O15   O     O_R   0.000010 0.935740 0.462810 -0.576134
O16   O     O_R   0.064260 0.000010 0.462810 -0.571388
O17   O     O_R   0.064260 0.462810 0.999990 -0.572447
O18   O     O_R   0.999990 0.462810 0.935740 -0.581121
O19   O     O_R   0.935740 0.462810 0.000010 -0.574850
O20   O     O_R   0.000010 0.462810 0.064260 -0.578680
O21   O     O_R   0.064260 0.537190 0.000010 -0.574850
O22   O     O_R   0.999990 0.537190 0.064260 -0.578680
O23   O     O_R   0.935740 0.537190 0.999990 -0.572446
O24   O     O_R   0.000010 0.537190 0.935740 -0.581122
O25   O     O_R   0.962810 0.500010 0.435740 -0.578680
O26   O     O_R   0.962810 0.564260 0.500010 -0.572446
O27   O     O_R   0.962810 0.499990 0.564260 -0.581121
O28   O     O_R   0.962810 0.435740 0.499990 -0.574851
O29   O     O_R   0.037190 0.499990 0.435740 -0.578680
O30   O     O_R   0.037190 0.435740 0.500010 -0.572446
O31   O     O_R   0.037190 0.500010 0.564260 -0.581122
O32   O     O_R   0.037190 0.564260 0.499990 -0.574851
O33   O     O_R   0.500010 0.564260 0.037190 -0.571388
O34   O     O_R   0.564260 0.499990 0.037190 -0.576134
O35   O     O_R   0.499990 0.435740 0.037190 -0.571388
O36   O     O_R   0.435740 0.500010 0.037190 -0.576134
O37   O     O_R   0.499990 0.564260 0.962810 -0.576134
O38   O     O_R   0.435740 0.499990 0.962810 -0.571388
O39   O     O_R   0.500010 0.435740 0.962810 -0.576134
O40   O     O_R   0.564260 0.500010 0.962810 -0.571388
O41   O     O_R   0.564260 0.962810 0.499990 -0.572447
O42   O     O_R   0.499990 0.962810 0.435740 -0.581121
O43   O     O_R   0.435740 0.962810 0.500010 -0.574849
O44   O     O_R   0.500010 0.962810 0.564260 -0.578680
O45   O     O_R   0.564260 0.037190 0.500010 -0.574849
O46   O     O_R   0.499990 0.037190 0.564260 -0.578680
O47   O     O_R   0.435740 0.037190 0.499990 -0.572447
O48   O     O_R   0.500010 0.037190 0.435740 -0.581122
Cl1   Cl    Cl    0.583908 0.232437 0.985857 -0.459052
Cl2   Cl    Cl    0.408774 0.000581 0.230364 -0.456176
Cl3   Cl    Cl    0.547910 0.785529 0.091819 -0.429170
Cl4   Cl    Cl    0.591225 0.999974 0.769635 -0.460704
Cl5   Cl    Cl    0.416092 0.767563 0.985857 -0.459052
Cl6   Cl    Cl    0.591226 0.999419 0.230364 -0.456176
Cl7   Cl    Cl    0.452090 0.214470 0.091819 -0.429169
Cl8   Cl    Cl    0.408775 0.000026 0.769635 -0.460704
Cl9   Cl    Cl    0.213179 0.094268 0.456167 -0.425968
Cl10  Cl    Cl    0.015531 0.767307 0.415970 -0.455130
Cl11  Cl    Cl    0.786821 0.905732 0.456167 -0.425968
Cl12  Cl    Cl    0.984469 0.232693 0.415970 -0.455130
Cl13  Cl    Cl    0.767307 0.015531 0.584030 -0.455130
Cl14  Cl    Cl    0.905732 0.786821 0.543833 -0.425968
Cl15  Cl    Cl    0.232693 0.984469 0.584030 -0.455130
Cl16  Cl    Cl    0.094268 0.213179 0.543833 -0.425968
Cl17  Cl    Cl    0.000614 0.408774 0.769635 -0.456170
Cl18  Cl    Cl    0.785530 0.547910 0.908181 -0.429171
Cl19  Cl    Cl    0.999974 0.591225 0.230365 -0.460704
Cl20  Cl    Cl    0.232437 0.583908 0.014143 -0.459052
Cl21  Cl    Cl    0.000026 0.408775 0.230365 -0.460704
Cl22  Cl    Cl    0.767563 0.416092 0.014143 -0.459052
Cl23  Cl    Cl    0.999386 0.591226 0.769635 -0.456170
Cl24  Cl    Cl    0.214470 0.452090 0.908181 -0.429171
Cl25  Cl    Cl    0.083908 0.732437 0.485857 -0.459052
Cl26  Cl    Cl    0.091226 0.499400 0.730364 -0.456171
Cl27  Cl    Cl    0.047910 0.285529 0.591819 -0.429171
Cl28  Cl    Cl    0.908775 0.500023 0.269635 -0.460704
Cl29  Cl    Cl    0.916092 0.267563 0.485857 -0.459052
Cl30  Cl    Cl    0.908774 0.500600 0.730364 -0.456172
Cl31  Cl    Cl    0.952090 0.714470 0.591819 -0.429171
Cl32  Cl    Cl    0.091225 0.499977 0.269635 -0.460704
Cl33  Cl    Cl    0.713179 0.594268 0.956167 -0.425968
Cl34  Cl    Cl    0.515531 0.267307 0.915970 -0.455129
Cl35  Cl    Cl    0.286821 0.405732 0.956167 -0.425968
Cl36  Cl    Cl    0.484469 0.732693 0.915970 -0.455130
Cl37  Cl    Cl    0.267307 0.515531 0.084030 -0.455130
Cl38  Cl    Cl    0.405732 0.286821 0.043833 -0.425967
Cl39  Cl    Cl    0.732693 0.484469 0.084030 -0.455130
Cl40  Cl    Cl    0.594268 0.713179 0.043833 -0.425968
Cl41  Cl    Cl    0.499361 0.091226 0.269635 -0.456168
Cl42  Cl    Cl    0.285530 0.047910 0.408181 -0.429171
Cl43  Cl    Cl    0.500022 0.908775 0.730365 -0.460704
Cl44  Cl    Cl    0.732437 0.083908 0.514143 -0.459051
Cl45  Cl    Cl    0.499978 0.091225 0.730365 -0.460704
Cl46  Cl    Cl    0.267563 0.916092 0.514143 -0.459051
Cl47  Cl    Cl    0.500639 0.908774 0.269635 -0.456168
Cl48  Cl    Cl    0.714470 0.952090 0.408181 -0.429171

loop_
_geom_bond_atom_site_label_1
_geom_bond_atom_site_label_2
_ccdc_geom_bond_type
C72   Cl48  S    
C43   Cl19  S    
C88   H16   S    
C154  C161  S    
C120  C144  A    
C39   C87   A    
C64   C164  A    
C6    O16   A    
C100  H28   S    
Cu10  O37   S    
Cu11  O44   S    
C79   C121  A    
C4    O4    A    
C18   O34   A    
C147  C164  S    
Cu8   O29   S    
C64   C112  A    
C91   C131  A    
C30   Cl6   S    
C89   C129  A    
Cu9   O33   S    
C3    O7    A    
C23   O47   A    
Cu4   O15   S    
C1    O5    A    
C30   C146  A    
C78   H6    S    
C93   H21   S    
C44   C92   A    
C8    O12   A    
C4    O6    A    
C27   C75   A    
C28   Cl4   S    
C53   C159  A    
C39   Cl15  S    
C110  C138  A    
Cu3   O9    S    
Cu1   O3    S    
C99   H27   S    
C76   C124  A    
C18   C137  S    
C31   Cl7   S    
C32   C80   A    
C73   H1    S    
Cu7   Cu8   S    
C62   Cl38  S    
C81   H9    S    
C68   C116  A    
C33   Cl9   S    
C73   C121  A    
C119  C141  A    
C35   Cl11  S    
C36   Cl12  S    
C103  H31   S    
C58   C162  A    
C26   Cl2   S    
C111  C137  A    
Cu11  O42   S    
C67   C167  A    
C63   C161  A    
C48   C96   A    
C65   C113  A    
C102  H30   S    
C46   Cl22  S    
C6    C125  S    
C60   Cl36  S    
Cu8   O31   S    
Cu2   O7    S    
C53   C101  A    
C71   C119  A    
C40   C88   A    
C57   Cl33  S    
Cu9   O35   S    
C1    C124  S    
C87   H15   S    
C33   C149  A    
C20   O36   A    
C51   Cl27  S    
C5    C128  S    
C63   Cl39  S    
C7    C126  S    
C63   C111  A    
C43   C91   A    
C10   C129  S    
C113  H41   S    
C49   C97   A    
C31   C145  A    
C57   C161  A    
C44   Cl20  S    
C148  C167  S    
C98   H26   S    
C48   Cl24  S    
C55   Cl31  S    
C41   Cl17  S    
Cu5   O18   S    
C52   C160  A    
C41   C89   A    
C150  C157  S    
C71   Cl47  S    
C86   C126  A    
C112  C140  A    
C97   C133  A    
C58   Cl34  S    
C45   C93   A    
Cu7   O28   S    
C24   O46   A    
C118  H46   S    
C94   C130  A    
C38   C86   A    
C20   C139  S    
C42   C154  A    
Cu10  O40   S    
Cu6   O23   S    
C24   C143  S    
C95   H23   S    
C40   C152  A    
C153  C158  S    
C26   C146  A    
C13   O29   A    
C116  C144  A    
C42   Cl18  S    
C46   C94   A    
C10   O24   A    
C69   Cl45  S    
C152  C159  S    
Cu4   O14   S    
C72   C168  A    
C49   C157  A    
C111  H39   S    
C96   H24   S    
C41   C153  A    
C101  C135  A    
C112  H40   S    
C106  H34   S    
Cu2   O5    S    
C67   Cl43  S    
C50   C98   A    
C68   Cl44  S    
C44   C156  A    
C3    O3    A    
C36   C152  A    
C101  H29   S    
C52   C100  A    
C59   C107  A    
C42   C90   A    
C53   Cl29  S    
Cu12  O45   S    
C2    C121  S    
C14   O26   A    
C72   C120  A    
C80   H8    S    
C107  H35   S    
C10   O18   A    
C68   C168  A    
Cu5   O20   S    
C2    O8    A    
C146  C165  S    
C104  H32   S    
Cu12  O48   S    
Cu7   O26   S    
C19   O39   A    
C104  C136  A    
C81   C125  A    
C21   C144  S    
C83   C127  A    
C21   O45   A    
Cu10  O38   S    
Cu6   O21   S    
C74   H2    S    
C14   C133  S    
Cu11  O43   S    
C89   H17   S    
C39   C149  A    
C49   Cl25  S    
C93   C131  A    
C86   H14   S    
Cu8   O30   S    
C70   C118  A    
C34   Cl10  S    
C60   C164  A    
C113  C141  A    
C25   C73   A    
C107  C139  A    
C59   C163  A    
C2    O2    A    
C105  C137  A    
C29   C77   A    
Cu4   O16   S    
C37   Cl13  S    
C71   C165  A    
C34   C82   A    
C92   H20   S    
C100  C136  A    
C84   C128  A    
C50   Cl26  S    
C34   C150  A    
C21   O41   A    
C15   C134  S    
C115  H43   S    
C23   O43   A    
C5    O9    A    
C83   H11   S    
Cu12  O47   S    
Cu3   O12   S    
C65   C165  A    
C12   O22   A    
Cu1   O2    S    
C82   C126  A    
C156  C163  S    
C22   O48   A    
C94   H22   S    
C9    O17   A    
C120  H48   S    
C60   C108  A    
C61   Cl37  S    
C48   C156  A    
C61   C109  A    
C35   C151  A    
C43   C155  A    
C65   Cl41  S    
Cu11  O41   S    
C46   C154  A    
C28   C148  A    
C56   C104  A    
C35   C83   A    
Cu8   O32   S    
C15   O27   A    
C12   O20   A    
Cu2   O8    S    
C50   C158  A    
C45   Cl21  S    
C116  H44   S    
C47   Cl23  S    
Cu9   O34   S    
C69   C167  A    
C77   C123  A    
C99   C135  A    
C114  H42   S    
C108  H36   S    
C74   C122  A    
C24   O44   A    
C28   C76   A    
C11   C130  S    
C80   C124  A    
C9    C132  S    
Cu5   O17   S    
C66   C114  A    
C92   C132  A    
C54   C102  A    
C29   C147  A    
Cu7   O27   S    
C32   C148  A    
Cu3   O10   S    
C6    O10   A    
C47   C153  A    
Cu1   O4    S    
C56   C160  A    
C16   O28   A    
Cu6   O24   S    
C62   C162  A    
C40   Cl16  S    
C17   O33   A    
C19   O35   A    
Cu11  Cu12  S    
C90   C130  A    
C55   C157  A    
C29   Cl5   S    
Cu9   Cu10  S    
C95   C129  A    
C14   O32   A    
C97   H25   S    
C32   Cl8   S    
C57   C105  A    
Cu3   Cu4   S    
C12   C131  S    
C77   H5    S    
Cu1   Cu2   S    
C52   Cl28  S    
C75   H3    S    
C119  H47   S    
Cu5   Cu6   S    
Cu2   O6    S    
C117  H45   S    
C79   H7    S    
C75   C123  A    
C114  C142  A    
C37   C85   A    
C117  C143  A    
Cu9   O36   S    
C70   C166  A    
C106  C138  A    
C145  C162  S    
C151  C168  S    
C55   C103  A    
C38   Cl14  S    
C16   O30   A    
C69   C117  A    
C67   C115  A    
C17   O37   A    
Cu12  O46   S    
C23   C142  S    
C45   C155  A    
C3    C122  S    
C70   Cl46  S    
C91   H19   S    
C22   O42   A    
C82   H10   S    
C64   Cl40  S    
C37   C151  A    
C110  H38   S    
Cu7   O25   S    
C51   C99   A    
C115  C143  A    
C105  H33   S    
C66   C166  A    
C109  H37   S    
C25   Cl1   S    
C56   Cl32  S    
C108  C140  A    
Cu10  O39   S    
Cu6   O22   S    
C27   Cl3   S    
C11   O23   A    
C4    C123  S    
C58   C106  A    
C9    O21   A    
C102  C134  A    
C54   C158  A    
C8    C127  S    
C62   C110  A    
C8    O14   A    
C13   O25   A    
C66   Cl42  S    
C7    O11   A    
Cu4   O13   S    
C13   C136  S    
C85   C127  A    
C87   C125  A    
C15   O31   A    
C155  C160  S    
C61   C163  A    
C149  C166  S    
C54   Cl30  S    
C118  C142  A    
C31   C79   A    
C90   H18   S    
C98   C134  A    
C96   C132  A    
C109  C139  A    
C11   O19   A    
C103  C133  A    
C88   C128  A    
C59   Cl35  S    
Cu5   O19   S    
Cu3   O11   S    
C36   C84   A    
C19   C138  S    
C20   O38   A    
C22   C141  S    
C51   C159  A    
C26   C74   A    
Cu1   O1    S    
C84   H12   S    
C17   C140  S    
C85   H13   S    
C78   C122  A    
C18   O40   A    
C30   C78   A    
C1    O1    A    
C27   C147  A    
C7    O15   A    
C47   C95   A    
C25   C145  A    
C5    O13   A    
C76   H4    S    
C16   C135  S    
C33   C81   A    
C38   C150  A    
