data_mof_unit_40710.cif
_audit_creation_date              2012-12-10T20:44:47-0500
_audit_creation_method            fapswitch 2.2
_symmetry_space_group_name_H-M    P1
_symmetry_Int_Tables_number       1
_space_group_crystal_system       triclinic
_cell_length_a                    9.84541
_cell_length_b                    10.676911
_cell_length_c                    16.670038
_cell_angle_alpha                 89.478722
_cell_angle_beta                  94.195198
_cell_angle_gamma                 90.451888
_cell_volume                      1747.51717808

loop_
_atom_site_label
_atom_site_type_symbol
_atom_type_description
_atom_site_fract_x
_atom_site_fract_y
_atom_site_fract_z
_atom_type_partial_charge
C1    C     C_R   0.498857 0.260282 0.494919 0.934941
C2    C     C_R   0.644807 0.498703 0.786636 -0.195444
C3    C     C_R   0.587897 0.462344 0.137690 -0.191414
C4    C     C_R   0.593988 0.478290 0.219858 -0.194492
C5    C     C_R   0.461254 0.460383 0.092679 0.278159
C6    C     C_R   0.474066 0.492983 0.258843 -0.084296
C7    C     C_R   0.347671 0.494612 0.214231 -0.198343
C8    C     C_R   0.341225 0.479546 0.131127 0.286733
C9    C     C_R   0.617814 0.065560 0.509290 0.034958
C10   C     C_R   0.499395 0.128608 0.482800 -0.226960
C11   C     C_R   0.388852 0.061454 0.444032 0.370455
C12   C     C_R   0.517557 0.494003 0.653524 0.891214
C13   C     C_R   0.390825 0.931477 0.449399 -0.267073
C14   C     C_R   0.502305 0.871428 0.489487 -0.228725
C15   C     C_R   0.620244 0.938106 0.512043 0.104423
C16   C     C_3   0.707053 0.936695 0.589846 0.334500
C17   C     C_3   0.705239 0.078887 0.585873 -0.501296
C18   C     C_R   0.075909 0.414860 0.545631 0.309465
C19   C     C_R   0.066456 0.575720 0.449156 -0.066113
C20   C     C_R   0.922276 0.575493 0.448998 -0.001315
C21   C     C_R   0.933353 0.414849 0.545607 0.211050
C22   C     C_3   0.938106 0.400638 0.634763 -0.460151
C23   C     C_R   0.500591 0.739986 0.499484 0.906037
C24   C     C_3   0.092193 0.399807 0.634768 -0.489038
C25   C     C_R   0.482708 0.501187 0.346115 0.916021
C26   C     C_R   0.528755 0.463602 0.738561 -0.105400
C27   C     C_R   0.428740 0.387566 0.770071 -0.306750
C28   C     C_R   0.439907 0.351812 0.850606 0.465392
C29   C     C_R   0.551706 0.396487 0.900165 0.205550
C30   C     C_R   0.655958 0.465083 0.867346 -0.201651
H1    H     H_    0.693028 0.477762 0.252776 0.188583
H2    H     H_    0.304273 0.877446 0.424633 0.207751
H3    H     H_    0.654292 0.896615 0.641087 0.076413
H4    H     H_    0.650321 0.121810 0.634606 0.168934
H5    H     H_    0.804771 0.123612 0.575305 0.249997
H6    H     H_    0.116643 0.638913 0.409523 0.152084
H7    H     H_    0.863371 0.638581 0.409290 0.164091
H8    H     H_    0.898815 0.484091 0.664722 0.244114
H9    H     H_    0.894587 0.309658 0.653678 0.215385
H10   H     H_    0.141562 0.482328 0.665257 0.232783
H11   H     H_    0.682679 0.452684 0.109256 0.188333
H12   H     H_    0.136782 0.307596 0.652851 0.227143
H13   H     H_    0.742077 0.498616 0.905586 0.194713
H14   H     H_    0.724575 0.554747 0.762349 0.187018
H15   H     H_    0.254251 0.506835 0.243697 0.197484
H16   H     H_    0.343150 0.354182 0.731644 0.186479
N1    N     N_2   0.552869 0.391429 0.984076 -0.131559
N2    N     N_2   0.454234 0.448698 0.008330 -0.094374
N3    N     N_R   0.142860 0.499130 0.500540 -0.111788
N4    N     N_R   0.857210 0.499170 0.500530 -0.106617
O1    O     O_R   0.614690 0.316790 0.499990 -0.618035
O2    O     O_R   0.385350 0.316760 0.500000 -0.558975
O3    O     O_R   0.627460 0.498860 0.616130 -0.612041
O4    O     O_R   0.398120 0.498820 0.616130 -0.628676
O5    O     O_R   0.614650 0.683240 0.500000 -0.574587
O6    O     O_R   0.385310 0.683210 0.500010 -0.626324
O7    O     O_R   0.601880 0.501180 0.383870 -0.637301
O8    O     O_R   0.372540 0.501140 0.383870 -0.594394
Zn1   Zn    Zn3+2 0.653130 0.500020 0.499990 1.006102
Zn2   Zn    Zn3+2 0.346870 0.499980 0.500010 1.015949
S1    S     S_3+6 0.873040 0.873233 0.580324 0.024095
O9    O     O_2   0.872233 0.737144 0.603895 -0.310601
O10   O     O_2   0.911838 0.886748 0.495063 -0.308296
O11   O     O_3   0.987175 0.950151 0.642065 -0.534175
H17   H     H_    0.076760 0.916223 0.630053 0.381136
S2    S     S_3+6 0.312668 0.253028 0.886836 0.059994
O12   O     O_2   0.190124 0.330739 0.900677 -0.247729
O13   O     O_2   0.272898 0.155309 0.824963 -0.287111
O14   O     O_3   0.368930 0.181925 0.973284 -0.513342
H18   H     H_    0.286964 0.142501 0.994049 0.402881
Br1   Br    Br    0.167082 0.483870 0.071961 -0.382274
S3    S     S_3+6 0.246591 0.132407 0.390913 0.066536
O15   O     O_2   0.292018 0.243465 0.343554 -0.261866
O16   O     O_2   0.175726 0.040666 0.333838 -0.260122
O17   O     O_3   0.136184 0.179495 0.456509 -0.534535
H19   H     H_    0.115627 0.103433 0.488004 0.366287

loop_
_geom_bond_atom_site_label_1
_geom_bond_atom_site_label_2
_ccdc_geom_bond_type
S2    O13   D    
O5    Zn1   S    
C18   C21   A    
C24   H12   S    
C13   H2    S    
C19   C20   A    
O3    Zn1   S    
C7    C8    A    
O4    Zn2   S    
C26   C27   A    
N3    Zn2   S    
C29   N1    S    
C18   C24   S    
N4    Zn1   S    
C7    H15   S    
C28   C29   A    
C19   H6    S    
O7    Zn1   S    
S2    O14   S    
O8    Zn2   S    
C15   C16   S    
C22   H8    S    
S1    O10   D    
C20   N4    A    
O2    Zn2   S    
C2    H14   S    
C16   C17   S    
C16   S1    S    
C9    C10   A    
C12   O3    A    
S2    O12   D    
C13   C14   A    
S1    O9    D    
C25   O7    A    
S3    O17   S    
C21   N4    A    
C5    N2    S    
C23   O6    A    
S3    O16   D    
C11   S3    S    
O6    Zn2   S    
C12   C26   S    
C14   C23   S    
S1    O11   S    
C28   S2    S    
O17   H19   S    
C29   C30   A    
C16   H3    S    
C19   N3    A    
N1    N2    D    
C2    C26   A    
C1    O1    A    
C27   H16   S    
C9    C17   S    
C22   C24   S    
C30   H13   S    
C4    C6    A    
O1    Zn1   S    
C17   H4    S    
C3    C4    A    
C3    H11   S    
C8    Br1   S    
C1    C10   S    
S3    O15   D    
C3    C5    A    
C5    C8    A    
C23   O5    A    
C6    C7    A    
C2    C30   A    
O11   H17   S    
C9    C15   A    
C20   H7    S    
C11   C13   A    
C22   H9    S    
C24   H10   S    
O14   H18   S    
C1    O2    A    
C4    H1    S    
C10   C11   A    
C6    C25   S    
C25   O8    A    
C27   C28   A    
C14   C15   A    
C17   H5    S    
C21   C22   S    
C12   O4    A    
C18   N3    A    
