data_mof_unit_24026.cif
_audit_creation_date              2012-12-11T20:30:22-0500
_audit_creation_method            fapswitch 2.2
_symmetry_space_group_name_H-M    P1
_symmetry_Int_Tables_number       1
_space_group_crystal_system       triclinic
_cell_length_a                    8.306438
_cell_length_b                    17.471291
_cell_length_c                    18.796274
_cell_angle_alpha                 103.708152
_cell_angle_beta                  92.122894
_cell_angle_gamma                 98.546242
_cell_volume                      2613.24494412

loop_
_atom_site_label
_atom_site_type_symbol
_atom_type_description
_atom_site_fract_x
_atom_site_fract_y
_atom_site_fract_z
_atom_type_partial_charge
Ba1   Ba    Ba6+2 0.853800 0.535410 0.467450 1.606336
Ba2   Ba    Ba6+2 0.336030 0.464660 0.532560 1.641797
C1    C     C_3   0.839484 0.759913 0.225494 -0.389318
C2    C     C_R   0.889505 0.422146 0.089045 0.035088
C3    C     C_R   0.724171 0.391357 0.062902 0.063252
C4    C     C_3   0.273902 0.749278 0.313562 0.377660
C5    C     C_R   0.666782 0.397154 0.993513 -0.088919
C6    C     C_R   0.769812 0.432099 0.948753 0.013621
C7    C     C_R   0.933812 0.462580 0.973514 0.004858
C8    C     C_R   0.709629 0.436541 0.879419 -0.114082
C9    C     C_R   0.811663 0.469227 0.832135 -0.041533
C10   C     C_R   0.975870 0.502490 0.857224 0.008886
C11   C     C_R   0.036254 0.498804 0.928260 0.002215
C12   C     C_3   0.773724 0.727155 0.289015 0.411559
C13   C     C_R   0.755759 0.467075 0.759613 -0.023121
C14   C     C_R   0.862085 0.499048 0.713599 -0.258482
C15   C     C_R   0.023913 0.534680 0.737286 0.021901
C16   C     C_3   0.334628 0.812629 0.272552 -0.354651
C17   C     C_R   0.080581 0.538066 0.811202 -0.046262
C18   C     C_R   0.159061 0.488152 0.068719 0.003005
C19   C     C_R   0.219923 0.484008 0.139446 0.002488
C20   C     C_R   0.113535 0.452264 0.186913 -0.044280
C21   C     C_R   0.951585 0.418854 0.159256 -0.053423
C22   C     C_R   0.239040 0.574554 0.840627 -0.057640
C23   C     C_3   0.598498 0.292566 0.293170 0.243644
C24   C     C_R   0.300623 0.568311 0.909440 0.017276
C25   C     C_R   0.199709 0.530225 0.953595 0.000567
C26   C     C_R   0.262106 0.524373 0.023258 -0.005670
C27   C     C_R   0.463378 0.599371 0.934176 -0.078041
C28   C     C_3   0.079100 0.718554 0.726207 0.262708
C29   C     C_R   0.528058 0.593737 0.002427 0.064800
C30   C     C_R   0.427101 0.555665 0.047634 0.028055
C31   C     C_R   0.385782 0.514511 0.163406 -0.048296
C32   C     C_R   0.486939 0.548761 0.116597 -0.089210
C33   C     C_R   0.445540 0.513265 0.234835 0.035834
C34   C     C_3   0.641134 0.220423 0.238973 -0.360153
C35   C     C_R   0.343102 0.477067 0.279715 -0.237319
C36   C     C_R   0.173564 0.453198 0.259832 0.006346
C37   C     C_2   0.402620 0.737484 0.524629 -0.243354
C38   C     C_3   0.295517 0.793659 0.505935 0.028539
C39   C     C_2   0.388329 0.867323 0.490221 -0.153405
C40   C     C_3   0.154355 0.770832 0.799943 -0.435458
C41   C     C_2   0.548803 0.889607 0.511028 0.018710
C42   C     C_2   0.638879 0.835392 0.543703 0.007158
C43   C     C_1   0.564256 0.761049 0.542705 0.021664
C44   C     C_R   0.809053 0.135139 0.518645 -0.128968
C45   C     C_3   0.029275 0.238193 0.711951 0.391610
C46   C     C_R   0.861414 0.217485 0.536113 -0.011434
C47   C     C_R   0.619576 0.234262 0.467929 0.023096
C48   C     C_R   0.564829 0.151842 0.452037 -0.127389
C49   C     C_R   0.657001 0.101756 0.478849 0.030580
C50   C     C_2   0.629052 0.972583 0.513531 -0.081266
C51   C     C_2   0.589196 0.015677 0.466817 -0.089189
C52   C     C_3   0.097336 0.273268 0.299202 0.336952
C53   C     C_R   0.765948 0.266735 0.511013 -0.239548
C54   C     C_3   0.105288 0.245859 0.215857 -0.412975
C55   C     C_3   0.611667 0.730824 0.708734 0.333058
C56   C     C_3   0.087245 0.187552 0.763976 0.000954
C57   C     C_3   0.657444 0.821812 0.734172 -0.417210
C58   C     C_3   0.063781 0.200436 0.331551 -0.280533
C59   C     C_3   0.610922 0.695560 0.775738 -0.319922
C60   C     C_3   0.735241 0.795500 0.350061 -0.306342
C61   C     C_3   0.009501 0.322734 0.753187 -0.292093
C62   C     C_3   0.183279 0.236734 0.836196 -0.421094
C63   C     C_3   0.947131 0.129154 0.781949 -0.470267
C64   C     C_3   0.494322 0.211997 0.638254 -0.246747
C65   C     C_3   0.219419 0.669187 0.258399 -0.311563
C66   C     C_3   0.606237 0.351854 0.107374 -0.417946
C67   C     C_3   0.572542 0.268973 0.709611 0.406289
C68   C     C_3   0.702607 0.632009 0.026593 -0.416968
C69   C     C_3   0.418480 0.466190 0.350120 -0.240398
C70   C     C_3   0.803804 0.872186 0.585221 -0.365924
C71   C     C_3   0.307786 0.661640 0.535933 -0.226172
C72   C     C_3   0.593096 0.221444 0.766784 -0.393438
C73   C     C_R   0.994158 0.457753 0.043883 -0.013449
H1    H     H_    0.259424 0.814410 0.791691 0.122206
H2    H     H_    0.558437 0.333622 0.261943 0.007821
H3    H     H_    0.705491 0.324210 0.329640 0.108748
H4    H     H_    0.680998 0.177971 0.268823 0.105911
H5    H     H_    0.532946 0.189845 0.200896 0.108342
H6    H     H_    0.740447 0.239953 0.206468 0.086490
H7    H     H_    0.436083 0.794967 0.238761 0.097693
H8    H     H_    0.909749 0.206849 0.683083 -0.047153
H9    H     H_    0.170838 0.149436 0.733575 0.112735
H10   H     H_    0.695284 0.296027 0.698577 -0.070898
H11   H     H_    0.660342 0.172202 0.744226 0.077692
H12   H     H_    0.215189 0.306208 0.323276 0.082019
H13   H     H_    0.472984 0.194116 0.780509 0.116230
H14   H     H_    0.659843 0.260621 0.817750 0.101708
H15   H     H_    0.582366 0.413383 0.862791 0.099613
H16   H     H_    0.873594 0.388669 0.191956 0.086929
H17   H     H_    0.317835 0.606508 0.809566 0.090807
H18   H     H_    0.540913 0.628395 0.899998 0.060400
H19   H     H_    0.613969 0.570266 0.133916 0.114130
H20   H     H_    0.377414 0.744368 0.350728 0.000275
H21   H     H_    0.888565 0.097891 0.535463 0.055617
H22   H     H_    0.717535 0.001157 0.559153 0.072717
H23   H     H_    0.992008 0.205560 0.189654 0.110898
H24   H     H_    0.318020 0.907525 0.471724 0.078146
H25   H     H_    0.450478 0.127031 0.419461 0.070131
H26   H     H_    0.809670 0.330213 0.521941 0.075340
H27   H     H_    0.034126 0.757731 0.693954 0.077116
H28   H     H_    0.971774 0.677157 0.735649 0.018250
H29   H     H_    0.869706 0.699538 0.311142 0.133783
H30   H     H_    0.061786 0.803909 0.828764 0.083439
H31   H     H_    0.197143 0.733471 0.834589 0.104019
H32   H     H_    0.950916 0.160159 0.304510 0.068212
H33   H     H_    0.167573 0.166553 0.324419 0.094341
H34   H     H_    0.209614 0.212982 0.203550 0.103401
H35   H     H_    0.047029 0.219886 0.391040 0.127697
H36   H     H_    0.124351 0.297277 0.190762 0.079668
H37   H     H_    0.516027 0.717021 0.811978 0.061551
H38   H     H_    0.585647 0.629410 0.758097 0.124773
H39   H     H_    0.731566 0.713400 0.807632 0.082067
H40   H     H_    0.599636 0.845530 0.785440 0.094249
H41   H     H_    0.648707 0.828945 0.329385 0.076074
H42   H     H_    0.680632 0.771065 0.394597 0.111498
H43   H     H_    0.847854 0.838603 0.372607 0.122353
H44   H     H_    0.875455 0.710991 0.182950 0.102173
H45   H     H_    0.487760 0.716243 0.682076 0.063154
H46   H     H_    0.959958 0.353630 0.714427 0.052546
H47   H     H_    0.925400 0.320473 0.797285 0.054157
H48   H     H_    0.128859 0.358866 0.777254 0.145102
H49   H     H_    0.236668 0.196546 0.864871 0.111913
H50   H     H_    0.102598 0.269554 0.873790 0.120831
H51   H     H_    0.284640 0.280375 0.825616 0.165186
H52   H     H_    0.997090 0.086894 0.809226 0.128959
H53   H     H_    0.867610 0.161748 0.820179 0.135773
H54   H     H_    0.874580 0.093205 0.731002 0.108332
H55   H     H_    0.466939 0.246157 0.597920 0.144564
H56   H     H_    0.947737 0.806874 0.244960 0.105657
H57   H     H_    0.579418 0.170999 0.615675 0.026181
H58   H     H_    0.381120 0.174534 0.647516 0.128986
H59   H     H_    0.196363 0.620899 0.287407 0.093881
H60   H     H_    0.106508 0.669742 0.225474 0.106389
H61   H     H_    0.315684 0.656556 0.220278 0.098676
H62   H     H_    0.601043 0.392890 0.161716 0.109230
H63   H     H_    0.480389 0.335810 0.080423 0.113434
H64   H     H_    0.646653 0.296287 0.114336 0.102271
H65   H     H_    0.540339 0.373875 0.973992 0.069631
H66   H     H_    0.817558 0.496425 0.658095 0.083915
H67   H     H_    0.791888 0.839828 0.744341 0.113580
H68   H     H_    0.764759 0.655295 0.982887 0.111804
H69   H     H_    0.703991 0.682853 0.074835 0.118209
H70   H     H_    0.773785 0.588345 0.041111 0.123036
H71   H     H_    0.362923 0.412451 0.364841 0.096185
H72   H     H_    0.546270 0.456290 0.344397 0.126791
H73   H     H_    0.409463 0.518008 0.396020 0.125857
H74   H     H_    0.496643 0.989133 0.421937 0.067314
H75   H     H_    0.863012 0.832395 0.611399 0.127636
H76   H     H_    0.889039 0.893911 0.547562 0.131480
H77   H     H_    0.789140 0.923781 0.630588 0.073925
H78   H     H_    0.610244 0.849783 0.692546 0.084163
H79   H     H_    0.354447 0.646203 0.584436 0.127097
H80   H     H_    0.179485 0.668372 0.546027 0.147343
H81   H     H_    0.311324 0.611914 0.487334 0.112668
H82   H     H_    0.234883 0.820724 0.235441 0.109956
H83   H     H_    0.378563 0.870604 0.312530 0.094820
H84   H     H_    0.744542 0.785993 0.200324 0.112026
O1    O     O_2   0.871520 0.445720 0.321500 -0.480679
O2    O     O_2   0.185581 0.224682 0.523970 -0.481115
O3    O     O_3   0.147120 0.243707 0.660801 -0.583958
O4    O     O_3   0.121030 0.451930 0.411150 -0.475229
O5    O     O_3   0.581210 0.598010 0.542960 -0.478387
O6    O     O_2   0.335820 0.303580 0.452320 -0.435360
O7    O     O_3   0.469316 0.267197 0.331556 -0.662207
O8    O     O_2   0.421451 0.470224 0.752270 -0.478467
O9    O     O_3   0.471553 0.325751 0.736343 -0.577101
O10   O     O_3   0.662190 0.593100 0.375060 -0.484508
O11   O     O_2   0.795841 0.552667 0.245942 -0.515588
O12   O     O_3   0.726399 0.697291 0.662858 -0.624347
O13   O     O_3   0.973341 0.319387 0.317800 -0.639570
O14   O     O_3   0.629309 0.672920 0.262865 -0.637313
O15   O     O_2   0.853880 0.696450 0.547730 -0.446643
O16   O     O_3   0.085100 0.636210 0.413950 -0.486555
O17   O     O_2   0.968651 0.769489 0.459733 -0.488664
O18   O     O_3   0.140177 0.773249 0.351558 -0.618887
O19   O     O_2   0.318180 0.554310 0.678550 -0.457135
O20   O     O_3   0.068680 0.548140 0.588860 -0.477934
O21   O     O_3   0.527520 0.406960 0.624950 -0.458437
O22   O     O_3   0.199833 0.681414 0.687466 -0.652227
O23   O     O_3   0.608500 0.402060 0.457050 -0.488338
O24   O     O_3   0.104610 0.363860 0.586060 -0.452200
P1    P     P_3+3 0.038810 0.422920 0.331160 0.969967
P2    P     P_3+3 0.678260 0.686080 0.568600 0.990274
P3    P     P_3+3 0.128204 0.741472 0.433102 0.918250
P4    P     P_3+3 0.150900 0.577150 0.668860 0.977950
P5    P     P_3+3 0.068096 0.261011 0.578984 0.960959
P6    P     P_3+3 0.638782 0.578720 0.279357 0.908803
P7    P     P_3+3 0.513678 0.300585 0.426668 0.922874
P8    P     P_3+3 0.547514 0.418361 0.719351 0.972845

loop_
_geom_bond_atom_site_label_1
_geom_bond_atom_site_label_2
_ccdc_geom_bond_type
C46   C53   A    
C69   H72   S    
C38   C39   S    
C61   H48   S    
C66   H63   S    
C54   H23   S    
O22   P4    S    
C5    C6    A    
C52   C58   S    
C52   H12   S    
C42   C43   D    
C10   C11   A    
O11   P6    D    
C68   H68   S    
O9    P8    S    
C17   C22   A    
C1    H56   S    
C63   H52   S    
C72   H14   S    
C55   O12   S    
C33   C35   A    
C22   C24   A    
C46   P5    S    
C12   O14   S    
O15   P2    D    
C45   C61   S    
C5    H65   S    
C41   C50   S    
C55   C57   S    
C64   C67   S    
O20   P4    S    
C13   C14   A    
C20   C36   A    
C50   H22   S    
C36   P1    S    
C71   H81   S    
Ba1   Ba2   S    
Ba2   O23   S    
Ba1   O10   S    
C55   C59   S    
C47   C48   A    
C7    C11   A    
Ba2   P4    S    
C60   H42   S    
C31   C33   A    
C45   O3    S    
C9    C13   A    
C29   C68   S    
C57   H67   S    
C6    C7    A    
C70   H77   S    
C71   H79   S    
C39   H24   S    
C19   C31   A    
O10   P6    S    
C54   H36   S    
C58   H33   S    
C37   C43   D    
C69   H73   S    
C14   H66   S    
C33   P6    S    
C19   C20   A    
C1    H84   S    
C39   C41   D    
C28   H27   S    
C66   H62   S    
Ba2   O21   S    
C3    C66   S    
C22   H17   S    
C61   H46   S    
Ba1   P1    S    
C57   H78   S    
O6    P7    D    
C64   H57   S    
C56   C62   S    
C4    C16   S    
C52   C54   S    
Ba1   O15   S    
O12   P2    S    
C23   H3    S    
C63   H53   S    
C52   O13   S    
C26   C30   A    
C65   H59   S    
O23   P7    S    
Ba1   O5    S    
O5    P2    S    
C34   H5    S    
Ba2   O5    S    
C37   C38   S    
C51   H74   S    
C2    C21   A    
C27   H18   S    
C14   C15   A    
C47   P7    S    
C18   C26   A    
C48   C49   A    
C47   C53   A    
C44   C49   A    
C34   H4    S    
O18   P3    S    
C18   C73   A    
O7    P7    S    
C30   C32   A    
C28   H28   S    
C65   H60   S    
C41   C42   S    
C60   H41   S    
C35   C36   A    
C16   H83   S    
C56   H9    S    
C64   H58   S    
O13   P1    S    
C56   C63   S    
C12   H29   S    
C29   C30   A    
C34   H6    S    
C9    C10   A    
C70   H76   S    
C71   H80   S    
C31   C32   A    
C24   C25   A    
C44   H21   S    
C67   C72   S    
C68   H70   S    
C72   H11   S    
C58   H32   S    
C40   H31   S    
Ba2   O6    S    
Ba1   O4    S    
C1    C12   S    
C1    H44   S    
C55   H45   S    
O19   P4    D    
C57   H40   S    
C4    C65   S    
O16   P3    S    
C62   H50   S    
C16   H7    S    
C62   H51   S    
C35   C69   S    
C4    O18   S    
C59   H38   S    
C28   O22   S    
C23   H2    S    
Ba2   O20   S    
C54   H34   S    
C25   C26   A    
C61   H47   S    
C67   H10   S    
C50   C51   D    
C3    C5    A    
C13   P8    S    
Ba1   O16   S    
O4    P1    S    
C40   H1    S    
Ba1   O1    S    
C28   C40   S    
C32   H19   S    
C2    C3    A    
O21   P8    S    
Ba2   O4    S    
C63   H54   S    
Ba1   O23   S    
O17   P3    D    
Ba1   P2    S    
C23   O7    S    
O2    P5    D    
O8    P8    D    
C53   H26   S    
C68   H69   S    
C7    C73   A    
C72   H13   S    
C65   H61   S    
C67   O9    S    
C27   C29   A    
C16   H82   S    
C62   H49   S    
O24   P5    S    
C45   C56   S    
O3    P5    S    
Ba1   O20   S    
C43   P2    S    
C70   H75   S    
C15   P4    S    
C10   C17   A    
O14   P6    S    
C15   C17   A    
C42   C70   S    
C21   H16   S    
Ba2   O24   S    
C37   C71   S    
C40   H30   S    
C48   H25   S    
C60   H43   S    
C58   H35   S    
C8    C9    A    
C23   C34   S    
C45   H8    S    
C2    C73   A    
C44   C46   A    
C69   H71   S    
C38   P3    S    
C18   C19   A    
C8    H15   S    
C24   C27   A    
C6    C8    A    
C4    H20   S    
C59   H39   S    
C20   C21   A    
C11   C25   A    
C66   H64   S    
Ba2   O19   S    
C49   C51   S    
C59   H37   S    
O1    P1    D    
C64   H55   S    
C12   C60   S    
