data_mof_unit_54287.cif
_audit_creation_date              2012-12-11T15:27:36-0500
_audit_creation_method            fapswitch 2.2
_symmetry_space_group_name_H-M    P1
_symmetry_Int_Tables_number       1
_space_group_crystal_system       triclinic
_cell_length_a                    23.225285
_cell_length_b                    7.297972
_cell_length_c                    15.115526
_cell_angle_alpha                 90.031986
_cell_angle_beta                  108.183523
_cell_angle_gamma                 89.955942
_cell_volume                      2434.0989444

loop_
_atom_site_label
_atom_site_type_symbol
_atom_type_description
_atom_site_fract_x
_atom_site_fract_y
_atom_site_fract_z
_atom_type_partial_charge
O1    O     O_R   0.711000 0.648610 0.341170 -0.534325
O2    O     O_R   0.289000 0.351390 0.658830 -0.534327
O3    O     O_R   0.789000 0.148610 0.158830 -0.532964
O4    O     O_R   0.211000 0.851390 0.841170 -0.532968
O5    O     O_R   0.829650 0.322030 0.336650 -0.535405
O6    O     O_R   0.170350 0.677970 0.663350 -0.535406
O7    O     O_R   0.670350 0.822030 0.163350 -0.535725
O8    O     O_R   0.329650 0.177970 0.836650 -0.535726
C1    C     C_R   0.854294 0.485766 0.356744 0.724653
C2    C     C_R   0.145706 0.514234 0.643256 0.724653
C3    C     C_R   0.645707 0.985821 0.143256 0.724490
C4    C     C_R   0.354293 0.014179 0.856744 0.724490
O9    O     O_R   0.713950 0.319280 0.352070 -0.538337
O10   O     O_R   0.286050 0.680720 0.647930 -0.538335
O11   O     O_R   0.786050 0.819280 0.147930 -0.539134
O12   O     O_R   0.213950 0.180720 0.852070 -0.539132
O13   O     O_R   0.672470 0.142870 0.174360 -0.530728
O14   O     O_R   0.327530 0.857130 0.825640 -0.530728
O15   O     O_R   0.827530 0.642870 0.325640 -0.531266
O16   O     O_R   0.172470 0.357130 0.674360 -0.531265
C5    C     C_R   0.701770 0.487372 0.375970 0.772419
C6    C     C_R   0.298230 0.512628 0.624030 0.772421
C7    C     C_R   0.798234 0.987213 0.124012 0.772900
C8    C     C_R   0.201766 0.012787 0.875987 0.772899
O17   O     O_3   0.736530 0.478650 0.191680 -0.383573
O18   O     O_3   0.263470 0.521350 0.808320 -0.383574
O19   O     O_3   0.763470 0.978650 0.308320 -0.384130
O20   O     O_3   0.236530 0.021350 0.691680 -0.384130
V1    V     V_3+5 0.752500 0.206170 0.260820 1.532585
V2    V     V_3+5 0.247500 0.793830 0.739180 1.532582
V3    V     V_3+5 0.747500 0.706170 0.239180 1.530383
V4    V     V_3+5 0.252500 0.293830 0.760820 1.530382
C9    C     C_R   0.827874 0.992325 0.051966 -0.136041
C10   C     C_R   0.172123 0.007677 0.948031 -0.136045
C11   C     C_R   0.672059 0.493330 0.447887 -0.136232
C12   C     C_R   0.327943 0.506671 0.552116 -0.136231
C13   C     C_R   0.823807 0.925717 0.893992 -0.131575
C14   C     C_R   0.176187 0.074280 0.106003 -0.131572
C15   C     C_R   0.676707 0.438428 0.607107 -0.131455
C16   C     C_R   0.323298 0.561579 0.392898 -0.131453
C17   C     C_R   0.794248 0.958305 0.959559 -0.252316
C18   C     C_R   0.205748 0.041683 0.040439 -0.252321
C19   C     C_R   0.705987 0.467435 0.540878 -0.255189
C20   C     C_R   0.294017 0.532561 0.459123 -0.255193
C21   C     C_R   0.890911 0.008454 0.077484 0.559977
C22   C     C_R   0.109085 0.991566 0.922507 0.559975
C23   C     C_R   0.608911 0.504797 0.422106 0.559418
C24   C     C_R   0.391092 0.495217 0.577901 0.559416
C25   C     C_R   0.921141 0.998921 0.009374 -0.041239
C26   C     C_R   0.078854 0.001099 0.990614 -0.041241
C27   C     C_R   0.578798 0.499731 0.490419 -0.041443
C28   C     C_R   0.421206 0.500286 0.509591 -0.041444
C29   C     C_R   0.887650 0.933983 0.919436 0.010108
C30   C     C_R   0.112343 0.066029 0.080554 0.010106
C31   C     C_R   0.612811 0.442821 0.581623 0.009602
C32   C     C_R   0.387195 0.557200 0.418386 0.009605
C33   C     C_R   0.984434 0.035469 0.030176 0.013679
C34   C     C_R   0.015559 0.964558 0.969808 0.013680
C35   C     C_R   0.515278 0.533303 0.469015 0.013154
C36   C     C_R   0.484728 0.466722 0.530997 0.013152
C37   C     C_R   0.982539 0.855796 0.892356 -0.037461
C38   C     C_R   0.017454 0.144236 0.107626 -0.037449
C39   C     C_R   0.518549 0.364864 0.610644 -0.037668
C40   C     C_R   0.481457 0.635170 0.389371 -0.037663
C41   C     C_R   0.918854 0.861080 0.861094 -0.091771
C42   C     C_R   0.081139 0.138945 0.138892 -0.091770
C43   C     C_R   0.582190 0.373874 0.641575 -0.092186
C44   C     C_R   0.417816 0.626164 0.358439 -0.092180
H1    H     H_    0.254570 0.055970 0.060348 0.153441
H2    H     H_    0.745426 0.944003 0.939654 0.153434
H3    H     H_    0.245080 0.543024 0.438981 0.155839
H4    H     H_    0.754923 0.456962 0.561018 0.155840
H5    H     H_    0.796493 0.885473 0.824665 0.149224
H6    H     H_    0.203499 0.114517 0.175332 0.149227
H7    H     H_    0.704348 0.404450 0.677207 0.150268
H8    H     H_    0.295658 0.595555 0.322798 0.150268
C45   C     C_1   0.416784 0.006915 0.918690 -0.121032
C46   C     C_1   0.583216 0.993084 0.081310 -0.121035
C47   C     C_1   0.083215 0.507046 0.581307 -0.122088
C48   C     C_1   0.916785 0.492954 0.418693 -0.122092
C49   C     C_1   0.469153 0.002371 0.969938 0.052351
C50   C     C_1   0.530847 0.997629 0.030062 0.052349
C51   C     C_1   0.030847 0.502436 0.530061 0.051791
C52   C     C_1   0.969153 0.497564 0.469939 0.051789
C53   C     C_1   0.886057 0.773682 0.773428 0.320529
N1    N     N_1   0.859969 0.704042 0.703619 -0.358043
C54   C     C_1   0.113935 0.226347 0.226557 0.320535
N2    N     N_1   0.140022 0.295989 0.296366 -0.358041
C55   C     C_1   0.615661 0.294101 0.730944 0.319248
N3    N     N_1   0.642288 0.230519 0.802106 -0.356080
C56   C     C_1   0.384345 0.705976 0.269079 0.319249
N4    N     N_1   0.357719 0.769592 0.197925 -0.356084
F1    F     F_    0.077444 0.994868 0.830157 -0.692069
F2    F     F_    0.922555 0.005173 0.169834 -0.692070
F3    F     F_    0.422700 0.506471 0.670090 -0.692252
F4    F     F_    0.577300 0.493553 0.329918 -0.692251
C57   C     C_1   0.012501 0.716165 0.853778 0.411085
N5    N     N_1   0.036162 0.604275 0.823167 -0.313840
C58   C     C_1   0.987491 0.283878 0.146197 0.411081
N6    N     N_1   0.963829 0.395775 0.176802 -0.313839
C59   C     C_1   0.489606 0.227856 0.652306 0.412312
N7    N     N_1   0.466763 0.118058 0.685396 -0.313886
C60   C     C_1   0.510403 0.772180 0.347713 0.412308
N8    N     N_1   0.533247 0.881980 0.314627 -0.313885

loop_
_geom_bond_atom_site_label_1
_geom_bond_atom_site_label_2
_ccdc_geom_bond_type
O17   V3    S    
C40   C60   S    
C54   N2    T    
O1    C5    A    
C19   H4    S    
C24   F3    S    
O19   V1    S    
C9    C21   A    
O3    C7    A    
C10   C18   A    
C43   C55   S    
C39   C59   S    
O15   V3    S    
C57   N5    T    
C25   C33   A    
C33   C38   A    
C53   N1    T    
O7    C3    A    
C35   C40   A    
C26   C30   A    
C36   C39   A    
C40   C44   A    
O9    V1    S    
C14   C18   A    
C14   H6    S    
O4    C8    A    
O1    V3    S    
C44   C56   S    
O13   V1    S    
C20   H3    S    
O2    V4    S    
O3    V1    S    
C28   C36   A    
C1    O15   A    
C15   C31   A    
C51   C52   S    
C2    O16   A    
C16   C32   A    
O2    C6    A    
C23   F4    S    
C10   C22   A    
C15   H7    S    
C11   C19   A    
C16   C20   A    
C48   C52   T    
C13   C29   A    
C34   C37   A    
O11   C7    A    
C11   C23   A    
C35   C36   A    
O12   C8    A    
O10   V2    S    
C21   F2    S    
C49   C50   S    
O5    V1    S    
C39   C43   A    
O7    V3    S    
C38   C42   A    
O8    V4    S    
C59   N7    T    
C42   C54   S    
O18   V4    S    
C23   C27   A    
C7    C9    S    
C32   C44   A    
C18   H1    S    
C8    C10   S    
C16   H8    S    
C1    C48   S    
C26   C34   A    
O5    C1    A    
C3    C46   S    
C46   C50   T    
C31   C43   A    
C58   N6    T    
C14   C30   A    
C21   C25   A    
O8    C4    A    
C4    C45   S    
O9    C5    A    
O11   V3    S    
O14   V2    S    
O6    V2    S    
C12   C20   A    
C27   C35   A    
C56   N4    T    
C29   C41   A    
O16   V4    S    
C13   H5    S    
C3    O13   A    
C37   C57   S    
O6    C2    A    
C15   C19   A    
C2    C47   S    
C41   C53   S    
C30   C42   A    
O12   V4    S    
C6    C12   S    
C22   C26   A    
C9    C17   A    
O10   C6    A    
O20   V2    S    
C5    C11   S    
C47   C51   T    
C33   C34   A    
C22   F1    S    
C25   C29   A    
C12   C24   A    
C27   C31   A    
C13   C17   A    
C38   C58   S    
C37   C41   A    
C24   C28   A    
C45   C49   T    
C4    O14   A    
C60   N8    T    
C55   N3    T    
O4    V2    S    
C28   C32   A    
C17   H2    S    
