data_mof_unit_61193.cif
_audit_creation_date              2012-12-11T16:41:42-0500
_audit_creation_method            fapswitch 2.2
_symmetry_space_group_name_H-M    P1
_symmetry_Int_Tables_number       1
_space_group_crystal_system       triclinic
_cell_length_a                    8.203172
_cell_length_b                    17.374344
_cell_length_c                    18.909908
_cell_angle_alpha                 99.308586
_cell_angle_beta                  91.063238
_cell_angle_gamma                 96.239307
_cell_volume                      2642.0904138

loop_
_atom_site_label
_atom_site_type_symbol
_atom_type_description
_atom_site_fract_x
_atom_site_fract_y
_atom_site_fract_z
_atom_type_partial_charge
Ba1   Ba    Ba6+2 0.849550 0.533890 0.465080 1.666771
Ba2   Ba    Ba6+2 0.340280 0.466170 0.534930 1.663360
Br1   Br    Br    0.525074 0.887019 0.291598 -0.638243
Br2   Br    Br    0.409344 0.336945 0.168166 -0.592076
Br3   Br    Br    0.336295 0.676669 0.806727 -0.622299
Br4   Br    Br    0.584463 0.393060 0.006181 -0.599071
C1    C     C_3   0.683287 0.811658 0.275032 0.065728
C2    C     C_R   0.920094 0.408440 0.094774 -0.053418
C3    C     C_R   0.765449 0.427781 0.951297 0.223985
C4    C     C_3   0.132676 0.695569 0.272324 0.407874
C5    C     C_R   0.927719 0.459686 0.977458 -0.010174
C6    C     C_R   0.716260 0.427602 0.880275 -0.078735
C7    C     C_R   0.818192 0.460680 0.832110 -0.068194
C8    C     C_R   0.973330 0.500122 0.857194 -0.035215
C9    C     C_R   0.026855 0.499918 0.930131 0.002293
C10   C     C_R   0.766636 0.456803 0.759789 0.000154
C11   C     C_R   0.874484 0.486310 0.711999 -0.304584
C12   C     C_3   0.601752 0.728848 0.275999 0.271522
C13   C     C_R   0.023401 0.531009 0.735146 0.056933
C14   C     C_R   0.072314 0.541750 0.810243 -0.050098
C15   C     C_R   0.147722 0.500055 0.073000 0.043822
C16   C     C_3   0.153581 0.725687 0.201510 -0.351294
C17   C     C_R   0.211291 0.501998 0.144704 0.009882
C18   C     C_R   0.115265 0.463750 0.193536 0.002424
C19   C     C_R   0.974395 0.414174 0.166032 0.007466
C20   C     C_R   0.211192 0.592398 0.842705 0.286862
C21   C     C_R   0.260966 0.590788 0.912816 -0.085468
C22   C     C_R   0.179302 0.541283 0.955517 -0.002277
C23   C     C_3   0.487424 0.319109 0.312748 0.254000
C24   C     C_R   0.243230 0.537528 0.024836 0.013445
C25   C     C_R   0.407747 0.564424 0.044359 -0.056491
C26   C     C_R   0.373924 0.538042 0.166036 -0.011198
C27   C     C_R   0.474886 0.564992 0.112707 0.200594
C28   C     C_3   0.229113 0.706171 0.620328 0.353405
C29   C     C_R   0.428965 0.542404 0.238911 0.013744
C30   C     C_R   0.322987 0.512229 0.287808 -0.267323
C31   C     C_R   0.169252 0.471447 0.266693 0.055270
C32   C     C_R   0.407149 0.718487 0.470982 -0.297644
C33   C     C_R   0.554720 0.745683 0.509107 0.073001
C34   C     C_3   0.515390 0.284373 0.235185 0.045040
C35   C     C_R   0.612599 0.825873 0.518870 -0.117458
C36   C     C_R   0.519771 0.879069 0.492324 0.008084
C37   C     C_R   0.366512 0.851502 0.457337 -0.072189
C38   C     C_R   0.309816 0.771128 0.447563 0.007123
C39   C     C_R   0.585066 0.165179 0.494654 -0.101906
C40   C     C_3   0.242181 0.795745 0.636867 -0.055475
C41   C     C_R   0.639362 0.245399 0.500899 0.040507
C42   C     C_R   0.887143 0.226157 0.563994 0.017375
C43   C     C_R   0.833726 0.145609 0.558182 -0.132826
C44   C     C_R   0.680964 0.114965 0.523890 -0.005288
C45   C     C_3   0.081903 0.312890 0.734277 0.342786
C46   C     C_1   0.626391 0.031583 0.513897 0.018091
C47   C     C_1   0.578172 0.962098 0.504240 0.032723
C48   C     C_R   0.786756 0.275764 0.537649 -0.288392
C49   C     C_3   0.972787 0.294520 0.381214 0.288122
C50   C     C_3   0.936706 0.205663 0.363210 -0.356946
C51   C     C_3   0.719746 0.644683 0.681554 0.312113
C52   C     C_3   0.774615 0.677005 0.759110 -0.370226
C53   C     C_3   0.085443 0.906031 0.630251 -0.212422
C54   C     C_3   0.732802 0.644951 0.092920 -0.213574
C55   C     C_3   0.097510 0.293225 0.809443 -0.324988
C56   C     C_3   0.552869 0.266562 0.693516 0.362569
C57   C     C_3   0.524320 0.187159 0.717898 -0.350485
C58   C     C_R   0.993468 0.457299 0.048672 0.018856
H1    H     H_    0.552775 0.726526 0.330214 0.014483
H2    H     H_    0.614419 0.598797 0.680748 0.086287
H3    H     H_    0.781858 0.827197 0.317629 0.132522
H4    H     H_    0.896997 0.711676 0.761079 0.133275
H5    H     H_    0.781569 0.628505 0.790171 0.071240
H6    H     H_    0.686335 0.715816 0.784866 0.183530
H7    H     H_    0.500775 0.715214 0.234512 0.004921
H8    H     H_    0.354222 0.322517 0.320181 0.044466
H9    H     H_    0.556337 0.378731 0.325301 0.051138
H10   H     H_    0.464587 0.221496 0.224398 0.126087
H11   H     H_    0.649035 0.288624 0.225647 0.091477
H12   H     H_    0.295413 0.816673 0.692064 0.131234
H13   H     H_    0.737916 0.815110 0.222168 0.096714
H14   H     H_    0.256292 0.773526 0.206622 0.164760
H15   H     H_    0.154842 0.370325 0.732982 0.087089
H16   H     H_    0.950710 0.317572 0.722614 -0.065860
H17   H     H_    0.227994 0.289539 0.823712 0.168586
H18   H     H_    0.050868 0.339387 0.848871 0.080200
H19   H     H_    0.024672 0.236120 0.812218 0.116074
H20   H     H_    0.686594 0.280285 0.687530 -0.070584
H21   H     H_    0.487833 0.262432 0.640817 0.086223
H22   H     H_    0.571222 0.141648 0.677746 0.063301
H23   H     H_    0.326451 0.820398 0.599208 0.016095
H24   H     H_    0.391154 0.170867 0.723712 0.151282
H25   H     H_    0.042355 0.642134 0.263876 0.074859
H26   H     H_    0.589892 0.189460 0.770247 0.125425
H27   H     H_    0.836419 0.478777 0.655991 0.063090
H28   H     H_    0.592967 0.402098 0.863629 0.150595
H29   H     H_    0.908129 0.376241 0.198290 0.102399
H30   H     H_    0.364536 0.516823 0.343109 0.065182
H31   H     H_    0.826598 0.361176 0.076142 0.160915
H32   H     H_    0.361764 0.633519 0.935259 0.104554
H33   H     H_    0.253211 0.679913 0.289749 -0.126220
H34   H     H_    0.862365 0.319659 0.402601 0.011168
H35   H     H_    0.491542 0.578201 0.003917 0.088279
H36   H     H_    0.472293 0.141458 0.464391 0.096899
H37   H     H_    0.290807 0.892217 0.438984 0.103280
H38   H     H_    0.912152 0.107040 0.578224 0.073239
H39   H     H_    0.726556 0.846954 0.549028 0.085128
H40   H     H_    0.362144 0.656746 0.464165 0.063986
H41   H     H_    0.829565 0.337374 0.540435 0.062685
H42   H     H_    0.180113 0.677423 0.158715 0.038439
H43   H     H_    0.040403 0.749684 0.186438 0.130404
H44   H     H_    0.353512 0.688123 0.614793 -0.015511
H45   H     H_    0.073489 0.308967 0.422599 0.074198
H46   H     H_    0.155227 0.685090 0.569695 0.037584
H47   H     H_    0.997792 0.801928 0.664353 0.231948
H48   H     H_    0.958505 0.920895 0.623468 0.101775
H49   H     H_    0.157729 0.923336 0.585081 0.113533
H50   H     H_    0.139990 0.939588 0.681842 0.106913
H51   H     H_    0.707167 0.531096 0.115427 0.245854
H52   H     H_    0.857327 0.659428 0.118089 0.121206
H53   H     H_    0.666294 0.697816 0.103379 0.118457
H54   H     H_    0.747816 0.627344 0.034514 0.096662
H55   H     H_    0.831147 0.189489 0.324044 0.149264
H56   H     H_    0.906832 0.180588 0.412251 0.064474
H57   H     H_    0.045932 0.180140 0.339745 0.134758
H58   H     H_    0.822710 0.618617 0.653527 0.005307
N1    N     N_2   0.082242 0.822648 0.630200 -0.404023
N2    N     N_2   0.648378 0.581037 0.123316 -0.399185
O1    O     O_2   0.878040 0.448040 0.325130 -0.461763
O2    O     O_2   0.225295 0.230235 0.551513 -0.492694
O3    O     O_3   0.141301 0.253712 0.685148 -0.595647
O4    O     O_3   0.126800 0.453980 0.414370 -0.497223
O5    O     O_3   0.569440 0.593820 0.536390 -0.493774
O6    O     O_2   0.359400 0.311980 0.465480 -0.462276
O7    O     O_3   0.544342 0.268064 0.355262 -0.662294
O8    O     O_2   0.429131 0.468892 0.757676 -0.475803
O9    O     O_3   0.491388 0.323440 0.744284 -0.599657
O10   O     O_3   0.651020 0.589120 0.368830 -0.468763
O11   O     O_2   0.765951 0.529828 0.246241 -0.467469
O12   O     O_3   0.672730 0.706260 0.649407 -0.634610
O13   O     O_3   0.017612 0.323490 0.318654 -0.628478
O14   O     O_3   0.718670 0.676168 0.259558 -0.589080
O15   O     O_2   0.830300 0.688050 0.534560 -0.447690
O16   O     O_3   0.068750 0.630380 0.404830 -0.492399
O17   O     O_2   0.969351 0.770879 0.452282 -0.465120
O18   O     O_3   0.074365 0.754098 0.322490 -0.575286
O19   O     O_2   0.311660 0.551990 0.674910 -0.435411
O20   O     O_3   0.062910 0.546080 0.585630 -0.502037
O21   O     O_3   0.538690 0.410940 0.631180 -0.486999
O22   O     O_3   0.156480 0.676501 0.677831 -0.605902
O23   O     O_3   0.620260 0.406250 0.463620 -0.474098
O24   O     O_3   0.120960 0.369680 0.595180 -0.490059
P1    P     P_3+3 0.048060 0.426210 0.336320 0.986945
P2    P     P_3+3 0.655920 0.678120 0.556130 0.992880
P3    P     P_3+3 0.104967 0.732294 0.408451 0.993892
P4    P     P_3+3 0.141640 0.573850 0.663690 1.030083
P5    P     P_3+3 0.093988 0.268851 0.598218 0.948183
P6    P     P_3+3 0.637844 0.583910 0.276508 0.991355
P7    P     P_3+3 0.542720 0.307123 0.446310 0.953917
P8    P     P_3+3 0.557181 0.416291 0.723886 0.945259

loop_
_geom_bond_atom_site_label_1
_geom_bond_atom_site_label_2
_ccdc_geom_bond_type
C42   P5    S    
C19   H29   S    
C2    C19   A    
C57   H24   S    
O9    P8    S    
Ba2   O20   S    
C35   C36   A    
C29   C30   A    
C45   C55   S    
Ba1   O4    S    
C51   H2    S    
C49   C50   S    
O3    P5    S    
Br4   C3    S    
C40   H12   S    
C9    C22   A    
C33   C35   A    
O10   P6    S    
C4    C16   S    
C12   H1    S    
C42   C48   A    
C33   P2    S    
C20   C21   A    
O11   P6    D    
C41   P7    S    
C56   O9    S    
C30   C31   A    
Ba1   O1    S    
Br1   C1    S    
C55   H18   S    
C36   C47   S    
C32   C33   A    
C23   H9    S    
Ba2   O24   S    
C16   H43   S    
Ba2   O5    S    
C23   C34   S    
C54   N2    S    
Ba1   Ba2   S    
C4    O18   S    
C12   O14   S    
C45   H16   S    
C15   C58   A    
C32   H40   S    
Ba2   O6    S    
C51   H58   S    
O21   P8    S    
C5    C9    A    
C13   C14   A    
C4    H25   S    
C10   C11   A    
C11   H27   S    
C10   P8    S    
C27   N2    S    
C44   C46   S    
C17   C18   A    
C25   C27   A    
C51   O12   S    
C54   H54   S    
O6    P7    D    
C28   C40   S    
C25   H35   S    
O23   P7    S    
Ba1   O15   S    
Br2   C34   S    
C1    H13   S    
C23   H8    S    
O14   P6    S    
C7    C8    A    
C49   H45   S    
Ba2   P4    S    
Ba2   O19   S    
C50   H56   S    
O13   P1    S    
C21   H32   S    
C2    H31   S    
C13   P4    S    
C39   C41   A    
C53   N1    S    
C56   H21   S    
C38   P3    S    
H47   N1    S    
C26   C29   A    
C8    C14   A    
C54   H53   S    
C18   C19   A    
C16   H14   S    
C18   C31   A    
C5    C58   A    
C55   H19   S    
C43   H38   S    
C52   H6    S    
Ba2   O23   S    
C16   H42   S    
C35   H39   S    
C26   C27   A    
Ba2   O21   S    
O18   P3    S    
C4    H33   S    
C37   C38   A    
C37   H37   S    
C32   C38   A    
C56   C57   S    
C24   C25   A    
C53   H49   S    
C1    C12   S    
C53   H48   S    
Ba1   P2    S    
Ba1   P1    S    
C3    C5    A    
O16   P3    S    
Ba1   O16   S    
O1    P1    D    
C2    C58   A    
C41   C48   A    
O22   P4    S    
C52   H4    S    
C42   C43   A    
C15   C17   A    
C57   H22   S    
C28   H46   S    
C50   H55   S    
C40   N1    S    
C54   H52   S    
O24   P5    S    
C57   H26   S    
Ba1   O10   S    
C46   C47   T    
O17   P3    D    
C40   H23   S    
C12   H7    S    
C56   H20   S    
O19   P4    D    
H51   N2    S    
C48   H41   S    
C6    H28   S    
C31   P1    S    
C39   H36   S    
O12   P2    S    
C52   H5    S    
C15   C24   A    
O15   P2    D    
Ba1   O5    S    
C49   O13   S    
C34   H11   S    
C29   P6    S    
C45   O3    S    
C17   C26   A    
O7    P7    S    
C28   H44   S    
O5    P2    S    
O20   P4    S    
Ba1   O20   S    
C55   H17   S    
C50   H57   S    
C28   O22   S    
C51   C52   S    
C23   O7    S    
C14   C20   A    
C39   C44   A    
C53   H50   S    
C49   H34   S    
C22   C24   A    
C11   C13   A    
C34   H10   S    
O8    P8    D    
C3    C6    A    
C45   H15   S    
Ba1   O23   S    
C1    H3    S    
Br3   C20   S    
O2    P5    D    
C30   H30   S    
O4    P1    S    
C6    C7    A    
C43   C44   A    
C36   C37   A    
C7    C10   A    
C21   C22   A    
C8    C9    A    
Ba2   O4    S    
