data_mof_unit_41996.cif
_audit_creation_date              2012-10-26T21:13:40-0400
_audit_creation_method            fapswitch 2.2
_symmetry_space_group_name_H-M    P1
_symmetry_Int_Tables_number       1
_space_group_crystal_system       triclinic
_cell_length_a                    9.075833
_cell_length_b                    10.817974
_cell_length_c                    9.548856
_cell_angle_alpha                 89.945374
_cell_angle_beta                  90.012841
_cell_angle_gamma                 90.152281
_cell_volume                      937.523217013

loop_
_atom_site_label
_atom_site_type_symbol
_atom_type_description
_atom_site_fract_x
_atom_site_fract_y
_atom_site_fract_z
_atom_type_partial_charge
C1    C     C_R   0.497274 0.262314 0.500030 0.545001
C2    C     C_R   0.576013 0.588474 0.926119 0.139185
C3    C     C_3   0.737752 0.611991 0.919756 -0.252841
C4    C     C_R   0.220674 0.500045 0.499965 0.555025
C5    C     C_3   0.737933 0.612494 0.078742 -0.055742
C6    C     C_R   0.497411 0.737674 0.499925 0.563235
C7    C     C_R   0.779304 0.500212 0.500029 0.565835
C8    C     C_1   0.065528 0.500219 0.499958 -0.047381
C9    C     C_1   0.934421 0.500287 0.500012 -0.048431
C10   C     C_R   0.486282 0.063425 0.625850 0.014502
C11   C     C_R   0.482625 0.129174 0.500105 0.009528
C12   C     C_R   0.457784 0.935571 0.374550 -0.129793
C13   C     C_R   0.457923 0.064468 0.374560 -0.145290
C14   C     C_R   0.482814 0.870740 0.499985 0.018324
C15   C     C_R   0.486564 0.936241 0.625761 0.018781
C16   C     C_3   0.594075 0.929878 0.744034 -0.256590
C17   C     C_3   0.593537 0.070252 0.744319 -0.256302
C18   C     C_R   0.575844 0.588772 0.073534 0.187241
C19   C     C_R   0.414756 0.419599 0.074482 -0.011774
C20   C     C_R   0.414744 0.419594 0.925631 -0.009054
Cu1   Cu    Cu3+1 0.499990 0.499980 0.640670 0.945906
Cu2   Cu    Cu3+1 0.500010 0.500020 0.359330 0.970893
H1    H     H_    0.445563 0.112746 0.275840 0.135631
H2    H     H_    0.348004 0.352835 0.869891 0.119926
H3    H     H_    0.800110 0.532917 0.875349 0.143742
H4    H     H_    0.763668 0.702965 0.871602 0.149515
H5    H     H_    0.800882 0.534117 0.124198 0.154270
H6    H     H_    0.445151 0.887419 0.275861 0.160832
H7    H     H_    0.544538 0.888887 0.839962 0.156317
H8    H     H_    0.701670 0.889753 0.712224 0.145404
H9    H     H_    0.543340 0.110243 0.840269 0.141836
H10   H     H_    0.700882 0.111709 0.713026 0.147003
H11   H     H_    0.348000 0.352860 0.130349 0.117456
I1    I     I_    0.788470 0.789913 0.165999 -0.428365
N1    N     N_R   0.500920 0.500930 0.147930 -0.241096
N2    N     N_R   0.500930 0.500890 0.852020 -0.235748
O1    O     O_R   0.500000 0.319640 0.618810 -0.507184
O2    O     O_R   0.500020 0.319680 0.381230 -0.514474
O3    O     O_R   0.288380 0.499980 0.618770 -0.498059
O4    O     O_R   0.288400 0.500020 0.381190 -0.494791
O5    O     O_R   0.499980 0.680320 0.618770 -0.499366
O6    O     O_R   0.500000 0.680360 0.381190 -0.480755
O7    O     O_R   0.711600 0.499980 0.618810 -0.506824
O8    O     O_R   0.711620 0.500020 0.381230 -0.485528

loop_
_geom_bond_atom_site_label_1
_geom_bond_atom_site_label_2
_ccdc_geom_bond_type
Cu2   O2    S    
C7    O7    A    
C6    C14   S    
C18   N1    A    
C19   C20   A    
Cu1   O3    S    
C4    O3    A    
C1    O1    A    
C4    C8    S    
Cu2   O4    S    
C5    I1    S    
C2    C3    S    
Cu1   N2    S    
C19   N1    A    
Cu1   Cu2   S    
Cu2   N1    S    
C11   C13   A    
C5    H5    S    
Cu2   O6    S    
C1    O2    A    
C12   H6    S    
Cu1   O5    S    
C12   C14   A    
C10   C15   A    
C6    O6    A    
C17   H9    S    
Cu2   O8    S    
C2    C18   A    
C10   C11   A    
C10   C17   S    
C16   H8    S    
C15   C16   S    
C20   N2    A    
C4    O4    A    
C3    H3    S    
Cu1   O1    S    
C12   C13   A    
C13   H1    S    
C19   H11   S    
C2    N2    A    
C7    C9    S    
C17   H10   S    
C14   C15   A    
C8    C9    T    
C5    C18   S    
C16   H7    S    
C7    O8    A    
C3    H4    S    
Cu1   O7    S    
C20   H2    S    
C16   C17   S    
C3    C5    S    
C6    O5    A    
C1    C11   S    
