data_mof_unit_12900.cif
_audit_creation_date              2012-12-10T19:09:02-0500
_audit_creation_method            fapswitch 2.2
_symmetry_space_group_name_H-M    P1
_symmetry_Int_Tables_number       1
_space_group_crystal_system       triclinic
_cell_length_a                    17.692607
_cell_length_b                    10.870197
_cell_length_c                    9.600355
_cell_angle_alpha                 90.779744
_cell_angle_beta                  89.142212
_cell_angle_gamma                 92.320639
_cell_volume                      1844.48343666

loop_
_atom_site_label
_atom_site_type_symbol
_atom_type_description
_atom_site_fract_x
_atom_site_fract_y
_atom_site_fract_z
_atom_type_partial_charge
C1    C     C_R   0.497987 0.262617 0.498947 0.831334
C2    C     C_R   0.885964 0.496827 0.492439 -0.001976
C3    C     C_1   0.966892 0.499400 0.494875 0.072812
C4    C     C_1   0.034679 0.501240 0.496528 0.012450
C5    C     C_R   0.155123 0.568825 0.600563 -0.153825
C6    C     C_R   0.233952 0.568852 0.601638 -0.144634
C7    C     C_R   0.273206 0.501483 0.500330 -0.023503
C8    C     C_R   0.233014 0.436831 0.395690 -0.172803
C9    C     C_R   0.154282 0.436981 0.394595 -0.099725
C10   C     C_R   0.115403 0.502444 0.497372 0.112233
C11   C     C_R   0.477283 0.065903 0.620093 0.212709
C12   C     C_R   0.355857 0.500744 0.500605 0.824809
C13   C     C_R   0.488881 0.129588 0.496496 -0.111218
C14   C     C_R   0.489187 0.062454 0.370515 -0.207551
C15   C     C_R   0.489745 0.934046 0.372350 -0.197787
C16   C     C_R   0.490444 0.871222 0.499898 -0.104542
C17   C     C_R   0.477731 0.939156 0.622417 0.128962
C18   C     C_3   0.517265 0.943315 0.758977 -0.522578
C19   C     C_3   0.516332 0.082147 0.755476 -0.428095
C20   C     C_R   0.558767 0.554808 0.072874 0.210062
C21   C     C_R   0.447130 0.434764 0.077853 -0.125497
C22   C     C_R   0.445795 0.432892 0.930273 0.465105
C23   C     C_R   0.498490 0.737875 0.500655 0.780248
C24   C     C_R   0.559610 0.552786 0.925173 0.137358
C25   C     C_3   0.584871 0.684886 0.919814 -0.090219
C26   C     C_3   0.582397 0.688211 0.078887 -0.090831
C27   C     C_R   0.644390 0.498427 0.499000 0.791811
C28   C     C_R   0.846156 0.491294 0.619185 -0.206115
C29   C     C_R   0.767474 0.490111 0.621382 -0.180447
C30   C     C_R   0.727533 0.495432 0.496598 -0.112099
C31   C     C_R   0.767652 0.497497 0.369241 -0.261586
C32   C     C_R   0.846744 0.499113 0.365937 0.473636
Cu1   Cu    Cu3+1 0.500000 0.499980 0.640670 1.007845
Cu2   Cu    Cu3+1 0.500000 0.500020 0.359330 0.954488
H1    H     H_    0.876074 0.488022 0.716654 0.161276
H2    H     H_    0.493289 0.885329 0.273981 0.162481
H3    H     H_    0.480330 0.905892 0.844279 0.206284
H4    H     H_    0.575494 0.909094 0.750785 0.209613
H5    H     H_    0.479368 0.122058 0.837585 0.241775
H6    H     H_    0.573673 0.127182 0.744861 0.192337
H7    H     H_    0.403511 0.386671 0.138341 0.199658
H8    H     H_    0.539988 0.737715 0.874863 0.167269
H9    H     H_    0.738030 0.484463 0.720742 0.172274
H10   H     H_    0.536351 0.745508 0.119454 0.154531
H11   H     H_    0.737333 0.497521 0.272447 0.201167
H12   H     H_    0.125232 0.620626 0.679675 0.154971
H13   H     H_    0.264279 0.622484 0.680287 0.181271
H14   H     H_    0.262488 0.385138 0.315928 0.166323
H15   H     H_    0.123752 0.385909 0.314045 0.174338
H16   H     H_    0.493227 0.108578 0.271220 0.177629
N1    N     N_R   0.500470 0.500930 0.147930 -0.235951
N2    N     N_R   0.500480 0.500890 0.852020 -0.264105
O1    O     O_R   0.500000 0.319640 0.618810 -0.541042
O2    O     O_R   0.500010 0.319680 0.381230 -0.589826
O3    O     O_R   0.391250 0.499990 0.618840 -0.497244
O4    O     O_R   0.391260 0.500020 0.381250 -0.594840
O5    O     O_R   0.499990 0.680320 0.618770 -0.587125
O6    O     O_R   0.500000 0.680360 0.381190 -0.586265
O7    O     O_R   0.608740 0.499980 0.618750 -0.584686
O8    O     O_R   0.608750 0.500010 0.381160 -0.577863
S1    S     S_3+6 0.363724 0.350206 0.865865 -0.001458
O9    O     O_2   0.373186 0.286605 0.727912 -0.282996
O10   O     O_2   0.339054 0.253168 0.969123 -0.340034
O11   O     O_3   0.294123 0.450107 0.856223 -0.549052
H17   H     H_    0.247308 0.398313 0.843440 0.380067
C33   C     C_3   0.662157 0.707217 0.848058 -0.771831
H18   H     H_    0.655826 0.701032 0.733475 0.237417
H19   H     H_    0.684736 0.801414 0.873669 0.232848
H20   H     H_    0.703369 0.639297 0.880519 0.245051
C34   C     C_3   0.657245 0.714780 0.154021 -0.744899
H21   H     H_    0.678483 0.810006 0.131486 0.233617
H22   H     H_    0.647923 0.708300 0.268166 0.236960
H23   H     H_    0.700757 0.649246 0.121557 0.258824
S2    S     S_3+6 0.895084 0.504592 0.203309 -0.008992
O12   O     O_2   0.945329 0.619359 0.198440 -0.283952
O13   O     O_2   0.942960 0.393966 0.188052 -0.284573
O14   O     O_3   0.833413 0.505458 0.071645 -0.572918
H24   H     H_    0.865160 0.515992 0.986471 0.370843

loop_
_geom_bond_atom_site_label_1
_geom_bond_atom_site_label_2
_ccdc_geom_bond_type
C24   N2    A    
C23   O6    A    
C33   H19   S    
Cu1   O3    S    
C26   H10   S    
C7    C8    A    
O14   H24   S    
Cu1   N2    S    
Cu2   O4    S    
C11   C19   S    
Cu2   N1    S    
S2    O13   D    
C28   C29   A    
C18   H3    S    
C20   N1    A    
C27   O8    A    
C32   S2    S    
C5    C6    A    
C33   H20   S    
C15   C16   A    
C2    C32   A    
C18   C19   S    
S1    O10   D    
C1    O1    A    
C20   C24   A    
C28   H1    S    
C8    C9    A    
S2    O14   S    
C34   H21   S    
C9    C10   A    
C33   H18   S    
Cu1   O7    S    
C21   C22   A    
C29   H9    S    
C27   C30   S    
Cu2   O8    S    
Cu1   Cu2   S    
Cu1   O1    S    
C7    C12   S    
C6    H13   S    
C9    H15   S    
C24   C25   S    
S2    O12   D    
C16   C17   A    
C25   C26   S    
S1    O11   S    
C1    O2    A    
C8    H14   S    
C29   C30   A    
C31   C32   A    
C30   C31   A    
C34   H23   S    
C17   C18   S    
C12   O4    A    
C19   H5    S    
C21   H7    S    
Cu2   O2    S    
C16   C23   S    
C26   C34   S    
C1    C13   S    
C4    C10   S    
C3    C4    T    
C15   H2    S    
C21   N1    A    
C22   N2    A    
C23   O5    A    
C11   C17   A    
Cu1   O5    S    
C25   C33   S    
C25   H8    S    
C2    C28   A    
C6    C7    A    
C5    H12   S    
O11   H17   S    
C2    C3    S    
C18   H4    S    
C5    C10   A    
C27   O7    A    
C22   S1    S    
C11   C13   A    
C14   H16   S    
C20   C26   S    
S1    O9    D    
C12   O3    A    
C19   H6    S    
C31   H11   S    
Cu2   O6    S    
C14   C15   A    
C34   H22   S    
C13   C14   A    
