data_mof_unit_34409.cif
_audit_creation_date              2012-12-11T17:07:24-0500
_audit_creation_method            fapswitch 2.2
_symmetry_space_group_name_H-M    P1
_symmetry_Int_Tables_number       1
_space_group_crystal_system       triclinic
_cell_length_a                    6.977933
_cell_length_b                    14.725012
_cell_length_c                    15.919239
_cell_angle_alpha                 90.096285
_cell_angle_beta                  89.608464
_cell_angle_gamma                 90.401303
_cell_volume                      1635.62365783

loop_
_atom_site_label
_atom_site_type_symbol
_atom_type_description
_atom_site_fract_x
_atom_site_fract_y
_atom_site_fract_z
_atom_type_partial_charge
O1    O     O_R   0.505720 0.583900 0.413310 -0.540025
O2    O     O_R   0.175940 0.594920 0.586080 -0.549804
O3    O     O_R   0.005640 0.416100 0.586690 -0.528161
C1    C     C_R   0.344315 0.614400 0.616794 0.694687
O4    O     O_R   0.176000 0.594930 0.413930 -0.546704
O5    O     O_R   0.005700 0.416110 0.413310 -0.527253
C2    C     C_R   0.345473 0.616985 0.385303 0.687193
O6    O     O_R   0.505660 0.583890 0.586690 -0.539539
O7    O     O_3   0.339200 0.441330 0.500000 -0.347154
V1    V     V_3+5 0.064350 0.510880 0.500000 1.423697
O8    O     O_R   0.675980 0.405080 0.413920 -0.538023
C3    C     C_R   0.844936 0.383445 0.384891 0.707301
O9    O     O_R   0.675920 0.405070 0.586070 -0.539502
C4    C     C_R   0.843447 0.385236 0.616020 0.700035
V2    V     V_3+5 0.564340 0.489120 0.500000 1.443139
O10   O     O_3   0.839360 0.558670 0.500000 -0.382213
H1    H     H_    0.632558 0.088977 0.511855 0.161354
C5    C     C_R   0.968431 0.434375 0.783607 -0.144276
C6    C     C_R   0.025149 0.460638 0.863830 -0.122526
C7    C     C_R   0.031635 0.397104 0.928196 -0.118739
C8    C     C_R   0.983874 0.306605 0.912568 -0.140180
C9    C     C_R   0.928568 0.277528 0.831385 0.061542
C10   C     C_R   0.917439 0.343218 0.765879 0.075550
C11   C     C_R   0.886094 0.184806 0.814710 -0.169500
C12   C     C_R   0.833678 0.158732 0.731412 0.039236
C13   C     C_R   0.798756 0.226246 0.669520 0.034444
C14   C     C_R   0.850614 0.317652 0.685183 -0.163638
C15   C     C_R   0.825941 0.066852 0.705126 0.229537
C16   C     C_R   0.744261 0.042332 0.628618 -0.107739
C17   C     C_R   0.688762 0.108546 0.572456 -0.124976
C18   C     C_R   0.723280 0.199431 0.590750 -0.109635
H2    H     H_    0.963906 0.486416 0.735918 0.094671
H3    H     H_    0.062943 0.530825 0.876194 0.112611
H4    H     H_    0.074379 0.417965 0.990606 0.106659
H5    H     H_    0.991411 0.259986 0.964853 0.089604
H6    H     H_    0.738181 0.971717 0.609575 0.143569
H7    H     H_    0.692756 0.247604 0.541687 0.148308
C19   C     C_R   0.728441 0.183139 0.242408 0.076854
C20   C     C_R   0.881177 0.183354 0.184744 -0.098446
C21   C     C_R   0.030760 0.246291 0.198378 -0.168315
H8    H     H_    0.152583 0.248639 0.156085 0.122976
C22   C     C_R   0.018815 0.310889 0.263576 -0.133136
H9    H     H_    0.132294 0.360869 0.269621 0.125010
C23   C     C_R   0.857898 0.313947 0.317615 -0.121618
C24   C     C_R   0.717081 0.246567 0.307336 0.103265
C25   C     C_3   0.505637 0.255871 0.297379 0.000199
C26   C     C_3   0.518351 0.186470 0.226695 -0.424334
H10   H     H_    0.465228 0.324738 0.275567 0.106218
H11   H     H_    0.485598 0.215216 0.163937 0.150797
H12   H     H_    0.446364 0.120633 0.240785 0.194578
C27   C     C_R   0.509095 0.677577 0.745400 0.121066
C28   C     C_R   0.350657 0.673991 0.692170 -0.118397
C29   C     C_R   0.190472 0.724322 0.717481 -0.176853
H13   H     H_    0.062648 0.722271 0.680327 0.153898
C30   C     C_R   0.199342 0.782989 0.787353 -0.134208
H14   H     H_    0.073700 0.818184 0.806623 0.184220
C31   C     C_R   0.372472 0.800917 0.828676 -0.117101
C32   C     C_R   0.520584 0.740175 0.811202 0.090026
C33   C     C_3   0.726911 0.756234 0.796476 -0.419518
C34   C     C_3   0.714921 0.688373 0.724622 -0.412471
H15   H     H_    0.813249 0.731977 0.850290 0.166102
H16   H     H_    0.754213 0.826679 0.775113 0.219685
H17   H     H_    0.795961 0.625163 0.736389 0.161636
H18   H     H_    0.736881 0.719476 0.661626 0.179162
C35   C     C_R   0.508168 0.684630 0.257952 0.094558
C36   C     C_R   0.354029 0.682776 0.314769 -0.111068
C37   C     C_R   0.201738 0.742878 0.299638 -0.171969
H19   H     H_    0.079173 0.743807 0.341441 0.136656
C38   C     C_R   0.211848 0.806780 0.233870 -0.170555
H20   H     H_    0.096615 0.854833 0.226998 0.131496
C39   C     C_R   0.374870 0.812802 0.181356 -0.105141
C40   C     C_R   0.518656 0.748175 0.193157 0.100334
C41   C     C_3   0.728517 0.761891 0.204859 -0.404664
C42   C     C_3   0.717125 0.692397 0.275168 -0.401203
H21   H     H_    0.763068 0.831594 0.227267 0.170509
H22   H     H_    0.813213 0.738352 0.149686 0.171099
H23   H     H_    0.745622 0.721597 0.338336 0.173835
H24   H     H_    0.794646 0.628535 0.260528 0.163577
O11   O     O_R   0.229140 0.916090 0.913340 -0.520164
O12   O     O_R   0.558860 0.905090 0.086080 -0.544137
O13   O     O_R   0.729100 0.083920 0.086690 -0.541134
C43   C     C_R   0.389165 0.883175 0.114869 0.673314
O14   O     O_R   0.558860 0.905090 0.913930 -0.535468
O15   O     O_R   0.729100 0.083920 0.913310 -0.531539
C44   C     C_R   0.388924 0.878555 0.889042 0.744182
O16   O     O_R   0.229140 0.916080 0.086720 -0.545887
O17   O     O_3   0.395570 0.058660 0.000020 -0.370436
V3    V     V_3+5 0.670450 0.989140 0.000000 1.440450
O18   O     O_R   0.058810 0.094980 0.913910 -0.519648
C45   C     C_R   0.891061 0.116820 0.884840 0.777260
O19   O     O_R   0.058810 0.094980 0.086060 -0.548088
C46   C     C_R   0.889824 0.117198 0.114561 0.674983
V4    V     V_3+5 0.170450 0.010950 0.999970 1.458295
O20   O     O_3   0.895460 0.941370 0.999990 -0.369417
I1    I     I_    0.351112 0.207165 0.405189 -0.433774
Br1   Br    Br    0.992470 0.979148 0.749963 -0.631104

loop_
_geom_bond_atom_site_label_1
_geom_bond_atom_site_label_2
_ccdc_geom_bond_type
O17   V3    S    
V4    O20   S    
C41   C42   S    
C6    C7    A    
C1    O6    A    
C26   H11   S    
C29   H13   S    
C28   C29   A    
C12   C15   A    
C16   H6    S    
C13   C14   A    
C22   C23   A    
C1    C28   S    
C34   H17   S    
C15   C16   A    
O11   V4    S    
O5    C3    A    
C17   C18   A    
V2    O10   S    
C5    C6    A    
C38   C39   A    
C19   C24   A    
O13   C46   A    
O8    V2    S    
C25   I1    S    
C42   H23   S    
O1    V2    S    
C10   C14   A    
C4    C14   S    
O7    V1    S    
C39   C43   S    
C7    H4    S    
C21   C22   A    
C36   C37   A    
C33   C34   S    
C8    C9    A    
O18   V4    S    
H1    C17   S    
C41   H21   S    
O15   C45   A    
O4    V1    S    
C26   H12   S    
C25   H10   S    
C29   C30   A    
V3    O20   S    
C33   H15   S    
C37   H19   S    
C11   C12   A    
O12   C43   A    
C6    H3    S    
O19   C46   A    
O4    C2    A    
C32   C33   S    
C24   C25   S    
C35   C42   S    
C5    C10   A    
C37   C38   A    
O2    C1    A    
C16   C17   A    
O16   V4    S    
O19   V4    S    
C30   H14   S    
C27   C32   A    
C19   C26   S    
O3    C4    A    
C21   H8    S    
O14   C44   A    
O6    V2    S    
C30   C31   A    
C41   H22   S    
C9    C11   A    
C5    H2    S    
C22   H9    S    
O2    V1    S    
C20   C46   S    
O11   C44   A    
C23   C24   A    
C25   C26   S    
C33   H16   S    
O1    C2    A    
O15   V3    S    
C40   C41   S    
C11   C45   S    
O5    V1    S    
O8    C3    A    
C8    H5    S    
C35   C40   A    
C15   Br1   S    
C34   H18   S    
O9    V2    S    
C12   C13   A    
C27   C28   A    
O12   V3    S    
O3    V1    S    
V1    O10   S    
C2    C36   S    
C43   O16   A    
C31   C32   A    
C19   C20   A    
O17   V4    S    
C31   C44   S    
O14   V3    S    
O7    V2    S    
C38   H20   S    
O13   V3    S    
C20   C21   A    
C18   H7    S    
C13   C18   A    
C39   C40   A    
C7    C8    A    
C3    C23   S    
C35   C36   A    
C42   H24   S    
C9    C10   A    
C27   C34   S    
O18   C45   A    
O9    C4    A    
