data_mof_unit_14083.cif
_audit_creation_date              2013-03-05T15:42:21-0500
_audit_creation_method            fapswitch 2.2
_symmetry_space_group_name_H-M    P1
_symmetry_Int_Tables_number       1
_space_group_crystal_system       triclinic
_cell_length_a                    8.394912
_cell_length_b                    15.210067
_cell_length_c                    17.486865
_cell_angle_alpha                 100.510117
_cell_angle_beta                  97.722429
_cell_angle_gamma                 98.950423
_cell_volume                      2137.99002021

loop_
_atom_site_label
_atom_site_type_symbol
_atom_site_description
_atom_site_fract_x
_atom_site_fract_y
_atom_site_fract_z
_atom_type_partial_charge
P1    P     P_3+3 0.993190 0.413330 0.319190 0.461016
O1    O     O_2   0.823140 0.439340 0.307240 -0.385936
O2    O     O_3   0.097070 0.445850 0.405300 -0.388219
O3    O     O_3   0.627590 0.606740 0.357340 -0.371678
O4    O     O_2   0.714769 0.540931 0.221033 -0.424415
O5    O     O_3   0.964192 0.295212 0.286322 -0.585710
O6    O     O_3   0.571640 0.681851 0.222436 -0.577245
H1    H     H_    0.826815 0.700982 0.240682 0.104236
C1    C     C_3   0.746420 0.814908 0.203867 -0.446099
H2    H     H_    0.876953 0.848776 0.215231 0.217492
H3    H     H_    0.711434 0.785621 0.139590 0.214564
P2    P     P_3+3 0.695930 0.711340 0.564320 0.431813
P3    P     P_3+3 0.115731 0.773330 0.411968 0.439757
O7    O     O_2   0.865800 0.723280 0.540790 -0.390506
O8    O     O_3   0.060870 0.655550 0.397490 -0.379546
O9    O     O_2   0.982431 0.817386 0.449211 -0.383457
O10   O     O_3   0.729871 0.741074 0.668851 -0.602972
O11   O     O_3   0.099156 0.797852 0.317574 -0.552919
C2    C     C_3   0.195238 0.746289 0.274197 0.378730
H4    H     H_    0.156886 0.672562 0.271870 0.118267
H5    H     H_    0.326930 0.768094 0.300514 0.089470
C3    C     C_3   0.172951 0.759283 0.189415 -1.020217
H6    H     H_    0.044656 0.731886 0.159952 0.250136
H7    H     H_    0.203193 0.832489 0.187760 0.259639
C4    C     C_3   0.358013 0.758425 0.701525 0.634296
H8    H     H_    0.436532 0.718108 0.669438 0.139286
C5    C     C_3   0.450239 0.811813 0.784380 0.164653
H9    H     H_    0.358152 0.834307 0.820109 0.163621
Ba1   Ba    Ba6+2 0.844730 0.540500 0.462170 1.506556
C6    C     C_3   0.866675 0.245894 0.328462 0.694976
H10   H     H_    0.789717 0.287106 0.361197 0.092001
C7    C     C_3   0.755795 0.166961 0.269063 -0.966637
H11   H     H_    0.692537 0.192806 0.220570 0.241372
H12   H     H_    0.664553 0.131637 0.298661 0.240326
H13   H     H_    0.828097 0.117555 0.242627 0.250688
C8    C     C_3   0.895731 0.755683 0.704540 0.413863
H14   H     H_    0.983351 0.769553 0.665241 0.166898
H15   H     H_    0.917238 0.695582 0.729174 0.081856
C9    C     C_3   0.937034 0.837891 0.772720 -1.064234
H16   H     H_    0.920996 0.900614 0.750928 0.260896
H17   H     H_    0.066809 0.846328 0.800533 0.240730
H18   H     H_    0.860693 0.828556 0.818525 0.281932
P4    P     P_3+3 0.196530 0.586750 0.680820 0.450876
O12   O     O_2   0.366580 0.560690 0.692810 -0.370207
O13   O     O_3   0.092650 0.554230 0.594710 -0.403013
O14   O     O_3   0.562120 0.393340 0.642670 -0.402463
O15   O     O_3   0.215211 0.704686 0.712579 -0.641037
P5    P     P_3+3 0.067789 0.226244 0.595610 0.419979
O16   O     O_3   0.597340 0.388800 0.458640 -0.430505
O17   O     O_3   0.128850 0.344520 0.602520 -0.414177
O18   O     O_2   0.181302 0.178709 0.545801 -0.382786
O19   O     O_3   0.124384 0.202485 0.688642 -0.531561
Ba2   Ba    Ba6+2 0.345110 0.459580 0.537840 1.492558
P6    P     P_3+3 0.573164 0.579567 0.255152 0.424845
C10   C     C_3   0.725645 0.738721 0.250060 0.504470
H19   H     H_    0.737728 0.768093 0.314117 0.117713
O20   O     O_3   0.592380 0.611270 0.541370 -0.415177
C11   C     C_3   0.415948 0.311973 0.290722 0.386063
H20   H     H_    0.312950 0.341318 0.312118 0.110228
H21   H     H_    0.527498 0.365590 0.304427 0.090195
C12   C     C_3   0.377168 0.276452 0.200795 -0.465040
H22   H     H_    0.406439 0.332296 0.169398 0.168605
H23   H     H_    0.454852 0.226485 0.182927 0.221077
P7    P     P_3+3 0.493257 0.274725 0.429132 0.405012
O21   O     O_2   0.323920 0.276750 0.459260 -0.352329
O22   O     O_3   0.444149 0.239254 0.326215 -0.602771
H24   H     H_    0.254739 0.722026 0.156417 0.265207
C13   C     C_3   0.109192 0.276683 0.746483 0.444389
H25   H     H_    0.203723 0.336672 0.746568 0.120901
H26   H     H_    0.985892 0.294560 0.735931 0.005672
C14   C     C_3   0.136864 0.253167 0.827959 -0.388573
H27   H     H_    0.144623 0.315531 0.873781 0.177052
H28   H     H_    0.254754 0.228801 0.837085 0.234435
P8    P     P_3+3 0.610122 0.402268 0.745462 0.428533
C15   C     C_3   0.568653 0.228181 0.707203 0.482149
H29   H     H_    0.700508 0.237831 0.702053 0.013729
O23   O     O_2   0.504508 0.466958 0.783960 -0.385304
O24   O     O_3   0.538695 0.296444 0.766668 -0.529794
H30   H     H_    0.494260 0.227899 0.649484 0.145331
H31   H     H_    0.546199 0.081575 0.681389 0.231259
C16   C     C_3   0.520014 0.135638 0.727365 -1.017505
H32   H     H_    0.387320 0.122281 0.730139 0.291518
H33   H     H_    0.590118 0.133371 0.785276 0.257318
C17   C     C_2   0.256061 0.509078 0.275938 -0.456626
C18   C     C_3   0.377361 0.497854 0.219935 0.182715
C19   C     C_2   0.304333 0.502406 0.137116 -0.204351
C20   C     C_2   0.140071 0.487740 0.114894 0.109308
C21   C     C_2   0.034733 0.467689 0.175862 -0.293956
C22   C     C_1   0.101870 0.469585 0.250222 0.350520
C23   C     C_R   0.897556 0.464748 0.861588 -0.289565
C24   C     C_R   0.833783 0.448232 0.781582 0.199471
C25   C     C_R   0.091432 0.526774 0.753411 0.313985
C26   C     C_R   0.155807 0.541343 0.835244 -0.335944
C27   C     C_R   0.062055 0.507252 0.889755 0.128698
C28   C     C_2   0.061718 0.484048 0.031156 -0.167218
C29   C     C_2   0.138019 0.517586 0.975231 -0.162269
C30   C     C_R   0.937243 0.471230 0.728026 -0.197976
H34   H     H_    0.263754 0.553248 0.991804 0.134931
H35   H     H_    0.903784 0.446006 0.157327 0.170722
H36   H     H_    0.816233 0.444144 0.900431 0.149777
H37   H     H_    0.934801 0.450987 0.016547 0.131507
H38   H     H_    0.386436 0.510413 0.095022 0.135547
H39   H     H_    0.278619 0.578307 0.856800 0.154016
H40   H     H_    0.296392 0.544477 0.336937 0.165492
C31   C     C_R   0.755858 0.229141 0.515744 -0.526296
C32   C     C_R   0.848778 0.176416 0.552680 0.257643
C33   C     C_R   0.777466 0.086428 0.553099 -0.316536
C34   C     C_R   0.617632 0.045271 0.510461 0.062526
C35   C     C_R   0.530680 0.099891 0.465394 0.070145
C36   C     C_R   0.598541 0.193876 0.474685 0.234259
C37   C     C_R   0.381314 0.910251 0.492595 -0.251423
C38   C     C_R   0.322886 0.817002 0.467202 0.232369
C39   C     C_R   0.586374 0.788926 0.517525 0.364198
C40   C     C_R   0.653043 0.882460 0.527281 -0.313171
C41   C     C_R   0.550818 0.945577 0.510490 0.073157
C42   C     C_R   0.425528 0.756151 0.480323 -0.455497
H41   H     H_    0.292643 0.953030 0.499675 0.160279
H42   H     H_    0.849737 0.049259 0.586610 0.156076
H43   H     H_    0.782303 0.904136 0.549059 0.159815
H44   H     H_    0.376846 0.683853 0.466604 0.172332
H45   H     H_    0.811575 0.297236 0.513443 0.153358
C43   C     C_3   0.537709 0.749727 0.828340 -0.886622
H46   H     H_    0.446445 0.696139 0.840855 0.233419
H47   H     H_    0.619838 0.716268 0.792965 0.271621
H48   H     H_    0.609415 0.788560 0.885889 0.235791
C44   C     C_3   0.568903 0.899019 0.782155 -0.976269
H49   H     H_    0.640675 0.886818 0.733971 0.290090
H50   H     H_    0.499167 0.953209 0.771682 0.252406
H51   H     H_    0.652876 0.925654 0.839282 0.265175
C45   C     C_3   0.977909 0.207758 0.384723 -0.843142
H52   H     H_    0.030966 0.262749 0.436657 0.266875
H53   H     H_    0.909622 0.149251 0.403644 0.209489
H54   H     H_    0.077131 0.183245 0.355573 0.253426
C46   C     C_3   0.644757 0.886671 0.227754 -0.905107
H55   H     H_    0.513543 0.855201 0.218561 0.286715
H56   H     H_    0.687154 0.920340 0.290721 0.261558
H57   H     H_    0.659600 0.939085 0.191319 0.261371
C47   C     C_3   0.199025 0.230285 0.172047 -0.794672
H58   H     H_    0.184134 0.193282 0.109862 0.234821
H59   H     H_    0.160306 0.180864 0.208611 0.276182
H60   H     H_    0.119773 0.282190 0.173846 0.262094
C48   C     C_3   0.998073 0.180565 0.837851 -0.873985
H61   H     H_    0.986168 0.117366 0.792469 0.277251
H62   H     H_    0.023865 0.164289 0.897131 0.250611
H63   H     H_    0.880998 0.206090 0.832661 0.251686
C49   C     C_3   0.867990 0.447250 0.644082 -0.353407
C50   C     C_3   0.775465 0.521893 0.626943 -0.443742
H64   H     H_    0.705774 0.546602 0.673608 0.208110
H65   H     H_    0.853705 0.583328 0.620446 0.210218
H66   H     H_    0.690792 0.492514 0.572665 0.302216
H67   H     H_    0.945294 0.432010 0.601344 0.236828
H68   H     H_    0.805056 0.376207 0.631722 0.147742
C51   C     C_3   0.373292 0.061470 0.404618 -0.271956
C52   C     C_3   0.391759 0.986847 0.336897 -0.922872
H69   H     H_    0.268805 0.954566 0.303099 0.281075
H70   H     H_    0.463074 0.016621 0.296056 0.261000
H71   H     H_    0.452558 0.933813 0.357053 0.268728
H72   H     H_    0.265623 0.043045 0.431716 0.188420
H73   H     H_    0.328924 0.112391 0.374719 0.228483
C53   C     C_3   0.302050 0.823459 0.650964 -1.082576
H74   H     H_    0.217548 0.783869 0.597305 0.272343
H75   H     H_    0.236227 0.871918 0.683690 0.255549
H76   H     H_    0.408335 0.863001 0.633709 0.244885

loop_
_geom_bond_atom_site_label_1
_geom_bond_atom_site_label_2
_geom_bond_distance
_ccdc_geom_bond_type
C31   C36   1.389831 A    
C26   C27   1.432445 A    
P2    Ba1   3.379302 S    
C30   C49   1.461215 S    
C2    H4    1.109188 S    
O6    C10   1.408821 S    
C10   H19   1.112395 S    
C26   H39   1.076576 S    
C46   H57   1.110297 S    
C40   C41   1.426802 A    
C9    H17   1.109620 S    
Ba1   O16   2.839618 S    
C18   C19   1.513025 S    
C44   H49   1.105262 S    
P3    O11   1.749894 S    
O1    Ba1   2.828564 S    
C34   C41   1.532848 S    
C8    H14   1.094665 S    
C2    H5    1.112435 S    
O11   C2    1.409012 S    
P3    C38   1.831259 S    
C6    H10   1.110179 S    
C5    C44   1.539916 S    
C12   C47   1.524699 S    
C38   C42   1.387186 A    
C32   C33   1.407747 A    
C11   H21   1.109145 S    
C34   C35   1.454999 A    
C12   H23   1.105843 S    
P1    O1    1.537468 D    
C51   H72   1.097636 S    
O2    Ba1   2.922641 S    
C50   H64   1.110976 S    
O12   Ba2   2.829036 S    
P4    Ba2   3.372395 S    
P5    O18   1.548285 D    
P5    C32   1.872501 S    
C28   C29   1.369512 D    
C13   H25   1.111843 S    
P8    O23   1.548431 D    
C29   H34   1.083812 S    
P2    O10   1.773507 S    
P1    C22   1.856965 S    
C33   C34   1.430978 A    
O8    Ba1   2.814149 S    
C1    C10   1.530437 S    
O10   C8    1.413215 S    
Ba2   O21   2.835371 S    
C1    H2    1.110923 S    
C4    O15   1.399145 S    
C33   H42   1.078484 S    
C52   H70   1.105492 S    
O3    Ba1   2.836475 S    
O19   C13   1.405689 S    
C39   C42   1.389658 A    
O3    P6    1.739297 S    
C1    C46   1.521057 S    
C11   C12   1.539001 S    
P5    O17   1.769404 S    
O13   Ba2   2.923495 S    
O16   P7    1.766554 S    
C48   H63   1.110205 S    
C15   O24   1.407212 S    
H1    C10   1.110181 S    
C23   H36   1.077683 S    
C16   H33   1.109928 S    
C5    C43   1.533239 S    
C11   O22   1.398942 S    
C25   C30   1.398125 A    
C23   C27   1.410964 A    
C9    H18   1.106158 S    
O17   Ba2   2.814845 S    
C49   C50   1.522524 S    
P1    O5    1.751264 S    
C53   H76   1.104750 S    
O4    P6    1.547430 D    
C2    C3    1.521826 S    
C17   C18   1.512039 S    
C52   H71   1.104042 S    
C9    H16   1.110085 S    
C14   H28   1.111552 S    
Ba2   O20   2.838908 S    
C19   C20   1.353130 D    
C15   C16   1.520927 S    
C46   H56   1.110676 S    
C44   H51   1.110508 S    
C11   H20   1.110380 S    
C6    C45   1.518608 S    
C16   H32   1.110055 S    
C42   H44   1.082310 S    
Ba1   O13   2.852868 S    
P1    O2    1.585472 S    
C7    H12   1.105997 S    
P8    C24   1.877466 S    
C51   H73   1.094129 S    
C45   H53   1.108911 S    
C15   H29   1.111743 S    
C7    H13   1.112379 S    
P4    O13   1.585472 S    
P7    C36   1.853176 S    
C50   H66   1.082099 S    
C4    C53   1.527387 S    
P1    Ba1   3.371832 S    
C31   H45   1.078258 S    
C24   C30   1.413282 A    
C27   C29   1.514095 S    
C1    H3    1.111744 S    
C52   H69   1.108283 S    
C47   H59   1.111166 S    
C14   C48   1.526563 S    
C49   H68   1.095417 S    
P2    O20   1.582759 S    
O5    C6    1.395925 S    
P2    O7    1.529790 D    
P4    O15   1.753977 S    
P3    O8    1.741249 S    
P4    O12   1.537834 D    
C17   H40   1.085831 S    
C3    H7    1.109443 S    
C45   H54   1.110890 S    
C17   C22   1.319720 D    
O7    Ba1   2.835065 S    
C43   H47   1.107233 S    
C19   H38   1.083804 S    
C53   H75   1.110824 S    
O14   P8    1.763838 S    
C35   C51   1.540299 S    
C39   C40   1.415747 A    
C20   C28   1.509861 S    
C44   H50   1.109967 S    
C37   C38   1.394499 A    
C50   H65   1.088712 S    
C48   H61   1.110983 S    
C8    C9    1.521609 S    
C40   H43   1.078450 S    
Ba1   O20   2.918702 S    
H31   C16   1.110595 S    
C47   H60   1.107652 S    
P6    C18   1.854425 S    
C46   H55   1.108426 S    
C4    C5    1.559396 S    
C31   C32   1.384555 A    
P4    C25   1.922227 S    
C37   H41   1.067188 S    
P7    O21   1.583773 D    
C43   H48   1.110715 S    
C8    H15   1.108113 S    
C45   H52   1.104997 S    
C4    H8    1.106803 S    
C14   H27   1.111532 S    
C35   C36   1.425298 A    
C7    H11   1.105069 S    
C6    C7    1.524543 S    
O2    Ba2   2.853482 S    
C23   C24   1.391303 A    
Ba1   Ba2   4.619207 S    
C13   C14   1.527971 S    
O16   Ba2   2.917909 S    
O14   Ba2   2.835809 S    
C25   C26   1.424135 A    
P2    C39   1.842778 S    
C48   H62   1.110281 S    
C12   H22   1.106689 S    
C53   H74   1.108311 S    
C3    H24   1.110751 S    
C21   H35   1.083845 S    
C47   H58   1.110486 S    
C49   H67   1.071152 S    
P5    O19   1.750179 S    
C21   C22   1.339269 D    
C20   C21   1.516489 S    
C13   H26   1.110824 S    
P8    O24   1.750721 S    
P3    O9    1.547713 D    
C5    H9    1.113177 S    
C43   H46   1.102291 S    
C3    H6    1.109948 S    
C37   C41   1.411587 A    
O6    P6    1.754048 S    
C51   C52   1.525921 S    
C15   H30   1.112203 S    
C28   H37   1.080097 S    
P7    O22   1.754179 S    
