data_mof_unit_32440.cif
_audit_creation_date              2012-12-10T19:52:17-0500
_audit_creation_method            fapswitch 2.2
_symmetry_space_group_name_H-M    P1
_symmetry_Int_Tables_number       1
_space_group_crystal_system       triclinic
_cell_length_a                    14.901729
_cell_length_b                    14.158495
_cell_length_c                    10.678511
_cell_angle_alpha                 88.801032
_cell_angle_beta                  89.404092
_cell_angle_gamma                 90.011483
_cell_volume                      2252.40161523

loop_
_atom_site_label
_atom_site_type_symbol
_atom_type_description
_atom_site_fract_x
_atom_site_fract_y
_atom_site_fract_z
_atom_type_partial_charge
C1    C     C_R   0.327556 0.499934 0.494434 0.831763
C2    C     C_3   0.565985 0.575844 0.924172 -0.596886
C3    C     C_R   0.093402 0.582479 0.441059 -0.177452
C4    C     C_R   0.093305 0.411939 0.474126 -0.186421
C5    C     C_R   0.185769 0.583672 0.452416 -0.208308
C6    C     C_R   0.185373 0.412966 0.485123 -0.209452
C7    C     C_R   0.231577 0.499140 0.477868 -0.052410
C8    C     C_R   0.047302 0.496873 0.455406 0.108307
C9    C     C_R   0.909754 0.454639 0.570244 -0.175815
C10   C     C_R   0.900055 0.541910 0.371653 -0.174684
C11   C     C_R   0.817476 0.456382 0.582264 -0.218303
C12   C     C_R   0.807598 0.543254 0.383665 -0.213467
C13   C     C_R   0.767141 0.500489 0.488874 0.017604
C14   C     C_R   0.950873 0.497102 0.464735 0.115006
C15   C     C_R   0.419950 0.110566 0.438250 0.440473
C16   C     C_R   0.421178 0.889376 0.569742 0.440746
C17   C     C_R   0.503709 0.500768 0.257890 0.868781
C18   C     C_R   0.429411 0.210709 0.441490 -0.202852
C19   C     C_R   0.433247 0.788650 0.568602 -0.214699
C20   C     C_R   0.563005 0.195658 0.558123 0.303883
C21   C     C_R   0.556794 0.803437 0.428139 0.313290
C22   C     C_R   0.553951 0.096564 0.559671 -0.398300
C23   C     C_R   0.547975 0.902335 0.427700 -0.396919
C24   C     C_R   0.481847 0.052677 0.502422 0.081475
C25   C     C_R   0.481006 0.946409 0.497744 0.081946
C26   C     C_R   0.671975 0.500095 0.499142 0.835683
C27   C     C_R   0.500497 0.499115 0.742700 0.887674
C28   C     C_3   0.404176 0.504606 0.074413 -0.073968
C29   C     C_3   0.548172 0.406778 0.074836 -0.113952
C30   C     C_3   0.404115 0.521040 0.930702 0.375004
C31   C     C_3   0.533630 0.399344 0.931732 0.334108
C32   C     C_3   0.558625 0.585523 0.066435 -0.438182
C33   C     C_3   0.503751 0.501108 0.121874 -0.007011
C34   C     C_3   0.500320 0.497641 0.879513 -0.032214
H1    H     H_    0.785359 0.424117 0.664052 0.124441
H2    H     H_    0.767546 0.575998 0.310612 0.122909
H3    H     H_    0.380094 0.255229 0.396022 0.153571
H4    H     H_    0.389413 0.741540 0.621241 0.136863
H5    H     H_    0.604622 0.052960 0.604563 0.170573
H6    H     H_    0.593938 0.945622 0.371857 0.170648
H7    H     H_    0.377424 0.431848 0.092051 0.162182
H8    H     H_    0.512064 0.346838 0.121484 0.182654
H9    H     H_    0.391821 0.597175 0.909386 0.070966
H10   H     H_    0.598541 0.383744 0.883135 0.057572
H11   H     H_    0.526234 0.653744 0.087833 0.211258
H12   H     H_    0.626812 0.588491 0.107545 0.167686
H13   H     H_    0.550560 0.645904 0.880281 0.220439
H14   H     H_    0.636122 0.557992 0.896815 0.186898
H15   H     H_    0.057651 0.648441 0.427229 0.135205
H16   H     H_    0.057565 0.345489 0.484118 0.136816
H17   H     H_    0.220851 0.650578 0.444224 0.157932
H18   H     H_    0.219870 0.346740 0.502710 0.163699
H19   H     H_    0.949186 0.421420 0.643603 0.131832
H20   H     H_    0.931866 0.574654 0.290023 0.129622
N1    N     N_R   0.499980 0.252470 0.500000 -0.116403
N2    N     N_R   0.499980 0.747530 0.500000 -0.115657
O1    O     O_R   0.369070 0.579480 0.500010 -0.628639
O2    O     O_R   0.369070 0.420520 0.500010 -0.616655
O3    O     O_R   0.499990 0.579480 0.314790 -0.636706
O4    O     O_R   0.499990 0.420520 0.314790 -0.636847
O5    O     O_R   0.630940 0.579480 0.499990 -0.620980
O6    O     O_R   0.630940 0.420520 0.499990 -0.625312
O7    O     O_R   0.500020 0.579480 0.685200 -0.644486
O8    O     O_R   0.500020 0.420520 0.685200 -0.581836
Zn1   Zn    Zn3+2 0.500010 0.606140 0.500000 0.914156
Zn2   Zn    Zn3+2 0.500010 0.393860 0.500000 0.941748
C35   C     C_3   0.334864 0.566869 0.145798 -0.390387
C36   C     C_3   0.348746 0.674151 0.141719 -0.880315
H21   H     H_    0.405739 0.695416 0.200368 0.281984
H22   H     H_    0.358170 0.702855 0.045333 0.232048
H23   H     H_    0.287976 0.708069 0.181643 0.243929
H24   H     H_    0.267117 0.551789 0.109478 0.205805
H25   H     H_    0.331343 0.543296 0.245115 0.210986
C37   C     C_3   0.649286 0.397508 0.110494 -0.411523
C38   C     C_3   0.682905 0.295617 0.109435 -0.918894
H26   H     H_    0.640830 0.249916 0.172211 0.259270
H27   H     H_    0.682525 0.268017 0.013062 0.242190
H28   H     H_    0.752995 0.293063 0.143662 0.260890
H29   H     H_    0.692148 0.440775 0.045816 0.207017
H30   H     H_    0.660446 0.424006 0.206225 0.220616
O9    O     O_3   0.350592 0.068584 0.374352 -0.601695
C39   C     C_3   0.354606 0.095844 0.246097 0.086400
H31   H     H_    0.320236 0.164913 0.232197 0.101718
H32   H     H_    0.424971 0.102385 0.209648 0.110199
C40   C     C_3   0.305933 0.022721 0.168332 -0.319202
H33   H     H_    0.235526 0.015016 0.202418 0.222650
H34   H     H_    0.304331 0.047911 0.069140 0.169337
C41   C     C_3   0.352435 0.926660 0.174517 -0.816267
H35   H     H_    0.423847 0.933136 0.144822 0.238781
H36   H     H_    0.318281 0.877869 0.110563 0.233246
H37   H     H_    0.348984 0.896280 0.271210 0.284235
O10   O     O_3   0.354144 0.935935 0.637384 -0.633316
C42   C     C_3   0.300299 0.875487 0.713653 0.057281
H38   H     H_    0.342559 0.836231 0.782733 0.127267
H39   H     H_    0.262294 0.825752 0.654527 0.142373
C43   C     C_3   0.232353 0.934428 0.786303 -0.301199
H40   H     H_    0.268206 0.985299 0.845750 0.217376
H41   H     H_    0.189911 0.975148 0.719361 0.232873
C44   C     C_3   0.172289 0.871789 0.869716 -0.989524
H42   H     H_    0.132574 0.823145 0.811705 0.271271
H43   H     H_    0.125277 0.916579 0.923730 0.266011
H44   H     H_    0.213357 0.829600 0.936683 0.263049
C45   C     C_3   0.645352 0.234444 0.619039 -0.372527
C46   C     C_3   0.725649 0.231641 0.528902 -0.842237
H45   H     H_    0.712233 0.272809 0.441521 0.283243
H46   H     H_    0.785769 0.260757 0.574717 0.244562
H47   H     H_    0.740568 0.157528 0.503584 0.240395
H48   H     H_    0.633519 0.305478 0.656269 0.230505
H49   H     H_    0.662572 0.189817 0.702190 0.159402
C47   C     C_3   0.629243 0.762961 0.345681 -0.392280
C48   C     C_3   0.722088 0.778980 0.400734 -0.869999
H50   H     H_    0.735284 0.855582 0.411287 0.249460
H51   H     H_    0.727397 0.742915 0.493719 0.280606
H52   H     H_    0.774203 0.750172 0.337126 0.243031
H53   H     H_    0.619770 0.687304 0.330290 0.248636
H54   H     H_    0.626276 0.797451 0.251300 0.171966
O11   O     O_3   0.337834 0.461455 0.878653 -0.615999
C49   C     C_3   0.279977 0.510951 0.795978 0.099761
H55   H     H_    0.250268 0.457707 0.734017 0.182205
H56   H     H_    0.316529 0.563144 0.735236 0.121660
C50   C     C_3   0.203431 0.559792 0.866367 -0.416719
H57   H     H_    0.171271 0.508743 0.933367 0.237242
H58   H     H_    0.230367 0.620242 0.918749 0.219122
C51   C     C_3   0.132609 0.597797 0.776396 -0.934645
H59   H     H_    0.163123 0.649848 0.709328 0.262467
H60   H     H_    0.078732 0.633561 0.830102 0.262163
H61   H     H_    0.102216 0.539085 0.724049 0.278486
O12   O     O_3   0.468224 0.328944 0.906323 -0.591852
C52   C     C_3   0.504951 0.236917 0.914774 0.083776
H62   H     H_    0.517909 0.216622 0.013893 0.130760
H63   H     H_    0.568324 0.231686 0.860260 0.113077
C53   C     C_3   0.438332 0.166085 0.863229 -0.283250
H64   H     H_    0.373404 0.171586 0.914722 0.212690
H65   H     H_    0.426351 0.182431 0.762554 0.241063
C54   C     C_3   0.474125 0.065437 0.877729 -0.991454
H66   H     H_    0.539738 0.058508 0.828635 0.265109
H67   H     H_    0.426291 0.015090 0.837000 0.298314
H68   H     H_    0.482747 0.046674 0.978343 0.254181

loop_
_geom_bond_atom_site_label_1
_geom_bond_atom_site_label_2
_ccdc_geom_bond_type
C19   N2    A    
C15   C18   A    
O7    Zn1   S    
C42   H38   S    
C29   H8    S    
C54   H68   S    
C32   H11   S    
C41   H36   S    
C48   H50   S    
C4    C8    A    
O12   C52   S    
C46   H46   S    
C21   C47   S    
C3    H15   S    
C54   H66   S    
C15   O9    S    
C20   C45   S    
C40   H33   S    
C26   O5    A    
C16   C19   A    
C13   C26   S    
N2    Zn1   S    
C43   C44   S    
C29   C33   S    
C28   H7    S    
C2    C32   S    
C35   H24   S    
C47   C48   S    
C50   C51   S    
C49   H55   S    
O2    Zn2   S    
C36   H21   S    
C43   H41   S    
C45   H48   S    
C35   H25   S    
C12   H2    S    
C52   C53   S    
C2    C34   S    
O4    Zn2   S    
C42   H39   S    
C37   H30   S    
C17   C33   S    
C31   O12   S    
C20   N1    A    
C46   H45   S    
O9    C39   S    
C40   H34   S    
C27   C34   S    
C31   H10   S    
O6    Zn2   S    
C35   C36   S    
C28   C35   S    
C24   C25   S    
C4    C6    A    
C3    C8    A    
C10   C14   A    
C5    C7    A    
C9    C14   A    
C30   C34   S    
C53   H64   S    
C29   C37   S    
C2    H14   S    
C4    H16   S    
C49   C50   S    
O8    Zn2   S    
C38   H26   S    
C19   H4    S    
C1    O1    A    
C9    C11   A    
C44   H42   S    
C41   H37   S    
C43   H40   S    
C31   C34   S    
C48   H51   S    
C41   H35   S    
C38   H27   S    
C50   H57   S    
C10   C12   A    
C18   N1    A    
C17   O3    A    
C51   H61   S    
C53   H65   S    
C15   C24   A    
C44   H43   S    
C20   C22   A    
C28   C33   S    
C16   O10   S    
C42   C43   S    
C39   H32   S    
C37   H29   S    
C21   C23   A    
C22   C24   A    
C30   H9    S    
C9    H19   S    
C47   H54   S    
C37   C38   S    
N1    Zn2   S    
C51   H60   S    
C52   H62   S    
C40   C41   S    
C16   C25   A    
C54   H67   S    
C8    C14   S    
C1    C7    S    
C32   H12   S    
C18   H3    S    
C5    H17   S    
O1    Zn1   S    
C3    C5    A    
C21   N2    A    
C36   H23   S    
C6    C7    A    
C30   O11   S    
C2    H13   S    
C39   C40   S    
C45   H49   S    
C32   C33   S    
C28   C30   S    
C26   O6    A    
C29   C31   S    
C1    O2    A    
O3    Zn1   S    
C11   C13   A    
C53   C54   S    
C22   H5    S    
C11   H1    S    
O10   C42   S    
C48   H52   S    
C23   C25   A    
C10   H20   S    
C38   H28   S    
C49   H56   S    
C50   H58   S    
C27   O8    A    
C17   O4    A    
O5    Zn1   S    
C44   H44   S    
C12   C13   A    
C36   H22   S    
C39   H31   S    
C45   C46   S    
C27   O7    A    
C6    H18   S    
O11   C49   S    
C47   H53   S    
C46   H47   S    
C23   H6    S    
C51   H59   S    
C52   H63   S    
