data_mof_unit_18408.cif
_audit_creation_date              2012-12-10T17:17:28-0500
_audit_creation_method            fapswitch 2.2
_symmetry_space_group_name_H-M    P1
_symmetry_Int_Tables_number       1
_space_group_crystal_system       triclinic
_cell_length_a                    10.216311
_cell_length_b                    10.741576
_cell_length_c                    12.298534
_cell_angle_alpha                 90.946104
_cell_angle_beta                  109.179579
_cell_angle_gamma                 96.059191
_cell_volume                      1265.71342568

loop_
_atom_site_label
_atom_site_type_symbol
_atom_type_description
_atom_site_fract_x
_atom_site_fract_y
_atom_site_fract_z
_atom_type_partial_charge
C1    C     C_R   0.054517 0.733087 0.497381 0.952165
C2    C     C_R   0.454788 0.569274 0.961463 0.085112
C3    C     C_R   0.337644 0.496924 0.883096 0.046426
C4    C     C_R   0.579231 0.512561 0.009752 -0.002313
C5    C     C_R   0.594946 0.399591 0.954834 0.114618
C6    C     C_R   0.478495 0.331864 0.873839 -0.237815
C7    C     C_R   0.349688 0.375476 0.845465 -0.209721
C8    C     C_R   0.681390 0.555050 0.116922 -0.082669
C9    C     C_R   0.822813 0.393104 0.094786 -0.301831
C10   C     C_R   0.213902 0.551588 0.833602 -0.163968
C11   C     C_2   0.093965 0.866926 0.510523 -0.388928
C12   C     C_R   0.134127 0.514095 0.713862 0.862480
C13   C     C_2   0.019510 0.937077 0.552680 -0.159849
C14   C     C_2   0.931338 0.136255 0.533263 -0.401812
C15   C     C_2   0.039470 0.070606 0.549238 -0.169209
C16   C     C_2   0.430320 0.518410 0.504525 0.232886
C17   C     C_2   0.566869 0.487531 0.492880 -0.208023
C18   C     C_R   0.950798 0.267543 0.511848 0.935860
C19   C     C_R   0.867201 0.492010 0.286088 0.893769
C20   C     C_R   0.723699 0.349919 0.989631 0.218930
C21   C     C_R   0.794792 0.485547 0.162391 -0.131520
C22   C     C_R   0.198438 0.670134 0.876327 0.218562
C23   C     C_R   0.317062 0.744175 0.947251 -0.235859
C24   C     C_R   0.445145 0.697337 0.981995 -0.233703
H1    H     H_    0.915028 0.345442 0.128947 0.158945
H2    H     H_    0.933225 0.896212 0.578968 0.191571
H3    H     H_    0.830360 0.092947 0.533605 0.144509
H4    H     H_    0.179637 0.908170 0.483811 0.145632
H5    H     H_    0.564919 0.406741 0.437997 0.150147
H6    H     H_    0.686574 0.632539 0.593203 0.183083
H7    H     H_    0.320125 0.366419 0.410542 0.121375
H8    H     H_    0.484633 0.241318 0.836902 0.178645
H9    H     H_    0.535814 0.763765 0.022470 0.168939
H10   H     H_    0.311696 0.840670 0.970712 0.146973
H11   H     H_    0.260315 0.316492 0.787904 0.147178
H12   H     H_    0.140589 0.113473 0.548604 0.189143
N1    N     N_2   0.313640 0.446500 0.454900 -0.203873
N2    N     N_2   0.686360 0.553430 0.545150 -0.181410
O1    O     O_R   0.936910 0.692950 0.509080 -0.595691
O2    O     O_R   0.138320 0.658600 0.480130 -0.594888
O3    O     O_R   0.002900 0.525670 0.675280 -0.586835
O4    O     O_R   0.204310 0.491320 0.646330 -0.584858
O5    O     O_R   0.861680 0.341400 0.519870 -0.609656
O6    O     O_R   0.063090 0.307050 0.490920 -0.614181
O7    O     O_R   0.795690 0.508680 0.353670 -0.592737
O8    O     O_R   0.997100 0.474330 0.324720 -0.615206
Zn1   Zn    Zn3+2 0.865520 0.522940 0.519330 0.945546
Zn2   Zn    Zn3+2 0.134480 0.477060 0.480670 0.940116
N3    N     N_2   0.427037 0.631273 0.565561 -0.248210
H13   H     H_    0.458963 0.711577 0.531970 0.190114
C25   C     C_3   0.484237 0.633127 0.690173 -0.707276
H14   H     H_    0.412469 0.675192 0.726983 0.251649
H15   H     H_    0.586369 0.692565 0.722266 0.182849
H16   H     H_    0.498398 0.537379 0.721451 0.251338
N4    N     N_2   0.747929 0.248022 0.925714 -0.325718
H17   H     H_    0.820233 0.192900 0.974002 0.221104
C26   C     C_3   0.772835 0.282262 0.820250 -0.787168
H18   H     H_    0.873364 0.343523 0.840467 0.238732
H19   H     H_    0.686959 0.331739 0.764772 0.249758
H20   H     H_    0.778528 0.196301 0.771405 0.235985
C27   C     C_R   0.663105 0.658143 0.191621 0.132977
C28   C     C_R   0.551466 0.646854 0.235313 -0.063066
C29   C     C_R   0.535096 0.744310 0.304663 -0.149136
C30   C     C_R   0.631341 0.852231 0.333091 -0.121710
C31   C     C_R   0.743843 0.863196 0.291654 -0.115236
C32   C     C_R   0.760439 0.766294 0.221790 -0.186806
H21   H     H_    0.476764 0.563295 0.214531 0.116373
H22   H     H_    0.447379 0.736273 0.335879 0.117832
H23   H     H_    0.618628 0.927442 0.387060 0.113068
H24   H     H_    0.818088 0.946929 0.313449 0.144658
H25   H     H_    0.848025 0.775809 0.190171 0.116802
N5    N     N_2   0.069958 0.722744 0.834043 -0.293230
H26   H     H_    0.080384 0.819407 0.835164 0.212611
C33   C     C_3   0.965464 0.672902 0.882672 -0.745578
H27   H     H_    0.866034 0.711951 0.839523 0.220720
H28   H     H_    0.000177 0.699098 0.976470 0.226409
H29   H     H_    0.945807 0.569277 0.869496 0.254100

loop_
_geom_bond_atom_site_label_1
_geom_bond_atom_site_label_2
_ccdc_geom_bond_type
C6    H8    S    
N4    H17   S    
C17   H5    S    
C14   C18   S    
C1    C11   S    
C4    C8    A    
C19   O8    A    
C9    H1    S    
C5    C20   A    
C10   C22   A    
C28   C29   A    
C33   H28   S    
C28   H21   S    
C19   C21   S    
C3    C7    A    
C5    C6    A    
C26   H19   S    
C31   H24   S    
H6    N2    S    
C12   O4    A    
C1    O2    A    
C27   C32   A    
C16   C17   S    
N3    C25   S    
C33   H29   S    
C23   C24   A    
C14   H3    S    
C8    C27   S    
C20   N4    S    
C22   N5    S    
O7    Zn1   S    
O8    Zn2   S    
C33   H27   S    
C25   H14   S    
C16   N3    S    
N5    C33   S    
N5    H26   S    
C26   H20   S    
H7    N1    S    
C25   H15   S    
C2    C4    A    
C12   O3    A    
C18   O6    A    
C9    C20   A    
C32   H25   S    
C23   H10   S    
C8    C21   A    
O3    Zn1   S    
O4    Zn2   S    
C30   H23   S    
N1    Zn2   S    
N2    Zn1   S    
C10   C12   S    
C31   C32   A    
C13   C15   S    
C2    C24   A    
C13   H2    S    
C15   H12   S    
O1    Zn1   S    
O2    Zn2   S    
C29   H22   S    
C22   C23   A    
C7    H11   S    
C4    C5    A    
C19   O7    A    
C6    C7    A    
C16   N1    D    
C24   H9    S    
C25   H16   S    
C30   C31   A    
N4    C26   S    
C2    C3    A    
C3    C10   A    
C18   O5    A    
C11   C13   D    
C9    C21   A    
C26   H18   S    
C11   H4    S    
C17   N2    D    
C27   C28   A    
C1    O1    A    
C29   C30   A    
N3    H13   S    
C14   C15   D    
O5    Zn1   S    
O6    Zn2   S    
