data_mof_unit_67476.cif
_audit_creation_date              2012-12-10T16:46:05-0500
_audit_creation_method            fapswitch 2.2
_symmetry_space_group_name_H-M    P1
_symmetry_Int_Tables_number       1
_space_group_crystal_system       triclinic
_cell_length_a                    10.869041
_cell_length_b                    8.712961
_cell_length_c                    7.654733
_cell_angle_alpha                 103.189865
_cell_angle_beta                  95.970927
_cell_angle_gamma                 92.243838
_cell_volume                      700.480162022

loop_
_atom_site_label
_atom_site_type_symbol
_atom_type_description
_atom_site_fract_x
_atom_site_fract_y
_atom_site_fract_z
_atom_type_partial_charge
C1    C     C_R   0.491460 0.200836 0.452803 0.906388
C2    C     C_3   0.877052 0.469141 0.499037 -0.050227
C3    C     C_3   0.930415 0.631360 0.474245 -0.422077
C4    C     C_3   0.909398 0.327790 0.335586 -0.202569
C5    C     C_2   0.479311 0.032275 0.421607 -0.158534
C6    C     C_2   0.496788 0.966567 0.564972 -0.275179
C7    C     C_R   0.261012 0.487402 0.497582 0.830151
C8    C     C_R   0.501586 0.799095 0.545345 0.894117
C9    C     C_R   0.738455 0.486138 0.498785 0.862951
C10   C     C_3   0.087796 0.414610 0.664240 -0.356669
C11   C     C_3   0.946158 0.448121 0.689161 -0.141613
C12   C     C_3   0.072680 0.642103 0.503608 -0.204923
C13   C     C_3   0.055548 0.344108 0.328627 -0.231058
C14   C     C_3   0.122312 0.473310 0.494127 -0.101277
Cu1   Cu    Cu3+1 0.514070 0.517380 0.684380 1.061896
Cu2   Cu    Cu3+1 0.485930 0.482620 0.315620 1.041659
H1    H     H_    0.146389 0.487127 0.783895 0.174463
H2    H     H_    0.894736 0.657448 0.345895 0.283767
H3    H     H_    0.512981 0.038958 0.702151 0.188642
H4    H     H_    0.407891 0.370594 0.948584 0.239974
H5    H     H_    0.591153 0.631065 0.051191 0.233598
H6    H     H_    0.099740 0.711147 0.644587 0.105591
H7    H     H_    0.896991 0.731481 0.572287 0.178415
H8    H     H_    0.094993 0.233264 0.345659 0.181157
N1    N     N_2   0.464720 0.456420 0.038520 -0.205083
N2    N     N_2   0.535280 0.543580 0.961480 -0.213083
O1    O     O_R   0.509140 0.286130 0.619770 -0.543537
O2    O     O_R   0.485380 0.256770 0.308360 -0.595190
O3    O     O_R   0.329570 0.514650 0.655700 -0.568733
O4    O     O_R   0.305810 0.485300 0.344290 -0.556723
O5    O     O_R   0.514620 0.743230 0.691640 -0.573630
O6    O     O_R   0.490860 0.713870 0.380230 -0.561461
O7    O     O_R   0.694190 0.514700 0.655710 -0.519571
O8    O     O_R   0.670430 0.485350 0.344300 -0.590712
C15   C     C_2   0.835443 0.332237 0.154822 0.825228
O9    O     O_2   0.777266 0.213695 0.059463 -0.547572
O10   O     O_R   0.825823 0.473473 0.101414 -0.738922
H9    H     H_    0.755262 0.466629 0.002708 0.371222
C16   C     C_2   0.129949 0.744611 0.393660 0.980836
O11   O     O_2   0.232397 0.810421 0.448477 -0.590303
O12   O     O_R   0.063835 0.776373 0.240890 -0.673694
H10   H     H_    0.111276 0.853567 0.187459 0.375967
C17   C     C_2   0.454912 0.945034 0.227786 0.464535
H11   H     H_    0.520400 0.960830 0.134491 0.088353
O13   O     O_2   0.358824 0.864033 0.169811 -0.493275
C18   C     C_2   0.133944 0.247439 0.663982 0.811619
O14   O     O_2   0.244272 0.227104 0.659151 -0.613762
O15   O     O_R   0.055662 0.117510 0.668001 -0.731454
H12   H     H_    0.101749 0.019805 0.674750 0.358056
C19   C     C_2   0.886739 0.318813 0.761279 0.510404
H13   H     H_    0.939028 0.276817 0.865599 0.142859
O16   O     O_2   0.781690 0.260817 0.710720 -0.513555
C20   C     C_2   0.948827 0.603046 0.838260 0.450506
H14   H     H_    0.035736 0.661749 0.907133 0.145387
O17   O     O_2   0.856305 0.670637 0.879478 -0.497912
C21   C     C_2   0.099049 0.347765 0.150348 0.827983
O18   O     O_2   0.093627 0.466350 0.092330 -0.608545
O19   O     O_R   0.160988 0.219443 0.064157 -0.747602
H15   H     H_    0.221749 0.250912 0.985908 0.336431
C22   C     C_2   0.869438 0.163072 0.362119 0.931016
O20   O     O_2   0.939102 0.055297 0.343511 -0.550321
O21   O     O_R   0.745160 0.127311 0.376051 -0.746650
H16   H     H_    0.728954 0.013380 0.382342 0.322243

loop_
_geom_bond_atom_site_label_1
_geom_bond_atom_site_label_2
_ccdc_geom_bond_type
C10   C18   S    
C1    O2    A    
C19   O16   D    
H5    N2    S    
Cu1   O5    S    
O10   H9    S    
C7    O3    A    
Cu2   O6    S    
O12   H10   S    
C2    C4    S    
C15   O9    D    
C11   C20   S    
C17   H11   S    
C13   C21   S    
Cu2   O8    S    
C4    C22   S    
C12   C16   S    
C2    C3    S    
C5    C17   S    
C4    C15   S    
C16   O12   S    
C7    O4    A    
C20   H14   S    
C9    O7    A    
C6    H3    S    
C17   O13   D    
C5    C6    D    
C1    C5    S    
C2    C11   S    
O15   H12   S    
C15   O10   S    
C21   O19   S    
Cu1   O3    S    
C10   C11   S    
C20   O17   D    
Cu2   O2    S    
C9    O8    A    
C18   O15   S    
O19   H15   S    
H4    N1    S    
C10   H1    S    
Cu2   O4    S    
Cu1   Cu2   S    
C8    O6    A    
C12   H6    S    
C16   O11   D    
C2    C9    S    
C21   O18   D    
C3    H2    S    
C22   O21   S    
C10   C14   S    
Cu2   N1    S    
C1    O1    A    
C11   C19   S    
C18   O14   D    
Cu1   N2    S    
C6    C8    S    
C3    C12   S    
C19   H13   S    
N1    N2    D    
C13   C14   S    
C8    O5    A    
C3    H7    S    
Cu1   O7    S    
C7    C14   S    
O21   H16   S    
C4    C13   S    
C13   H8    S    
C12   C14   S    
C22   O20   D    
Cu1   O1    S    
