data_mof_unit_12061.cif
_audit_creation_date              2012-12-10T17:33:46-0500
_audit_creation_method            fapswitch 2.2
_symmetry_space_group_name_H-M    P1
_symmetry_Int_Tables_number       1
_space_group_crystal_system       triclinic
_cell_length_a                    11.691502
_cell_length_b                    12.331283
_cell_length_c                    13.214687
_cell_angle_alpha                 116.511619
_cell_angle_beta                  77.923042
_cell_angle_gamma                 101.066651
_cell_volume                      1656.49599049

loop_
_atom_site_label
_atom_site_type_symbol
_atom_type_description
_atom_site_fract_x
_atom_site_fract_y
_atom_site_fract_z
_atom_type_partial_charge
C1    C     C_R   0.511790 0.854577 0.286628 0.784768
C2    C     C_R   0.468263 0.227012 0.834661 -0.055241
C3    C     C_R   0.608685 0.811599 0.090321 -0.287610
C4    C     C_R   0.659416 0.728577 0.986446 -0.115771
C5    C     C_R   0.632717 0.603665 0.954965 0.394797
C6    C     C_R   0.536799 0.559767 0.019239 -0.033468
C7    C     C_R   0.485665 0.645278 0.125915 0.047248
C8    C     C_R   0.490149 0.434716 0.982405 0.077461
C9    C     C_R   0.410878 0.394784 0.059376 0.179095
C10   C     C_R   0.363089 0.479988 0.163808 -0.228394
C11   C     C_R   0.393292 0.603318 0.192414 -0.158704
C12   C     C_R   0.715717 0.999529 0.499759 0.817765
C13   C     C_R   0.510777 0.350172 0.868438 -0.256434
C14   C     C_R   0.403450 0.186291 0.915444 -0.183561
C15   C     C_R   0.529356 0.770694 0.164589 -0.099946
C16   C     C_R   0.683212 0.342559 0.324790 -0.238069
C17   C     C_R   0.343653 0.760746 0.646288 -0.038208
C18   C     C_R   0.308907 0.664108 0.678723 0.361553
C19   C     C_R   0.368346 0.560369 0.622338 -0.163993
C20   C     C_R   0.462707 0.551455 0.533720 -0.098458
C21   C     C_R   0.494528 0.652510 0.504503 0.231622
C22   C     C_R   0.526732 0.446675 0.473630 -0.082847
C23   C     C_R   0.484044 0.144963 0.713186 0.801470
C24   C     C_R   0.620027 0.444526 0.384591 0.130010
C25   C     C_R   0.650186 0.543948 0.356342 0.342626
C26   C     C_R   0.588915 0.646261 0.417240 -0.256367
C27   C     C_R   0.502549 0.342893 0.497929 0.065948
C28   C     C_R   0.655053 0.244286 0.353211 0.044809
C29   C     C_R   0.284289 0.000349 0.500080 0.815572
C30   C     C_1   0.837373 0.999011 0.499741 -0.170847
C31   C     C_1   0.939996 0.999308 0.499683 0.013920
C32   C     C_1   0.060013 0.000082 0.499674 0.011391
C33   C     C_1   0.162638 0.000567 0.499781 -0.174248
C34   C     C_R   0.372682 0.270404 0.027049 -0.186596
Cu1   Cu    Cu3+1 0.526510 0.098270 0.475420 0.953165
Cu2   Cu    Cu3+1 0.473490 0.901730 0.524580 0.933265
H1    H     H_    0.369706 0.091126 0.890666 0.152142
H2    H     H_    0.754493 0.338329 0.256422 0.194059
H3    H     H_    0.433484 0.336411 0.563735 0.123102
H4    H     H_    0.298498 0.841790 0.689147 0.125648
H5    H     H_    0.338458 0.488348 0.649978 0.159556
H6    H     H_    0.618994 0.719847 0.393873 0.200124
H7    H     H_    0.296373 0.451435 0.220312 0.147683
H8    H     H_    0.314870 0.239010 0.086591 0.137987
H9    H     H_    0.553724 0.380458 0.803405 0.206985
H10   H     H_    0.640891 0.907385 0.117188 0.171954
H11   H     H_    0.729022 0.761620 0.935303 0.169668
H12   H     H_    0.342452 0.664968 0.267363 0.172844
H13   H     H_    0.703512 0.165694 0.307223 0.127921
N1    N     N_R   0.566700 0.246290 0.438210 -0.179755
N2    N     N_R   0.434010 0.754320 0.561170 -0.206744
O1    O     O_R   0.533340 0.972510 0.318140 -0.579966
O2    O     O_R   0.488570 0.806530 0.359650 -0.605687
O3    O     O_R   0.685190 0.083000 0.479260 -0.567305
O4    O     O_R   0.640410 0.917020 0.520770 -0.586525
O5    O     O_R   0.511430 0.193470 0.640350 -0.584121
O6    O     O_R   0.466660 0.027490 0.681860 -0.584554
O7    O     O_R   0.359590 0.082980 0.479230 -0.575230
O8    O     O_R   0.314810 0.917000 0.520740 -0.579840
O9    O     O_3   0.741059 0.539927 0.269084 -0.735570
H14   H     H_    0.750041 0.615737 0.258078 0.323280
O10   O     O_3   0.217464 0.668228 0.764935 -0.715032
H15   H     H_    0.184851 0.747278 0.796092 0.315648
O11   O     O_3   0.709997 0.530040 0.868896 -0.735545
H16   H     H_    0.720315 0.465009 0.889828 0.329549

loop_
_geom_bond_atom_site_label_1
_geom_bond_atom_site_label_2
_ccdc_geom_bond_type
C16   C28   A    
C13   H9    S    
C21   C26   A    
C24   C25   A    
C14   C34   A    
C8    C13   A    
C1    C15   S    
C25   O9    S    
C29   C33   S    
C28   H13   S    
C19   C20   A    
C3    H10   S    
Cu1   Cu2   S    
C27   N1    A    
C30   C31   T    
C5    O11   S    
Cu2   O8    S    
O11   H16   S    
C17   N2    A    
Cu1   N1    S    
C7    C15   A    
C17   C18   A    
C25   C26   A    
C3    C15   A    
C23   O5    A    
C16   C24   A    
Cu2   O4    S    
C12   O3    A    
C29   O7    A    
C14   H1    S    
C7    C11   A    
Cu1   O1    S    
C11   H12   S    
C6    C7    A    
Cu2   N2    S    
Cu1   O7    S    
C20   C22   A    
C9    C34   A    
Cu2   O6    S    
C22   C27   A    
C5    C6    A    
C2    C14   A    
C1    O1    A    
C22   C24   A    
Cu1   O5    S    
C12   O4    A    
C10   C11   A    
C3    C4    A    
C19   H5    S    
C21   N2    A    
C34   H8    S    
C20   C21   A    
C26   H6    S    
C8    C9    A    
C18   C19   A    
C9    C10   A    
C16   H2    S    
C2    C23   S    
C23   O6    A    
C2    C13   A    
C1    O2    A    
O9    H14   S    
C6    C8    A    
Cu2   O2    S    
C12   C30   S    
C10   H7    S    
C28   N1    A    
C4    H11   S    
C31   C32   S    
C18   O10   S    
O10   H15   S    
C29   O8    A    
C32   C33   T    
C27   H3    S    
C4    C5    A    
Cu1   O3    S    
C17   H4    S    
