data_mof_unit_52742.cif
_audit_creation_date              2012-10-26T20:42:27-0400
_audit_creation_method            fapswitch 2.2
_symmetry_space_group_name_H-M    P1
_symmetry_Int_Tables_number       1
_space_group_crystal_system       triclinic
_cell_length_a                    10.731468
_cell_length_b                    9.602263
_cell_length_c                    10.885255
_cell_angle_alpha                 90.553659
_cell_angle_beta                  91.41102
_cell_angle_gamma                 90.176838
_cell_volume                      1121.28742236

loop_
_atom_site_label
_atom_site_type_symbol
_atom_type_description
_atom_site_fract_x
_atom_site_fract_y
_atom_site_fract_z
_atom_type_partial_charge
Br1   Br    Br    0.849415 0.550849 0.766329 -0.483595
Br2   Br    Br    0.161911 0.558841 0.765385 -0.517891
C1    C     C_R   0.262539 0.500067 0.501147 0.557406
C2    C     C_R   0.932562 0.481241 0.394064 -0.186311
C3    C     C_R   0.871049 0.500907 0.504163 0.005050
C4    C     C_R   0.128570 0.501207 0.504361 -0.001254
C5    C     C_R   0.937221 0.523478 0.615519 0.172822
C6    C     C_R   0.067608 0.524302 0.615484 0.173927
C7    C     C_R   0.429943 0.073642 0.414896 0.339776
C8    C     C_R   0.574268 0.075868 0.581677 0.331601
C9    C     C_R   0.433031 0.924705 0.412106 0.333932
C10   C     C_R   0.569323 0.926002 0.585896 0.326509
C11   C     C_3   0.440115 0.159081 0.936566 -0.067464
C12   C     C_R   0.737312 0.500173 0.500879 0.563877
C13   C     C_3   0.206000 0.386138 0.065973 -0.100202
C14   C     C_3   0.240254 0.147008 0.337658 -0.042220
C15   C     C_3   0.777958 0.129728 0.626855 -0.076202
C16   C     C_3   0.262988 0.818651 0.315064 -0.062058
C17   C     C_3   0.607071 0.873783 0.788061 -0.079116
C18   C     C_R   0.499033 0.499152 0.265407 0.566552
C19   C     C_R   0.495102 0.500875 0.734722 0.627876
C20   C     C_2   0.437435 0.399055 0.932424 0.252436
C21   C     C_2   0.417873 0.420687 0.066451 0.235568
C22   C     C_2   0.479127 0.506813 0.866899 -0.055364
C23   C     C_2   0.502109 0.495286 0.132880 -0.089535
C24   C     C_R   0.061359 0.482877 0.394115 -0.209535
Cu1   Cu    Cu3+1 0.500000 0.640660 0.500000 1.062053
Cu2   Cu    Cu3+1 0.500000 0.359340 0.500000 1.091243
H1    H     H_    0.494204 0.607896 0.910438 0.036471
H2    H     H_    0.129396 0.344932 0.121740 0.109286
H3    H     H_    0.208470 0.255861 0.333735 0.168221
H4    H     H_    0.208465 0.102033 0.425787 0.064456
H5    H     H_    0.192030 0.094637 0.258985 0.111196
H6    H     H_    0.835662 0.215082 0.667848 0.164614
H7    H     H_    0.790167 0.132481 0.525466 0.108966
H8    H     H_    0.814879 0.030690 0.664405 0.157874
H9    H     H_    0.209079 0.867594 0.239158 0.107336
H10   H     H_    0.219426 0.845057 0.404317 0.097786
H11   H     H_    0.253551 0.705223 0.297470 0.153286
H12   H     H_    0.579114 0.548798 0.090742 0.042228
H13   H     H_    0.504590 0.859883 0.796437 0.107895
H14   H     H_    0.637408 0.976920 0.824451 0.135999
H15   H     H_    0.652802 0.794505 0.847107 0.166666
H16   H     H_    0.108821 0.471389 0.308195 0.112120
H17   H     H_    0.880716 0.466073 0.308229 0.123046
H18   H     H_    0.384686 0.141292 0.019670 0.187172
H19   H     H_    0.541483 0.165224 0.960640 0.120669
H20   H     H_    0.424549 0.067056 0.876224 0.120483
H21   H     H_    0.197418 0.333427 0.975000 0.203983
H22   H     H_    0.192109 0.500508 0.057076 0.148884
N1    N     N_R   0.500000 0.852070 0.500000 -0.262150
N2    N     N_R   0.500000 0.147940 0.500000 -0.263753
O1    O     O_R   0.319640 0.618740 0.499990 -0.506758
O2    O     O_3   0.320584 0.355813 0.126003 -0.558468
O3    O     O_3   0.370373 0.144098 0.320375 -0.491492
O4    O     O_3   0.652966 0.150599 0.660502 -0.531164
O5    O     O_3   0.389815 0.856413 0.306771 -0.527451
O6    O     O_3   0.645810 0.852846 0.666394 -0.516014
O7    O     O_R   0.680360 0.618740 0.500010 -0.449803
O8    O     O_R   0.319620 0.381170 0.499990 -0.491679
O9    O     O_R   0.680380 0.381170 0.500010 -0.499140
O10   O     O_R   0.500000 0.618750 0.321940 -0.473518
O11   O     O_R   0.500000 0.618750 0.678060 -0.475818
O12   O     O_R   0.499970 0.381180 0.321940 -0.437877
O13   O     O_R   0.500030 0.381180 0.678060 -0.398366
O14   O     O_3   0.398902 0.277444 0.871893 -0.535065

loop_
_geom_bond_atom_site_label_1
_geom_bond_atom_site_label_2
_ccdc_geom_bond_type
C18   O12   A    
C11   H20   S    
C2    C24   A    
C16   H11   S    
Cu1   O1    S    
C7    O3    S    
C15   H8    S    
C14   H5    S    
C14   H4    S    
C8    O4    S    
C16   O5    S    
C17   H14   S    
Cu2   N2    S    
C2    H17   S    
C1    C4    S    
C10   O6    S    
C1    O8    A    
C10   N1    A    
Cu2   O8    S    
Cu2   O13   S    
C16   H10   S    
C14   O3    S    
C8    N2    A    
C5    C6    A    
C17   O6    S    
Cu1   O7    S    
Cu2   O9    S    
C14   H3    S    
C12   O7    A    
C1    O1    A    
C15   O4    S    
C3    C12   S    
C4    C24   A    
C7    N2    A    
Cu1   O11   S    
C21   O2    S    
C8    C10   A    
Cu1   O10   S    
C16   H9    S    
Cu1   N1    S    
C13   H22   S    
C11   O14   S    
C7    C9    A    
C23   H12   S    
C18   O10   A    
C11   H18   S    
C20   C22   D    
C19   O11   A    
C9    N1    A    
C18   C23   S    
C24   H16   S    
C13   O2    S    
Cu2   O12   S    
C22   H1    S    
C21   C23   D    
C13   H2    S    
C3    C5    A    
C15   H6    S    
C19   C22   S    
Cu1   Cu2   S    
C11   H19   S    
C20   C21   S    
C20   O14   S    
C4    C6    A    
C15   H7    S    
Br1   C5    S    
C9    O5    S    
C12   O9    A    
C19   O13   A    
Br2   C6    S    
C17   H13   S    
C13   H21   S    
C2    C3    A    
C17   H15   S    
