data_mof_unit_43474.cif
_audit_creation_date              2013-03-05T16:05:19-0500
_audit_creation_method            fapswitch 2.2
_symmetry_space_group_name_H-M    P1
_symmetry_Int_Tables_number       1
_space_group_crystal_system       triclinic
_cell_length_a                    10.911387
_cell_length_b                    9.613688
_cell_length_c                    15.877586
_cell_angle_alpha                 89.60731
_cell_angle_beta                  92.360771
_cell_angle_gamma                 89.393475
_cell_volume                      1663.98652753

loop_
_atom_site_label
_atom_site_type_symbol
_atom_site_description
_atom_site_fract_x
_atom_site_fract_y
_atom_site_fract_z
_atom_type_partial_charge
O1    O     O_R   0.319660 0.618740 0.500000 -0.531789
O2    O     O_R   0.319660 0.381260 0.500000 -0.530174
C1    C     C_R   0.262918 0.500862 0.506185 0.882076
O3    O     O_R   0.500020 0.618840 0.379440 -0.543238
O4    O     O_R   0.500020 0.381160 0.379440 -0.550624
C2    C     C_R   0.499720 0.500440 0.340514 0.814973
Cu1   Cu    Cu3+1 0.500020 0.640660 0.500000 1.139548
Cu2   Cu    Cu3+1 0.500020 0.359340 0.500000 1.139009
O5    O     O_R   0.680370 0.618830 0.500010 -0.538061
O6    O     O_R   0.680370 0.381170 0.500010 -0.542917
O7    O     O_R   0.500010 0.618730 0.620560 -0.548438
O8    O     O_R   0.500010 0.381270 0.620560 -0.539712
C3    C     C_R   0.737492 0.499305 0.494490 0.881003
C4    C     C_R   0.500760 0.499562 0.659563 0.823913
C5    C     C_3   0.393771 0.582904 0.047486 -0.433764
C6    C     C_3   0.498939 0.349625 0.051097 -0.435156
C7    C     C_3   0.480608 0.344790 0.952776 0.403793
C8    C     C_3   0.389246 0.593103 0.948542 0.426189
H1    H     H_    0.313194 0.526394 0.070346 0.244863
H2    H     H_    0.424889 0.296145 0.084025 0.255300
H3    H     H_    0.581349 0.288024 0.070797 0.262906
H4    H     H_    0.385062 0.687034 0.076303 0.260254
C9    C     C_1   0.501313 0.498636 0.749070 0.071695
C10   C     C_3   0.509489 0.501890 0.083640 -0.146996
C11   C     C_3   0.501076 0.499731 0.916958 -0.252431
C12   C     C_3   0.630434 0.560690 0.952971 0.269260
C13   C     C_3   0.632853 0.569318 0.054125 0.413097
C14   C     C_1   0.501248 0.498595 0.824570 0.183991
C15   C     C_1   0.504879 0.501909 0.175858 0.154893
C16   C     C_1   0.501841 0.501450 0.251171 0.024134
C17   C     C_R   0.066015 0.375884 0.518117 0.262439
C18   C     C_R   0.061935 0.628846 0.501788 0.257648
C19   C     C_R   0.939933 0.371943 0.500166 0.219659
C20   C     C_R   0.935573 0.625810 0.484151 0.222279
C21   C     C_R   0.872197 0.498227 0.489822 -0.285280
C22   C     C_R   0.128600 0.502753 0.512252 -0.325147
C23   C     C_R   0.449212 0.075364 0.433146 0.322440
C24   C     C_R   0.450351 0.927611 0.432724 0.322485
N1    N     N_R   0.500030 0.852070 0.500020 -0.304450
N2    N     N_R   0.500030 0.147930 0.500020 -0.305883
C25   C     C_R   0.552321 0.924596 0.566270 0.314721
C26   C     C_R   0.550898 0.072353 0.566782 0.313543
N3    N     N_R   0.268650 0.547689 0.912571 0.182498
O9    O     O_R   0.172413 0.545700 0.958454 -0.210690
O10   O     O_R   0.249603 0.545499 0.831090 -0.254751
N4    N     N_R   0.357698 0.292428 0.926632 0.177338
O11   O     O_R   0.275621 0.261688 0.980864 -0.242348
O12   O     O_R   0.333220 0.264616 0.847583 -0.202658
N5    N     N_R   0.613815 0.852555 0.635072 0.175284
O13   O     O_R   0.565921 0.852011 0.708765 -0.236889
O14   O     O_R   0.727328 0.812947 0.628842 -0.258303
N6    N     N_R   0.601350 0.140941 0.639596 0.177787
O15   O     O_R   0.712679 0.187644 0.640500 -0.255970
O16   O     O_R   0.542925 0.137901 0.709347 -0.227323
Br1   Br    Br    0.590560 0.198443 0.911977 -0.147184
Br2   Br    Br    0.390419 0.789241 0.913292 -0.146187
N7    N     N_R   0.639966 0.714555 0.086041 0.155502
O17   O     O_R   0.710356 0.742365 0.151926 -0.213048
O18   O     O_R   0.566859 0.813105 0.057590 -0.264603
N8    N     N_R   0.743664 0.494779 0.090343 0.152315
O19   O     O_R   0.737129 0.398888 0.148217 -0.312754
O20   O     O_R   0.851519 0.546209 0.077855 -0.179352
Br3   Br    Br    0.678144 0.736577 0.899830 -0.120735
Br4   Br    Br    0.769421 0.452572 0.910321 -0.172127
N9    N     N_R   0.128171 0.253551 0.551374 0.184803
O21   O     O_R   0.180930 0.256092 0.626358 -0.248349
O22   O     O_R   0.139386 0.143071 0.505492 -0.201655
N10   N     N_R   0.119689 0.760115 0.518383 0.188126
O23   O     O_R   0.168921 0.784327 0.592820 -0.249132
O24   O     O_R   0.118159 0.857989 0.461464 -0.194103
Br5   Br    Br    0.869404 0.189653 0.482673 -0.199784
Br6   Br    Br    0.856556 0.797717 0.444714 -0.210887
N11   N     N_R   0.391458 0.147283 0.362754 0.173147
O25   O     O_R   0.442734 0.147284 0.290190 -0.278403
O26   O     O_R   0.279871 0.194326 0.367273 -0.260849
N12   N     N_R   0.402339 0.859206 0.358948 0.174864
O27   O     O_R   0.297788 0.796000 0.359506 -0.266820
O28   O     O_R   0.460955 0.865170 0.289295 -0.258810

loop_
_geom_bond_atom_site_label_1
_geom_bond_atom_site_label_2
_geom_bond_distance
_ccdc_geom_bond_type
C5    C8    1.572084 S    
C6    H3    1.104605 S    
C25   C26   1.420497 A    
C10   C13   1.586831 S    
C12   Br3   1.969113 S    
Cu1   Cu2   2.704523 S    
N1    C25   1.373754 A    
C24   N12   1.430503 S    
C11   C14   1.467089 S    
C5    H1    1.110666 S    
C12   C13   1.607929 S    
C23   C24   1.420441 A    
C18   C22   1.412374 A    
C6    H2    1.109256 S    
N12   O28   1.301394 A    
C3    C21   1.474667 S    
C23   N2    1.375276 A    
C13   N8    1.491599 S    
O4    C2    1.298851 A    
O7    C4    1.298349 A    
N7    O18   1.298641 A    
N8    O20   1.303432 A    
C20   C21   1.418547 A    
N11   O25   1.301372 A    
C12   Br4   1.974770 S    
C10   C15   1.467127 S    
O5    C3    1.306618 A    
C5    H4    1.108324 S    
N10   O23   1.301429 A    
N9    O22   1.299614 A    
C17   C19   1.394360 A    
C7    Br1   1.969575 S    
C8    Br2   1.963559 S    
C18   N10   1.437657 S    
N2    C26   1.375523 A    
C6    C10   1.559507 S    
N11   O26   1.299287 A    
C8    C11   1.606110 S    
O3    Cu1   1.927090 S    
C25   N5    1.429205 S    
N6    O16   1.300725 A    
N4    O12   1.302549 A    
N12   O27   1.298519 A    
O3    C2    1.298920 A    
C13   N7    1.490339 S    
C17   N9    1.437721 S    
C6    C7    1.566737 S    
N5    O14   1.299807 A    
C11   C12   1.618108 S    
N8    O19   1.301724 A    
O1    C1    1.302131 A    
C18   C20   1.396240 A    
C4    C9    1.420891 S    
Cu1   O7    1.924343 S    
N3    O9    1.302703 A    
C15   C16   1.197595 T    
Cu2   O8    1.927215 S    
C9    C14   1.198789 T    
C7    N4    1.481752 S    
N3    O10   1.302175 A    
N10   O24   1.299661 A    
C5    C10   1.563247 S    
C2    C16   1.419656 S    
O8    C4    1.298566 A    
N9    O21   1.301415 A    
C20   Br6   1.943680 S    
N6    O15   1.299077 A    
Cu1   O5    1.976812 S    
C23   N11   1.430550 S    
N4    O11   1.302491 A    
O1    Cu1   1.981445 S    
O2    Cu2   1.977009 S    
O6    C3    1.305420 A    
O4    Cu2   1.924232 S    
C7    C11   1.611824 S    
O2    C1    1.306342 A    
C8    N3    1.483906 S    
N7    O17   1.302943 A    
C24   N1    1.377040 A    
C1    C22   1.472641 S    
C19   C21   1.419665 A    
C19   Br5   1.938598 S    
Cu2   O6    1.981230 S    
N5    O13   1.300977 A    
Cu1   N1    2.032433 S    
C17   C22   1.408526 A    
Cu2   N2    2.032427 S    
C26   N6    1.428331 S    
