data_mof_unit_26353.cif
_audit_creation_date              2012-12-10T17:25:30-0500
_audit_creation_method            fapswitch 2.2
_symmetry_space_group_name_H-M    P1
_symmetry_Int_Tables_number       1
_space_group_crystal_system       triclinic
_cell_length_a                    10.151314
_cell_length_b                    10.720089
_cell_length_c                    23.476874
_cell_angle_alpha                 90.22523
_cell_angle_beta                  80.14503
_cell_angle_gamma                 97.819441
_cell_volume                      2493.22979967

loop_
_atom_site_label
_atom_site_type_symbol
_atom_type_description
_atom_site_fract_x
_atom_site_fract_y
_atom_site_fract_z
_atom_type_partial_charge
C1    C     C_R   0.558801 0.733453 0.497360 0.973243
C2    C     C_R   0.441165 0.266634 0.502407 0.980319
C3    C     C_R   0.378321 0.454628 0.770890 -0.149818
C4    C     C_R   0.617240 0.531794 0.228008 -0.146271
C5    C     C_R   0.379683 0.447168 0.711793 0.390797
C6    C     C_R   0.619704 0.539926 0.286836 0.298001
C7    C     C_R   0.497087 0.500892 0.673260 -0.266812
C8    C     C_R   0.501274 0.493578 0.326699 -0.264387
C9    C     C_R   0.613236 0.555124 0.695439 0.088860
C10   C     C_R   0.382306 0.441953 0.305797 0.109754
C11   C     C_R   0.613489 0.548847 0.755105 0.194281
C12   C     C_R   0.379373 0.446752 0.246335 0.194401
C13   C     C_R   0.493680 0.502972 0.792562 0.102750
C14   C     C_R   0.498653 0.488254 0.207789 0.108347
C15   C     C_2   0.597023 0.868028 0.491251 -0.318535
C16   C     C_2   0.402650 0.132022 0.507128 -0.341464
C17   C     C_2   0.508348 0.943221 0.515201 0.213913
C18   C     C_2   0.492360 0.057787 0.483295 0.319068
C19   C     C_2   0.941256 0.524893 0.490621 0.162437
C20   C     C_2   0.058147 0.475034 0.509942 0.115044
C21   C     C_R   0.499224 0.500454 0.610674 0.978907
C22   C     C_R   0.500516 0.498447 0.389280 0.951163
C23   C     C_R   0.481364 0.377383 0.119267 0.603049
C24   C     C_R   0.504230 0.614571 0.881431 0.613880
C25   C     C_R   0.525076 0.601474 0.117748 0.618337
C26   C     C_R   0.462681 0.390431 0.883123 0.628797
C27   C     C_R   0.540978 0.604709 0.057444 -0.162128
C28   C     C_R   0.443829 0.387761 0.943476 -0.151631
C29   C     C_R   0.495861 0.493662 0.029965 -0.077773
C30   C     C_R   0.487749 0.498957 0.971065 -0.082848
C31   C     C_R   0.463510 0.376792 0.061030 -0.132382
C32   C     C_R   0.519554 0.615783 0.939993 -0.135136
C33   C     C_R   0.596625 0.715293 0.024466 0.373038
C34   C     C_R   0.386550 0.277608 0.976396 0.364607
C35   C     C_R   0.571494 0.725839 0.967568 0.145290
C36   C     C_R   0.409305 0.267244 0.033701 0.132431
H1    H     H_    0.151256 0.645692 0.521895 0.217783
H2    H     H_    0.849262 0.354334 0.477734 0.215020
H3    H     H_    0.287952 0.418923 0.801009 0.224415
H4    H     H_    0.707321 0.563270 0.196902 0.219455
H5    H     H_    0.319875 0.099227 0.541570 0.226694
H6    H     H_    0.678203 0.899384 0.455937 0.217583
N1    N     N_R   0.500730 0.488910 0.146841 -0.348235
N2    N     N_R   0.487802 0.502770 0.853789 -0.348031
N3    N     N_2   0.842710 0.448880 0.476480 -0.170455
N4    N     N_2   0.157290 0.551120 0.523520 -0.176447
O1    O     O_R   0.431060 0.692470 0.504730 -0.580707
O2    O     O_R   0.568940 0.307530 0.495270 -0.592787
O3    O     O_R   0.651120 0.659650 0.489640 -0.576567
O4    O     O_R   0.348880 0.340350 0.510360 -0.574346
O5    O     O_R   0.389950 0.516450 0.591390 -0.516780
O6    O     O_R   0.610050 0.483550 0.408610 -0.513029
O7    O     O_R   0.610020 0.483630 0.576300 -0.629826
O8    O     O_R   0.389980 0.516370 0.423700 -0.617516
O9    O     O_2   0.477998 0.269647 0.149003 -0.482984
O10   O     O_2   0.508048 0.721970 0.851382 -0.466098
O11   O     O_2   0.528142 0.709402 0.147584 -0.441468
O12   O     O_2   0.461874 0.282172 0.853562 -0.444804
Zn1   Zn    Zn3+2 0.353060 0.521920 0.510080 1.102308
Zn2   Zn    Zn3+2 0.646940 0.478080 0.489920 1.101399
S1    S     S_3+6 0.721017 0.826908 0.049469 0.119000
O13   O     O_2   0.783533 0.767868 0.094439 -0.232665
O14   O     O_2   0.832018 0.873119 0.000200 -0.234810
O15   O     O_3   0.647905 0.949655 0.078132 -0.473249
H7    H     H_    0.722758 0.009864 0.088441 0.404411
S2    S     S_3+6 0.263336 0.166667 0.950303 0.122218
O16   O     O_2   0.328258 0.055456 0.926204 -0.203547
O17   O     O_2   0.148712 0.122597 0.998451 -0.230854
O18   O     O_3   0.198046 0.232677 0.898433 -0.511507
H8    H     H_    0.140820 0.162472 0.883255 0.416814
I1    I     I_    0.612707 0.910869 0.927261 0.070689
I2    I     I_    0.359448 0.083775 0.075474 0.075326
S3    S     S_3+6 0.233595 0.365703 0.689046 0.099305
O19   O     O_2   0.274165 0.279948 0.640289 -0.271588
O20   O     O_2   0.146753 0.288268 0.738272 -0.237594
O21   O     O_3   0.144038 0.471268 0.666714 -0.488942
H9    H     H_    0.062489 0.420536 0.656602 0.387039
S4    S     S_3+6 0.772568 0.612549 0.307292 0.109619
O22   O     O_2   0.845518 0.512470 0.327287 -0.194807
O23   O     O_2   0.862441 0.683665 0.256920 -0.219929
O24   O     O_3   0.740443 0.713402 0.361239 -0.505800
H10   H     H_    0.666667 0.756036 0.351313 0.349804
I3    I     I_    0.784711 0.659139 0.641435 -0.130120
I4    I     I_    0.210307 0.342217 0.361189 -0.090838
I5    I     I_    0.795372 0.599373 0.789590 -0.093638
I6    I     I_    0.194555 0.400404 0.213588 -0.073333
S5    S     S_3+6 0.586523 0.095727 0.412244 0.055788
O25   O     O_2   0.533205 0.199689 0.384197 -0.278968
O26   O     O_2   0.732392 0.135846 0.416215 -0.272480
O27   O     O_3   0.573631 0.967866 0.370856 -0.564775
H11   H     H_    0.633082 0.993344 0.333570 0.411151
S6    S     S_3+6 0.415907 0.907225 0.586772 0.078727
O28   O     O_2   0.270877 0.861603 0.583280 -0.222782
O29   O     O_2   0.472787 0.807295 0.615983 -0.275026
O30   O     O_3   0.422704 0.037194 0.627136 -0.471701
H12   H     H_    0.520322 0.066930 0.624834 0.358804
I7    I     I_    0.047621 0.278540 0.528342 -0.163494
I8    I     I_    0.951261 0.721677 0.472989 -0.092355

loop_
_geom_bond_atom_site_label_1
_geom_bond_atom_site_label_2
_ccdc_geom_bond_type
S2    O17   D    
S5    O25   D    
N3    Zn2   S    
N4    Zn1   S    
C27   C29   A    
S3    O19   D    
O30   H12   S    
C25   N1    A    
C2    O4    A    
O24   H10   S    
C26   N2    A    
C22   O8    A    
C27   C33   A    
O3    Zn2   S    
O4    Zn1   S    
S4    O23   D    
C6    S4    S    
S2    O18   S    
C23   N1    A    
C7    C9    A    
S1    O14   D    
H2    N3    S    
O6    Zn2   S    
C19   I8    S    
C20   I7    S    
C4    H4    S    
C8    C22   S    
C1    C15   S    
C30   C32   A    
C2    C16   S    
C3    C13   A    
S2    O16   D    
C35   I1    S    
C5    S3    S    
S3    O20   D    
C34   S2    S    
O18   H8    S    
C17   S6    S    
C25   O11   S    
O7    Zn2   S    
O2    Zn2   S    
O8    Zn1   S    
C32   C35   A    
O21   H9    S    
C4    C6    A    
C5    C7    A    
S4    O22   D    
C1    O1    A    
C6    C8    A    
C2    O2    A    
C7    C21   S    
O1    Zn1   S    
S6    O30   S    
C23   C31   A    
S1    O15   S    
C24   C32   A    
C29   C30   A    
C26   O12   S    
S6    O29   D    
C17   C18   S    
C9    C11   A    
C10   C12   A    
C9    I3    S    
C33   S1    S    
C12   C14   A    
S5    O26   D    
C24   N2    A    
S3    O21   S    
C25   C27   A    
C21   O5    A    
C22   O6    A    
C15   C17   D    
C8    C10   A    
C15   H6    S    
C3    C5    A    
C19   N3    D    
C23   O9    S    
C24   O10   S    
C26   C28   A    
C18   S5    S    
C12   I6    S    
O15   H7    S    
C19   C20   S    
C28   C30   A    
C29   C31   A    
C21   O7    A    
C11   C13   A    
S4    O24   S    
O27   H11   S    
C11   I5    S    
C10   I4    S    
S6    O28   D    
C33   C35   A    
C34   C36   A    
C4    C14   A    
S1    O13   D    
C28   C34   A    
O5    Zn1   S    
C16   C18   D    
S5    O27   S    
C31   C36   A    
H1    N4    S    
C1    O3    A    
C16   H5    S    
C13   N2    S    
C20   N4    D    
C3    H3    S    
C36   I2    S    
C14   N1    S    
