data_mof_unit_23618.cif
_audit_creation_date              2012-12-11T17:43:18-0500
_audit_creation_method            fapswitch 2.2
_symmetry_space_group_name_H-M    P1
_symmetry_Int_Tables_number       1
_space_group_crystal_system       triclinic
_cell_length_a                    15.042865
_cell_length_b                    14.986095
_cell_length_c                    16.922669
_cell_angle_alpha                 108.725046
_cell_angle_beta                  106.101342
_cell_angle_gamma                 109.216763
_cell_volume                      3082.98675331

loop_
_atom_site_label
_atom_site_type_symbol
_atom_type_description
_atom_site_fract_x
_atom_site_fract_y
_atom_site_fract_z
_atom_type_partial_charge
C1    C     C_R   0.091714 0.278014 0.023082 -0.123635
C2    C     C_R   0.916831 0.712386 0.919700 -0.141496
C3    C     C_R   0.029018 0.460539 0.726518 0.094571
C4    C     C_R   0.969311 0.424984 0.257214 0.107686
C5    C     C_R   0.664476 0.217144 0.744387 0.070350
C6    C     C_R   0.241084 0.803870 0.274327 0.058253
C7    C     C_R   0.359565 0.567580 0.056772 0.058297
C8    C     C_R   0.709058 0.536790 0.029773 0.048868
C9    C     C_R   0.919708 0.887102 0.867844 -0.251789
C10   C     C_R   0.104488 0.074911 0.956007 -0.231200
C11   C     C_R   0.012541 0.890366 0.919435 0.046269
C12   C     C_R   0.009228 0.076670 0.923234 0.059908
C13   C     C_R   0.107650 0.981526 0.950906 0.055825
C14   C     C_R   0.917696 0.978931 0.865904 0.056504
C15   C     C_R   0.839002 0.007634 0.732683 -0.283661
C16   C     C_R   0.287793 0.052274 0.068044 -0.335558
C17   C     C_R   0.652574 0.925067 0.641876 0.532902
C18   C     C_R   0.406594 0.984888 0.036192 0.531153
C19   C     C_R   0.492135 0.703343 0.352105 -0.082485
C20   C     C_R   0.503620 0.404081 0.726690 -0.112293
C21   C     C_R   0.502662 0.687777 0.269931 -0.144139
C22   C     C_R   0.517052 0.431327 0.817765 -0.097624
C23   C     C_R   0.936595 0.448184 0.735645 -0.141119
C24   C     C_R   0.062098 0.483036 0.254948 -0.164403
C25   C     C_R   0.529940 0.609140 0.229377 0.111131
C26   C     C_R   0.549124 0.536771 0.878681 0.089089
C27   C     C_R   0.548666 0.548146 0.273990 -0.162224
C28   C     C_R   0.566857 0.614251 0.847147 -0.154030
C29   C     C_R   0.539063 0.564804 0.356778 -0.113065
C30   C     C_R   0.555150 0.586858 0.756425 -0.100011
C31   C     C_R   0.510563 0.642118 0.395670 -0.089634
C32   C     C_R   0.523388 0.481745 0.696171 -0.141170
C33   C     C_R   0.620942 0.576633 0.128044 -0.231297
C34   C     C_R   0.477020 0.582243 0.987082 -0.215487
C35   C     C_R   0.628185 0.560411 0.044226 0.069992
C36   C     C_R   0.462760 0.587030 0.065919 0.055466
C37   C     C_R   0.556018 0.564754 0.973332 0.011511
C38   C     C_R   0.537443 0.590352 0.140160 0.026958
C39   C     C_R   0.753885 0.987145 0.657317 -0.133987
C40   C     C_R   0.384300 0.052611 0.097156 -0.153692
C41   C     C_R   0.957820 0.386057 0.325633 0.021639
C42   C     C_R   0.036854 0.412005 0.639148 0.038600
C43   C     C_R   0.135658 0.422890 0.547686 -0.374466
C44   C     C_R   0.855842 0.318314 0.401249 -0.358086
C45   C     C_R   0.720250 0.214457 0.823099 -0.138854
C46   C     C_R   0.224130 0.797872 0.187462 -0.129192
C47   C     C_R   0.133386 0.436299 0.633192 0.535881
C48   C     C_R   0.859889 0.340835 0.327929 0.538505
C49   C     C_R   0.944648 0.354042 0.557500 -0.321325
C50   C     C_R   0.047738 0.401758 0.394354 -0.324111
C51   C     C_R   0.947536 0.348902 0.475199 0.153820
C52   C     C_R   0.043860 0.388299 0.471149 0.161729
C53   C     C_R   0.555925 0.144050 0.677250 0.140449
C54   C     C_R   0.282475 0.900244 0.360242 0.133387
C55   C     C_R   0.390881 0.089925 0.444480 -0.228179
C56   C     C_R   0.404449 0.973242 0.607924 -0.210997
C57   C     C_R   0.321456 0.000075 0.361673 -0.162662
C58   C     C_R   0.497513 0.053282 0.682932 -0.134164
C59   C     C_R   0.298172 0.893890 0.443608 -0.274953
C60   C     C_R   0.513463 0.159883 0.601148 -0.299558
C61   C     C_R   0.371500 0.982798 0.526484 0.206298
C62   C     C_R   0.422812 0.079548 0.525365 0.201443
C63   C     C_R   0.636757 0.887805 0.705780 -0.387228
C64   C     C_R   0.331202 0.917166 0.944435 -0.373216
C65   C     C_R   0.721359 0.909914 0.783149 0.499303
C66   C     C_R   0.234331 0.916597 0.913633 0.527005
C67   C     C_R   0.300694 0.599185 0.006094 -0.139133
C68   C     C_R   0.737034 0.463235 0.047562 -0.142117
C69   C     C_R   0.824448 0.967661 0.795222 -0.058719
C70   C     C_R   0.211153 0.983516 0.977040 -0.056155
C71   C     C_R   0.726530 0.310623 0.747106 -0.139754
C72   C     C_R   0.218606 0.702489 0.265418 -0.129284
C73   C     C_R   0.296332 0.501109 0.080424 -0.126631
C74   C     C_R   0.753159 0.565497 0.975378 -0.107840
C75   C     C_R   0.110115 0.534265 0.813037 -0.060439
C76   C     C_R   0.889889 0.398430 0.175820 -0.085919
C77   C     C_R   0.917622 0.193152 0.948235 -0.116176
C78   C     C_R   0.088191 0.796317 0.999858 -0.125149
C79   C     C_R   0.006356 0.178914 0.959791 0.057996
C80   C     C_R   0.006181 0.804197 0.946260 0.090247
H1    H     H_    0.173090 0.297384 0.050170 0.094524
H2    H     H_    0.839716 0.684667 0.868240 0.101442
H3    H     H_    0.916802 0.052088 0.740611 0.168500
H4    H     H_    0.271743 0.104018 0.117280 0.165452
H5    H     H_    0.502660 0.654506 0.459486 0.104581
H6    H     H_    0.513105 0.460262 0.625607 0.105565
H7    H     H_    0.469449 0.762811 0.381765 0.152105
H8    H     H_    0.476388 0.322509 0.679440 0.121215
H9    H     H_    0.568968 0.486562 0.244067 0.119884
H10   H     H_    0.590091 0.695647 0.892981 0.149679
H11   H     H_    0.553066 0.517229 0.390491 0.109028
H12   H     H_    0.569643 0.646831 0.732551 0.149368
H13   H     H_    0.679670 0.577483 0.183023 0.137681
H14   H     H_    0.418721 0.578429 0.929531 0.152019
H15   H     H_    0.122750 0.433221 0.392953 0.141528
H16   H     H_    0.869406 0.325382 0.558763 0.143712
H17   H     H_    0.209588 0.447955 0.543100 0.133176
H18   H     H_    0.781919 0.287282 0.405126 0.134480
H19   H     H_    0.857816 0.397733 0.683398 0.101017
H20   H     H_    0.140112 0.504333 0.300344 0.093664
H21   H     H_    0.766852 0.017162 0.609098 0.152279
H22   H     H_    0.441812 0.105204 0.167851 0.145873
H23   H     H_    0.555165 0.229912 0.595614 0.113587
H24   H     H_    0.263704 0.818361 0.443993 0.118199
H25   H     H_    0.526528 0.040192 0.742001 0.117126
H26   H     H_    0.306445 0.008664 0.298979 0.117352
H27   H     H_    0.427493 0.164972 0.443629 0.123095
H28   H     H_    0.364388 0.900159 0.610460 0.124974
H29   H     H_    0.558368 0.841943 0.695844 0.149814
H30   H     H_    0.347888 0.864920 0.896267 0.159592
H31   H     H_    0.690252 0.161323 0.850425 0.095081
H32   H     H_    0.234227 0.861501 0.168748 0.098956
H33   H     H_    0.328145 0.660942 0.985957 0.101525
H34   H     H_    0.713698 0.422627 0.086353 0.119887
H35   H     H_    0.703416 0.348157 0.706091 0.091863
H36   H     H_    0.224166 0.677274 0.318726 0.095603
H37   H     H_    0.319766 0.469144 0.126793 0.104120
H38   H     H_    0.749708 0.622741 0.950637 0.114557
H39   H     H_    0.192562 0.564998 0.832967 0.162287
H40   H     H_    0.810274 0.338028 0.144194 0.167791
H41   H     H_    0.837291 0.134406 0.908447 0.112267
H42   H     H_    0.169940 0.844591 0.024858 0.108276
N1    N     N_R   0.055660 0.348550 0.045620 -0.041920
N2    N     N_R   0.944340 0.651450 0.954380 -0.041872
N3    N     N_R   0.960830 0.507850 0.823700 -0.042132
N4    N     N_R   0.039170 0.492150 0.176300 -0.039753
N5    N     N_R   0.811290 0.303410 0.871650 -0.039816
N6    N     N_R   0.188710 0.696590 0.128350 -0.041822
N7    N     N_R   0.205200 0.552990 0.997670 -0.043313
N8    N     N_R   0.794800 0.447010 0.002330 -0.043465
N9    N     N_R   0.814800 0.361830 0.823700 -0.039087
N10   N     N_R   0.185200 0.638170 0.176300 -0.039343
N11   N     N_R   0.201680 0.494570 0.045620 -0.040362
N12   N     N_R   0.798320 0.505430 0.954380 -0.042331
N13   N     N_R   0.068420 0.560530 0.871650 -0.055327
N14   N     N_R   0.931580 0.439470 0.128350 -0.056679
N15   N     N_R   0.948070 0.295860 0.997670 -0.046083
N16   N     N_R   0.051930 0.704140 0.002330 -0.044626
Ni1   Ni    Ni4+2 0.119340 0.493420 0.109960 0.213507
Ni2   Ni    Ni4+2 0.880660 0.506580 0.890040 0.219168
Ni3   Ni    Ni4+2 0.872590 0.372590 0.000000 0.215777
Ni4   Ni    Ni4+2 0.127410 0.627410 0.000000 0.221878
H43   H     H_    0.488916 0.736725 0.237679 0.125609
H44   H     H_    0.500871 0.370287 0.840418 0.114071
O1    O     O_3   0.770289 0.326020 0.262649 -0.794652
H45   H     H_    0.709772 0.294020 0.274950 0.320449
O2    O     O_3   0.223796 0.475073 0.710529 -0.794486
H46   H     H_    0.283209 0.487112 0.693523 0.321606
O3    O     O_3   0.570949 0.901847 0.563803 -0.768591
H47   H     H_    0.505442 0.851174 0.559361 0.299912
O4    O     O_3   0.502479 0.986887 0.068054 -0.749499
H48   H     H_    0.505955 0.934443 0.016964 0.315777
O5    O     O_3   0.699712 0.874651 0.844865 -0.783775
H49   H     H_    0.763123 0.912634 0.903829 0.316091
O6    O     O_3   0.165549 0.849410 0.822087 -0.751903
H50   H     H_    0.107118 0.866629 0.805443 0.320162
H51   H     H_    0.848110 0.813538 0.829423 0.148179
H52   H     H_    0.177232 0.146594 0.987944 0.133199

loop_
_geom_bond_atom_site_label_1
_geom_bond_atom_site_label_2
_ccdc_geom_bond_type
C23   H19   S    
C63   C65   A    
C3    C42   S    
C31   H5    S    
C46   H32   S    
C27   C29   A    
C34   C37   A    
C7    C36   S    
C3    C23   A    
O2    H46   S    
C19   C31   A    
O1    H45   S    
C76   N14   A    
C7    C73   A    
C67   N7    A    
N10   Ni1   S    
C6    C72   A    
C76   H40   S    
C21   C25   A    
C59   H24   S    
N2    N16   A    
C35   C37   A    
C77   N15   A    
C19   H7    S    
C2    C80   A    
N12   Ni2   S    
C66   O6    S    
C4    C24   A    
C75   N13   A    
C43   C52   A    
C13   C70   S    
C1    H1    S    
C12   C79   S    
N1    Ni1   S    
C16   H4    S    
C7    C67   A    
C60   C62   A    
N5    Ni3   S    
N8    Ni3   S    
C18   C40   A    
C56   H28   S    
C65   O5    S    
N9    Ni2   S    
C44   H18   S    
N13   Ni4   S    
C49   C51   A    
C50   C52   A    
O4    H48   S    
C72   N10   A    
C60   H23   S    
C3    C75   A    
C10   H52   S    
C34   C36   A    
C23   N3    A    
N3    N13   A    
C57   H26   S    
N4    N14   A    
C4    C41   S    
C24   N4    A    
N8    N12   A    
C6    C54   S    
C15   C69   A    
C78   N16   A    
C50   H15   S    
C46   N6    A    
C53   C60   A    
C39   H21   S    
C54   C59   A    
C77   C79   A    
N3    Ni2   S    
C74   H38   S    
C47   O2    S    
N4    Ni1   S    
C59   C61   A    
C73   H37   S    
C51   C52   A    
C43   H17   S    
C75   H39   S    
C21   H43   S    
C30   H12   S    
N16   Ni4   S    
C15   H3    S    
N7    Ni4   S    
C5    C45   A    
C55   H27   S    
C8    C35   S    
C64   C66   A    
C63   H29   S    
C9    C14   A    
C1    N1    A    
C16   C70   A    
N14   Ni3   S    
C25   C38   S    
C64   H30   S    
C9    H51   S    
C32   H6    S    
C48   O1    S    
C8    C74   A    
C20   H8    S    
C71   H35   S    
C68   N8    A    
C9    C11   A    
C15   C39   A    
C10   C12   A    
C16   C40   A    
N7    N11   A    
C44   C51   A    
C17   C39   A    
C73   N11   A    
C8    C68   A    
C55   C57   A    
C1    C79   A    
C14   C69   S    
C2    H2    S    
C20   C22   A    
C18   O4    S    
C41   C50   A    
C29   H11   S    
C20   C32   A    
C5    C53   S    
N15   Ni3   S    
N6    N10   A    
C6    C46   A    
C19   C21   A    
C72   H36   S    
C24   H20   S    
N2    Ni2   S    
C17   O3    S    
C34   H14   S    
C12   C14   A    
C10   C13   A    
C33   H13   S    
C53   C58   A    
C45   H31   S    
C26   C37   S    
N11   Ni1   S    
C2    N2    A    
C25   C27   A    
N1    N15   A    
C26   C28   A    
C33   C38   A    
C58   H25   S    
C28   C30   A    
C67   H33   S    
C29   C31   A    
O3    H47   S    
C17   C63   A    
C30   C32   A    
C11   C13   A    
C18   C64   A    
C66   C70   A    
C43   C47   A    
C45   N5    A    
C65   C69   A    
C74   N12   A    
C36   C38   A    
C33   C35   A    
C41   C48   A    
C56   C58   A    
C27   H9    S    
C78   C80   A    
C42   C47   A    
C49   H16   S    
C61   C62   A    
C78   H42   S    
N5    N9    A    
C4    C76   A    
C77   H41   S    
C11   C80   S    
C42   C49   A    
C40   H22   S    
C55   C62   A    
C71   N9    A    
C5    C71   A    
C22   C26   A    
C22   H44   S    
O6    H50   S    
C56   C61   A    
C28   H10   S    
O5    H49   S    
N6    Ni4   S    
C44   C48   A    
C68   H34   S    
C54   C57   A    
