data_mof_unit_46888.cif
_audit_creation_date              2012-12-10T19:12:23-0500
_audit_creation_method            fapswitch 2.2
_symmetry_space_group_name_H-M    P1
_symmetry_Int_Tables_number       1
_space_group_crystal_system       triclinic
_cell_length_a                    15.702748
_cell_length_b                    10.660886
_cell_length_c                    9.792053
_cell_angle_alpha                 89.571518
_cell_angle_beta                  89.91016
_cell_angle_gamma                 90.073212
_cell_volume                      1639.19143615

loop_
_atom_site_label
_atom_site_type_symbol
_atom_type_description
_atom_site_fract_x
_atom_site_fract_y
_atom_site_fract_z
_atom_type_partial_charge
C1    C     C_R   0.502339 0.258034 0.500352 0.846063
C2    C     C_3   0.082614 0.502473 0.500053 0.208146
C3    C     C_3   0.971824 0.601801 0.570703 -0.162293
C4    C     C_3   0.917344 0.502609 0.499754 0.205149
C5    C     C_3   0.028361 0.609143 0.441349 -0.162392
C6    C     C_3   0.972046 0.509957 0.370405 -0.153079
C7    C     C_1   0.173579 0.501878 0.500206 -0.080471
C8    C     C_1   0.826393 0.502105 0.499697 -0.078090
C9    C     C_3   0.568283 0.072446 0.609091 -0.441342
C10   C     C_3   0.564585 0.928548 0.615157 -0.367361
C11   C     C_3   0.414285 0.071608 0.532640 -0.403077
C12   C     C_R   0.337998 0.500195 0.500053 0.923948
C13   C     C_3   0.532129 0.074608 0.357411 -0.471718
C14   C     C_3   0.504439 0.121977 0.500292 0.138016
C15   C     C_3   0.505955 0.879318 0.499480 0.058335
C16   C     C_3   0.414162 0.927988 0.523609 -0.501575
C17   C     C_3   0.539139 0.931513 0.360190 0.341254
C18   C     C_3   0.484347 0.370574 0.084394 -0.384535
C19   C     C_3   0.490606 0.367079 0.921425 0.282504
C20   C     C_3   0.428768 0.577491 0.081891 -0.346369
C21   C     C_3   0.581855 0.541989 0.077474 -0.177783
C22   C     C_3   0.425116 0.569864 0.921385 -0.064678
C23   C     C_R   0.503663 0.742314 0.499623 0.890176
C24   C     C_3   0.580349 0.546119 0.915278 0.266580
C25   C     C_R   0.661999 0.500306 0.499954 0.912051
C26   C     C_3   0.971617 0.395970 0.558444 -0.174459
C27   C     C_3   0.028107 0.403308 0.429108 -0.173669
C28   C     C_1   0.248974 0.501089 0.500210 -0.171877
C29   C     C_1   0.751006 0.501293 0.499788 -0.152840
C30   C     C_3   0.027901 0.495142 0.629396 -0.154643
H1    H     H_    0.053317 0.322204 0.371275 0.132214
H2    H     H_    0.539792 0.899246 0.716215 0.247990
H3    H     H_    0.394580 0.100558 0.637052 0.217320
H4    H     H_    0.387427 0.888693 0.619633 0.237802
H5    H     H_    0.484064 0.102378 0.279208 0.164641
H6    H     H_    0.593587 0.118553 0.326011 0.180597
H7    H     H_    0.497897 0.895814 0.276781 0.178613
H8    H     H_    0.367036 0.110947 0.459283 0.162245
H9    H     H_    0.371885 0.897873 0.438722 0.167965
H10   H     H_    0.422291 0.333578 0.122123 0.177839
H11   H     H_    0.946211 0.308880 0.606277 0.131329
H12   H     H_    0.533030 0.305842 0.127493 0.161420
H13   H     H_    0.548608 0.312214 0.895124 0.110046
H14   H     H_    0.366785 0.544787 0.124349 0.153051
H15   H     H_    0.365411 0.518445 0.897242 0.111938
H16   H     H_    0.630453 0.470219 0.105938 0.084689
H17   H     H_    0.632743 0.483767 0.878779 0.051262
H18   H     H_    0.434964 0.674948 0.119280 0.216176
H19   H     H_    0.946967 0.516028 0.264621 0.141267
H20   H     H_    0.053788 0.696221 0.393523 0.133819
H21   H     H_    0.946574 0.682887 0.628523 0.133304
H22   H     H_    0.052947 0.489096 0.735199 0.135473
H23   H     H_    0.552818 0.109895 0.712002 0.213267
H24   H     H_    0.634020 0.103648 0.582923 0.152850
H25   H     H_    0.629728 0.888435 0.607607 0.172531
N1    N     N_3   0.498170 0.499750 0.138610 -0.102163
N2    N     N_3   0.498850 0.496730 0.861320 -0.099967
O1    O     O_R   0.499980 0.314910 0.616040 -0.582474
O2    O     O_R   0.500040 0.314680 0.383960 -0.646008
O3    O     O_R   0.376750 0.500100 0.616020 -0.571905
O4    O     O_R   0.376810 0.499870 0.383940 -0.637977
O5    O     O_R   0.499960 0.685320 0.616040 -0.572597
O6    O     O_R   0.500020 0.685090 0.383960 -0.622658
O7    O     O_R   0.623190 0.500130 0.616060 -0.632441
O8    O     O_R   0.623250 0.499900 0.383980 -0.594330
Zn1   Zn    Zn3+2 0.499960 0.500150 0.654960 1.007386
Zn2   Zn    Zn3+2 0.500040 0.499850 0.345040 0.935107
O9    O     O_3   0.623254 0.892388 0.334440 -0.760494
H26   H     H_    0.663188 0.942497 0.390391 0.328613
O10   O     O_3   0.422408 0.301203 0.861540 -0.746591
H27   H     H_    0.369917 0.314059 0.915837 0.317815
C31   C     C_2   0.616758 0.662010 0.135258 1.071127
O11   O     O_2   0.579841 0.761097 0.115695 -0.554016
O12   O     O_R   0.697172 0.660773 0.196666 -0.826204
H28   H     H_    0.720211 0.747593 0.215641 0.362343
O13   O     O_3   0.595955 0.666385 0.860658 -0.687710
H29   H     H_    0.658542 0.679924 0.861646 0.313688
C32   C     C_2   0.409762 0.698625 0.860785 0.998624
O14   O     O_2   0.351074 0.713766 0.780389 -0.679454
O15   O     O_R   0.454862 0.802687 0.907985 -0.754868
H30   H     H_    0.430731 0.884873 0.872642 0.317534

loop_
_geom_bond_atom_site_label_1
_geom_bond_atom_site_label_2
_ccdc_geom_bond_type
C11   H8    S    
C2    C7    S    
N2    Zn1   S    
C4    C8    S    
C22   N2    S    
C19   N2    S    
C26   C27   S    
C12   C28   S    
C8    C29   T    
C13   H5    S    
C10   C15   S    
C1    O2    A    
C5    C6    S    
O15   H30   S    
C11   C14   S    
C32   O15   S    
C15   C16   S    
C18   C19   S    
C18   H10   S    
O2    Zn2   S    
O1    Zn1   S    
C23   O5    A    
C24   N2    S    
O8    Zn2   S    
O10   H27   S    
C9    C10   S    
C18   N1    S    
C16   H4    S    
C15   C23   S    
O3    Zn1   S    
C13   C14   S    
C20   H14   S    
C19   H13   S    
C25   C29   S    
O6    Zn2   S    
O12   H28   S    
O5    Zn1   S    
C21   C31   S    
C27   H1    S    
C11   H3    S    
C25   O8    A    
O13   H29   S    
C22   C32   S    
C13   H6    S    
C4    C6    S    
C3    H21   S    
C32   O14   D    
O9    H26   S    
C7    C28   T    
C25   O7    A    
O7    Zn1   S    
C3    C30   S    
C9    C14   S    
C11   C16   S    
O4    Zn2   S    
C6    C27   S    
C17   H7    S    
C10   H25   S    
C2    C27   S    
C31   O12   S    
C20   C22   S    
C26   C30   S    
C5    H20   S    
C2    C5    S    
C9    H23   S    
C3    C4    S    
C21   H16   S    
C15   C17   S    
C30   H22   S    
C17   O9    S    
C20   H18   S    
C24   H17   S    
C24   O13   S    
C31   O11   D    
C3    C5    S    
C21   N1    S    
C4    C26   S    
C9    H24   S    
N1    Zn2   S    
C13   C17   S    
C2    C30   S    
C18   H12   S    
C1    O1    A    
C12   O4    A    
C23   O6    A    
C20   N1    S    
C6    H19   S    
C16   H9    S    
C12   O3    A    
C10   H2    S    
C22   H15   S    
C21   C24   S    
C19   O10   S    
C1    C14   S    
C26   H11   S    
