data_mof_unit_49344.cif
_audit_creation_date              2012-12-11T19:42:25-0500
_audit_creation_method            fapswitch 2.2
_symmetry_space_group_name_H-M    P1
_symmetry_Int_Tables_number       1
_space_group_crystal_system       triclinic
_cell_length_a                    8.386863
_cell_length_b                    15.163612
_cell_length_c                    26.947998
_cell_angle_alpha                 98.937116
_cell_angle_beta                  93.45067
_cell_angle_gamma                 80.210536
_cell_volume                      3334.20381194

loop_
_atom_site_label
_atom_site_type_symbol
_atom_type_description
_atom_site_fract_x
_atom_site_fract_y
_atom_site_fract_z
_atom_type_partial_charge
Ba1   Ba    Ba6+2 0.860050 0.456430 0.522530 1.605650
Ba2   Ba    Ba6+2 0.329780 0.543490 0.477460 1.618650
C1    C     C_3   0.592660 0.178873 0.689692 -0.200672
C2    C     C_R   0.919943 0.585215 0.180616 0.578750
C3    C     C_2   0.740496 0.542635 0.268262 0.005859
C4    C     C_3   0.136396 0.266124 0.654090 0.304681
C5    C     C_3   0.712062 0.565101 0.324285 -0.046760
C6    C     C_1   0.973146 0.474215 0.340729 0.061072
C7    C     C_2   0.019187 0.479595 0.294637 -0.113742
C8    C     C_2   0.896704 0.509850 0.254336 0.231639
C9    C     C_R   0.022714 0.501339 0.101024 -0.082374
C10   C     C_R   0.059482 0.423029 0.124492 -0.032322
C11   C     C_R   0.133531 0.342469 0.096388 -0.063403
C12   C     C_3   0.638875 0.234172 0.650938 0.360508
C13   C     C_R   0.950643 0.582521 0.129309 -0.047046
C14   C     C_2   0.819623 0.500416 0.353933 -0.208094
C15   C     C_2   0.360769 0.493384 0.642358 -0.300831
C16   C     C_3   0.110025 0.243187 0.705632 -0.317443
C17   C     C_R   0.160555 0.412157 0.968925 0.018948
C18   C     C_R   0.072381 0.576811 0.976640 0.020522
C19   C     C_R   0.135379 0.493351 0.947351 0.049584
C20   C     C_R   0.218215 0.330384 0.937524 -0.101116
C21   C     C_R   0.255285 0.329115 0.887561 -0.063102
C22   C     C_R   0.236567 0.409191 0.866360 -0.027379
C23   C     C_3   0.486319 0.688967 0.631135 0.301566
C24   C     C_R   0.176569 0.491533 0.896249 -0.079061
C25   C     C_R   0.160557 0.572401 0.875381 -0.033416
C26   C     C_R   0.196840 0.569512 0.824411 0.591511
C27   C     C_R   0.277717 0.408689 0.816008 0.578043
C28   C     C_3   0.169374 0.262198 0.416102 0.347401
C29   C     C_2   0.453072 0.466694 0.730069 -0.090411
C30   C     C_3   0.500986 0.484249 0.679539 -0.025425
C31   C     C_1   0.212407 0.522648 0.658222 0.046448
C32   C     C_2   0.170258 0.517501 0.704477 -0.109821
C33   C     C_2   0.296263 0.487339 0.743217 0.213989
C34   C     C_3   0.477191 0.721296 0.687379 -0.374893
C35   C     C_R   0.129600 0.415597 0.020983 0.023369
C36   C     C_R   0.057423 0.498496 0.049286 0.032426
C37   C     C_R   0.016874 0.578114 0.026101 0.019005
C38   C     C_R   0.168518 0.338799 0.046044 -0.099304
C39   C     C_R   0.899912 0.658273 0.105100 -0.065062
C40   C     C_3   0.128750 0.167498 0.400896 -0.371781
C41   C     C_R   0.077441 0.656843 0.956444 -0.112925
C42   C     C_R   0.115059 0.654791 0.906551 -0.064792
C43   C     C_R   0.919796 0.654908 0.053551 0.048870
C44   C     C_R   0.840583 0.830583 0.464802 -0.021818
C45   C     C_3   0.950900 0.814062 0.347409 0.376217
C46   C     C_R   0.776470 0.924072 0.470319 -0.030641
C47   C     C_R   0.643254 0.111791 0.480564 -0.050988
C48   C     C_R   0.787866 0.077087 0.455666 -0.056293
C49   C     C_R   0.856562 0.986224 0.452664 -0.109910
C50   C     C_R   0.581551 0.206227 0.488794 0.041084
C51   C     C_R   0.444397 0.236779 0.518581 -0.202742
C52   C     C_3   0.974649 0.733149 0.584880 0.309944
C53   C     C_R   0.612587 0.803037 0.509215 0.016230
C54   C     C_R   0.546329 0.895675 0.514167 -0.036888
C55   C     C_R   0.627024 0.956322 0.494009 0.022398
C56   C     C_3   0.966973 0.875666 0.306393 0.131524
C57   C     C_R   0.401916 0.929528 0.539172 -0.051670
C58   C     C_R   0.334540 0.019842 0.542668 -0.106984
C59   C     C_R   0.413531 0.081697 0.524047 -0.047338
C60   C     C_R   0.561215 0.050100 0.499489 0.011918
C61   C     C_R   0.352297 0.174711 0.531705 0.014549
C62   C     C_R   0.754431 0.771198 0.482724 -0.290450
C63   C     C_3   0.942974 0.835465 0.599929 -0.388123
C64   C     C_3   0.547382 0.258218 0.364524 0.235875
C65   C     C_3   0.525600 0.159485 0.351763 -0.401314
C66   C     C_3   0.751446 0.174239 0.612145 -0.277902
C67   C     C_3   0.505829 0.782211 0.374694 0.395867
C68   C     C_3   0.514516 0.097243 0.666421 -0.490989
C69   C     C_3   0.927535 0.718045 0.324450 -0.300958
C70   C     C_3   0.111869 0.836355 0.272559 -0.336666
C71   C     C_3   0.812045 0.887731 0.272371 -0.429573
C72   C     C_3   0.989300 0.971227 0.332254 -0.370900
C73   C     C_3   0.601738 0.561104 0.230961 -0.313072
C74   C     C_3   0.811008 0.727412 0.029096 -0.421035
C75   C     C_3   0.742181 0.449574 0.386553 -0.236200
C76   C     C_3   0.387900 0.335456 0.536380 -0.235031
C77   C     C_3   0.470298 0.878185 0.362292 -0.407574
C78   C     C_R   0.018884 0.426539 0.175321 0.587431
H1    H     H_    0.003741 0.171823 0.384452 0.138068
H2    H     H_    0.572718 0.624357 0.624839 0.042484
H3    H     H_    0.396422 0.787731 0.694438 0.133296
H4    H     H_    0.427675 0.672117 0.706093 0.085047
H5    H     H_    0.599874 0.728458 0.703755 0.127306
H6    H     H_    0.506300 0.224335 0.715737 0.157598
H7    H     H_    0.089287 0.306271 0.733038 0.123880
H8    H     H_    0.840838 0.846545 0.368139 -0.036920
H9    H     H_    0.639028 0.761399 0.377105 -0.096224
H10   H     H_    0.454769 0.783126 0.411906 0.082744
H11   H     H_    0.557724 0.919299 0.382756 0.074036
H12   H     H_    0.847753 0.854610 0.628335 0.132426
H13   H     H_    0.347674 0.910180 0.374296 0.122773
H14   H     H_    0.038949 0.321481 0.646371 0.125475
H15   H     H_    0.477839 0.877858 0.321344 0.118348
H16   H     H_    0.144665 0.457249 0.284799 0.118202
H17   H     H_    0.234219 0.265423 0.950216 0.068040
H18   H     H_    0.228549 0.274415 0.027926 0.067142
H19   H     H_    0.255277 0.289282 0.654663 -0.032349
H20   H     H_    0.111424 0.718527 0.892742 0.120535
H21   H     H_    0.045749 0.539422 0.715399 0.117282
H22   H     H_    0.852705 0.119647 0.439184 0.114550
H23   H     H_    0.902347 0.869603 0.566883 0.066569
H24   H     H_    0.973054 0.965322 0.435947 0.093442
H25   H     H_    0.222184 0.040189 0.561943 0.120799
H26   H     H_    0.002363 0.209296 0.704462 0.134797
H27   H     H_    0.804169 0.699897 0.479067 0.061878
H28   H     H_    0.217179 0.197388 0.718240 0.125427
H29   H     H_    0.687383 0.123900 0.588658 0.055807
H30   H     H_    0.792817 0.216124 0.586975 0.164170
H31   H     H_    0.858068 0.137556 0.630960 0.126582
H32   H     H_    0.212169 0.127756 0.372257 0.098635
H33   H     H_    0.139860 0.131440 0.434046 0.084068
H34   H     H_    0.055869 0.859320 0.616053 0.119387
H35   H     H_    0.860391 0.709414 0.571116 0.010485
H36   H     H_    0.063585 0.716277 0.554629 0.077100
H37   H     H_    0.444395 0.301577 0.383351 0.084321
H38   H     H_    0.636128 0.118466 0.334324 0.123907
H39   H     H_    0.421995 0.153720 0.324509 0.108503
H40   H     H_    0.460974 0.070014 0.696341 0.149085
H41   H     H_    0.417797 0.117058 0.638653 0.159741
H42   H     H_    0.606127 0.042543 0.647692 0.141250
H43   H     H_    0.915897 0.678599 0.354883 0.049995
H44   H     H_    0.814776 0.719231 0.300897 0.099082
H45   H     H_    0.555827 0.284014 0.328560 0.052385
H46   H     H_    0.032937 0.682159 0.302436 0.144085
H47   H     H_    0.224377 0.823966 0.295514 0.174789
H48   H     H_    0.128953 0.884170 0.246715 0.099012
H49   H     H_    0.093362 0.771991 0.248841 0.137047
H50   H     H_    0.705193 0.916975 0.295237 0.103088
H51   H     H_    0.822056 0.934844 0.245365 0.130309
H52   H     H_    0.790220 0.823151 0.249810 0.170920
H53   H     H_    0.094035 0.968822 0.359150 0.121498
H54   H     H_    0.009098 0.014526 0.304215 0.117620
H55   H     H_    0.879631 0.005041 0.352853 0.093942
H56   H     H_    0.701864 0.154825 0.712475 0.126751
H57   H     H_    0.165179 0.281245 0.113327 0.118682
H58   H     H_    0.547182 0.448230 0.757806 0.097021
H59   H     H_    0.299377 0.264472 0.865461 0.116746
H60   H     H_    0.556815 0.634961 0.234743 0.135093
H61   H     H_    0.635826 0.535512 0.191592 0.107069
H62   H     H_    0.502063 0.525941 0.238448 0.109138
H63   H     H_    0.832073 0.718956 0.125584 0.117617
H64   H     H_    0.057215 0.722421 0.979250 0.082817
H65   H     H_    0.863273 0.790922 0.035166 0.115385
H66   H     H_    0.690033 0.742320 0.046078 0.118233
H67   H     H_    0.502419 0.132383 0.386032 0.082638
H68   H     H_    0.787290 0.705307 0.988530 0.129524
H69   H     H_    0.820572 0.385146 0.390646 0.121764
H70   H     H_    0.725320 0.489926 0.424335 0.153420
H71   H     H_    0.624159 0.434487 0.369792 0.099755
H72   H     H_    0.390689 0.500064 0.604722 0.059132
H73   H     H_    0.337375 0.887215 0.556432 0.111981
H74   H     H_    0.469040 0.382361 0.540686 0.159681
H75   H     H_    0.290713 0.363353 0.510659 0.125278
H76   H     H_    0.361211 0.343402 0.576595 0.038771
H77   H     H_    0.293688 0.256074 0.432086 -0.102082
H78   H     H_    0.525885 0.262877 0.631545 -0.024670
H79   H     H_    0.089168 0.298090 0.446013 0.106964
H80   H     H_    0.363381 0.678039 0.616558 0.030199
N1    N     N_R   0.946905 0.506981 0.202740 -0.421145
N2    N     N_R   0.253478 0.488057 0.795065 -0.424076
O1    O     O_2   0.906480 0.548660 0.619050 -0.451491
O2    O     O_2   0.170666 0.823252 0.475223 -0.488025
O3    O     O_3   0.089221 0.808273 0.380410 -0.583943
O4    O     O_3   0.138490 0.548590 0.558870 -0.505656
O5    O     O_3   0.572560 0.389960 0.472890 -0.506305
O6    O     O_2   0.345660 0.723580 0.528500 -0.468177
O7    O     O_3   0.540112 0.755031 0.608269 -0.641379
O8    O     O_2   0.370361 0.558265 0.326333 -0.481121
O9    O     O_3   0.434669 0.723343 0.337604 -0.589404
O10   O     O_2   0.045582 0.357668 0.194796 -0.597296
O11   O     O_2   0.335646 0.337561 0.790913 -0.628363
O12   O     O_3   0.691962 0.265476 0.392060 -0.637746
O13   O     O_2   0.866888 0.657450 0.205504 -0.638870
O14   O     O_2   0.180392 0.639826 0.806399 -0.594998
O15   O     O_3   0.686300 0.382310 0.585700 -0.500977
O16   O     O_2   0.828273 0.445398 0.670937 -0.488955
O17   O     O_3   0.034440 0.693862 0.627258 -0.626010
O18   O     O_3   0.720891 0.301655 0.677490 -0.606482
O19   O     O_2   0.844040 0.276390 0.471470 -0.461173
O20   O     O_3   0.101510 0.335500 0.560330 -0.501641
O21   O     O_2   0.018297 0.175170 0.525028 -0.495830
O22   O     O_3   0.130049 0.189588 0.617833 -0.627702
O23   O     O_2   0.283210 0.451310 0.380920 -0.468437
O24   O     O_3   0.051220 0.451340 0.441120 -0.514863
O25   O     O_3   0.503410 0.617620 0.414290 -0.480050
O26   O     O_3   0.157282 0.305366 0.373149 -0.640468
O27   O     O_3   0.617150 0.609960 0.527100 -0.480480
O28   O     O_3   0.088210 0.664420 0.439670 -0.460000
P1    P     P_3+3 0.071950 0.575820 0.612140 0.989798
P2    P     P_3+3 0.664370 0.290050 0.457240 0.947683
P3    P     P_3+3 0.149396 0.218316 0.558238 0.903872
P4    P     P_3+3 0.117760 0.424110 0.387850 0.975971
P5    P     P_3+3 0.043547 0.782155 0.439230 0.955117
P6    P     P_3+3 0.677255 0.403039 0.651906 0.934727
P7    P     P_3+3 0.530695 0.723933 0.542976 0.940690
P8    P     P_3+3 0.504084 0.612766 0.349162 0.967538

loop_
_geom_bond_atom_site_label_1
_geom_bond_atom_site_label_2
_ccdc_geom_bond_type
C63   H12   S    
C53   C54   A    
C71   H51   S    
O15   P6    S    
C28   H77   S    
C51   C61   A    
C63   H34   S    
Ba1   Ba2   S    
Ba2   O27   S    
O23   P4    D    
C30   P6    S    
C76   H76   S    
C75   H71   S    
Ba2   O24   S    
C57   H73   S    
O2    P5    D    
C26   N2    Am   
C70   H49   S    
C52   C63   S    
Ba1   O24   S    
C54   C55   A    
O5    P2    S    
C24   C25   A    
C70   H48   S    
C43   C74   S    
C21   H59   S    
C17   C19   A    
C22   C24   A    
C39   H63   S    
O9    P8    S    
C73   H60   S    
C38   H18   S    
C36   C37   A    
C45   O3    S    
O19   P2    D    
C76   H75   S    
Ba1   O5    S    
C34   H3    S    
O27   P7    S    
O22   P3    S    
C72   H53   S    
C10   C78   A    
O4    P1    S    
C52   O17   S    
C14   C75   S    
C50   P2    S    
C59   C61   A    
C40   H32   S    
C22   C27   A    
C11   C38   A    
C73   H61   S    
C44   P5    S    
Ba2   O25   S    
Ba1   O15   S    
C25   C42   A    
C46   C49   A    
C68   H40   S    
C6    C7    D    
C4    H14   S    
C2    O13   D    
C52   H36   S    
C21   C22   A    
C61   P3    S    
C69   H46   S    
C6    P4    S    
C17   C35   A    
C7    C8    S    
Ba2   O4    S    
C77   H11   S    
O18   P6    S    
C37   C43   A    
C64   C65   S    
C71   H52   S    
O26   P4    S    
C57   C58   A    
C6    C14   D    
C20   H17   S    
C53   C62   A    
C1    H6    S    
C41   H64   S    
C40   H1    S    
C15   C31   D    
C32   C33   S    
C67   H9    S    
O3    P5    S    
C19   C24   A    
C69   H43   S    
C28   H79   S    
C4    C16   S    
C44   C46   A    
C33   N2    S    
O6    P7    D    
C70   H47   S    
C32   H21   S    
C69   H44   S    
C46   C55   A    
C1    C68   S    
C13   C39   A    
C75   H69   S    
C3    C5    S    
C18   C37   A    
Ba1   O19   S    
C76   H74   S    
O25   P8    S    
C55   C60   A    
C49   H24   S    
O16   P6    D    
C64   H37   S    
C72   H55   S    
C74   H68   S    
C4    O22   S    
C58   C59   A    
Ba2   P4    S    
C66   H31   S    
C28   O26   S    
C3    C73   S    
C9    C36   A    
C41   C42   A    
C16   H26   S    
C77   H15   S    
C35   C36   A    
C73   H62   S    
O12   P2    S    
C68   H42   S    
C40   H33   S    
C29   C30   S    
C9    C10   A    
C47   C50   A    
C52   H35   S    
C17   C20   A    
C23   H80   S    
C31   C32   D    
C64   O12   S    
C48   C49   A    
O20   P3    S    
C66   H30   S    
C18   C19   A    
C29   H58   S    
C7    H16   S    
C45   C69   S    
C1    C12   S    
O28   P5    S    
Ba1   P1    S    
C5    C14   S    
C12   H78   S    
C74   H65   S    
C48   H22   S    
C8    N1    S    
C9    C13   A    
C65   H67   S    
C23   H2    S    
C29   C33   D    
C67   C77   S    
C15   H72   S    
C63   H23   S    
C67   H10   S    
Ba2   O6    S    
O8    P8    D    
C18   C41   A    
C50   C51   A    
C56   C72   S    
C62   H27   S    
O7    P7    S    
C23   O7    S    
C71   H50   S    
C39   C43   A    
C47   C60   A    
C2    N1    Am   
C27   N2    Am   
O24   P4    S    
C26   O14   D    
Ba2   O28   S    
C27   O11   D    
C75   H70   S    
Ba1   O20   S    
C54   C57   A    
C77   H13   S    
C34   H5    S    
C35   C38   A    
C16   H7    S    
C64   H45   S    
C31   P1    S    
C4    H19   S    
C78   O10   D    
C2    C13   A    
C34   H4    S    
C51   C76   S    
Ba2   O23   S    
C3    C8    D    
C45   H8    S    
C45   C56   S    
C42   H20   S    
C68   H41   S    
C56   C70   S    
C53   P7    S    
Ba1   O4    S    
C5    P8    S    
C72   H54   S    
O21   P3    D    
C66   H29   S    
C67   O9    S    
C59   C60   A    
C65   H38   S    
C16   H28   S    
C78   N1    Am   
C23   C34   S    
C74   H66   S    
Ba1   P2    S    
O17   P1    S    
C10   C11   A    
Ba1   O1    S    
C47   C48   A    
C44   C62   A    
C25   C26   A    
C15   C30   S    
C12   C66   S    
C20   C21   A    
C28   C40   S    
O1    P1    D    
C1    H56   S    
C65   H39   S    
Ba2   O5    S    
C12   O18   S    
C58   H25   S    
C56   C71   S    
C11   H57   S    
Ba1   O27   S    
