data_mof_unit_20966.cif
_audit_creation_date              2012-10-26T20:46:45-0400
_audit_creation_method            fapswitch 2.2
_symmetry_space_group_name_H-M    P1
_symmetry_Int_Tables_number       1
_space_group_crystal_system       triclinic
_cell_length_a                    15.148873
_cell_length_b                    13.801479
_cell_length_c                    10.925096
_cell_angle_alpha                 90.32606
_cell_angle_beta                  90.24528
_cell_angle_gamma                 90.817376
_cell_volume                      2283.89353804

loop_
_atom_site_label
_atom_site_type_symbol
_atom_type_description
_atom_site_fract_x
_atom_site_fract_y
_atom_site_fract_z
_atom_type_partial_charge
C1    C     C_R   0.329538 0.499317 0.501025 0.561034
C2    C     C_R   0.447953 0.889715 0.406330 0.187397
C3    C     C_R   0.539891 0.896801 0.589062 0.210862
C4    C     C_R   0.452557 0.786659 0.411388 0.012752
C5    C     C_R   0.541736 0.794243 0.589376 -0.001369
C6    C     C_R   0.492976 0.944906 0.496761 0.103448
C7    C     C_R   0.494434 0.499376 0.265226 0.564152
C8    C     C_R   0.508418 0.500299 0.734196 0.563365
C9    C     C_2   0.518777 0.420137 0.931963 0.230234
C10   C     C_2   0.500554 0.418686 0.065737 0.224279
C11   C     C_2   0.527118 0.502173 0.865019 0.244725
C12   C     C_R   0.670133 0.500398 0.498173 0.566029
C13   C     C_2   0.481772 0.498867 0.133276 0.232286
C14   C     C_R   0.091261 0.574877 0.479756 0.237906
C15   C     C_R   0.906870 0.550426 0.582387 0.250364
C16   C     C_R   0.183255 0.581900 0.491631 0.243712
C17   C     C_R   0.816575 0.566893 0.565203 0.254075
C18   C     C_R   0.232539 0.496700 0.502859 -0.073945
C19   C     C_R   0.766494 0.499418 0.496648 -0.073675
C20   C     C_R   0.188582 0.407414 0.518540 -0.212871
C21   C     C_R   0.808701 0.426018 0.430870 -0.200936
C22   C     C_R   0.096356 0.402194 0.526394 0.236672
C23   C     C_R   0.047473 0.485766 0.501821 0.031229
C24   C     C_R   0.900578 0.421025 0.429756 0.237083
C25   C     C_3   0.615788 0.298043 0.891276 0.024148
C26   C     C_3   0.671007 0.317582 0.776541 -0.249015
C27   C     C_3   0.768178 0.295192 0.797286 -0.511012
C28   C     C_3   0.422441 0.277384 0.099072 0.021528
C29   C     C_3   0.356615 0.292773 0.203433 -0.260969
C30   C     C_3   0.269122 0.240122 0.178662 -0.514277
C31   C     C_3   0.649114 0.595795 0.914972 0.020459
C32   C     C_3   0.684910 0.579647 0.044528 -0.259727
C33   C     C_3   0.784587 0.595051 0.050235 -0.495759
C34   C     C_R   0.950316 0.483351 0.506682 0.035021
C35   C     C_3   0.361122 0.575870 0.058780 0.001965
C36   C     C_3   0.333322 0.663708 0.984293 -0.229305
C37   C     C_3   0.234079 0.663619 0.962163 -0.508124
C38   C     C_3   0.036064 0.668869 0.328054 0.007740
C39   C     C_3   0.009058 0.772796 0.301147 -0.251595
C40   C     C_3   0.996116 0.788924 0.164248 -0.496097
C41   C     C_3   0.965724 0.544263 0.773370 0.013004
C42   C     C_3   0.002269 0.606333 0.878397 -0.252765
C43   C     C_3   0.025749 0.544056 0.988465 -0.506791
C44   C     C_3   0.204875 0.724437 0.597017 0.015025
C45   C     C_R   0.419321 0.106891 0.524432 0.226805
C46   C     C_3   0.284689 0.785224 0.636394 -0.368188
C47   C     C_3   0.807634 0.732737 0.575929 0.008292
C48   C     C_3   0.764623 0.756570 0.453065 -0.402976
C49   C     C_3   0.083705 0.275425 0.662282 -0.016268
C50   C     C_3   0.016272 0.201905 0.708697 -0.370599
C51   C     C_3   0.953830 0.383808 0.241540 -0.008247
C52   C     C_3   0.995580 0.304137 0.165433 -0.367715
C53   C     C_3   0.272872 0.088545 0.474848 0.019219
C54   C     C_3   0.195354 0.016776 0.480983 -0.254377
C55   C     C_3   0.117956 0.050526 0.402862 -0.490266
C56   C     C_R   0.571712 0.106670 0.457169 0.212788
C57   C     C_3   0.641876 0.014166 0.308547 -0.002620
C58   C     C_3   0.608561 0.078953 0.204067 -0.268541
C59   C     C_3   0.609499 0.024595 0.082160 -0.475709
C60   C     C_3   0.381132 0.887029 0.211568 -0.030906
C61   C     C_3   0.346595 0.955285 0.114327 -0.379623
C62   C     C_3   0.668805 0.936366 0.689757 -0.002969
C63   C     C_3   0.713627 0.026731 0.742291 -0.361206
C64   C     C_R   0.425361 0.209256 0.533297 0.012876
C65   C     C_R   0.572024 0.208746 0.462063 0.036303
C66   C     C_R   0.494729 0.053987 0.492009 0.116331
Cu1   Cu    Cu3+1 0.500000 0.596430 0.500000 0.948000
Cu2   Cu    Cu3+1 0.500000 0.403570 0.500000 0.921260
H1    H     H_    0.417062 0.741521 0.346400 0.155691
H2    H     H_    0.666509 0.394730 0.750350 0.166231
H3    H     H_    0.796534 0.343724 0.869291 0.133287
H4    H     H_    0.804984 0.307555 0.710949 0.162493
H5    H     H_    0.776134 0.218664 0.825427 0.140357
H6    H     H_    0.390748 0.296020 0.009969 0.148240
H7    H     H_    0.437705 0.199052 0.093467 0.147758
H8    H     H_    0.385265 0.265342 0.289965 0.191625
H9    H     H_    0.343179 0.371199 0.214592 0.152265
H10   H     H_    0.236741 0.270118 0.095991 0.141828
H11   H     H_    0.224621 0.249823 0.258201 0.147662
H12   H     H_    0.576209 0.756923 0.661622 0.156558
H13   H     H_    0.280010 0.161569 0.164768 0.141805
H14   H     H_    0.667978 0.670217 0.885699 0.168222
H15   H     H_    0.681233 0.545445 0.849030 0.114952
H16   H     H_    0.653040 0.630704 0.109226 0.195143
H17   H     H_    0.669472 0.504441 0.073769 0.141344
H18   H     H_    0.817011 0.542543 0.988480 0.144074
H19   H     H_    0.808537 0.583263 0.145176 0.133729
H20   H     H_    0.802491 0.670028 0.022349 0.146942
H21   H     H_    0.324383 0.574801 0.146940 0.123645
H22   H     H_    0.344345 0.509084 0.004992 0.100581
H23   H     H_    0.226008 0.341732 0.527802 0.125549
H24   H     H_    0.352779 0.731029 0.034027 0.163796
H25   H     H_    0.367821 0.663180 0.894656 0.193416
H26   H     H_    0.213924 0.598074 0.909040 0.144791
H27   H     H_    0.215986 0.728918 0.909338 0.135137
H28   H     H_    0.198479 0.664982 0.050778 0.143988
H29   H     H_    0.984118 0.618248 0.292355 0.109446
H30   H     H_    0.099558 0.655078 0.279762 0.133577
H31   H     H_    0.946506 0.788824 0.349366 0.160185
H32   H     H_    0.061164 0.823533 0.335811 0.171527
H33   H     H_    0.058575 0.775693 0.114346 0.145151
H34   H     H_    0.770429 0.374088 0.377126 0.147414
H35   H     H_    0.976170 0.864914 0.148188 0.143390
H36   H     H_    0.943532 0.739620 0.128039 0.143755
H37   H     H_    0.014041 0.486746 0.751940 0.127025
H38   H     H_    0.902477 0.509705 0.803555 0.124026
H39   H     H_    0.062128 0.646237 0.847211 0.166425
H40   H     H_    0.952270 0.660330 0.905808 0.167309
H41   H     H_    0.966956 0.502546 0.019608 0.134570
H42   H     H_    0.049346 0.590888 0.064910 0.134507
H43   H     H_    0.078694 0.492587 0.964281 0.139995
H44   H     H_    0.186464 0.677341 0.676095 0.116470
H45   H     H_    0.369504 0.249171 0.566247 0.133572
H46   H     H_    0.149311 0.773946 0.578003 0.174169
H47   H     H_    0.304803 0.834623 0.561681 0.185462
H48   H     H_    0.268049 0.829375 0.718151 0.095622
H49   H     H_    0.340570 0.737444 0.659778 0.182179
H50   H     H_    0.880572 0.736471 0.565845 0.193704
H51   H     H_    0.791699 0.790336 0.642616 0.114657
H52   H     H_    0.787301 0.829364 0.422633 0.083799
H53   H     H_    0.783277 0.702500 0.382448 0.141029
H54   H     H_    0.691896 0.757151 0.461626 0.178590
H55   H     H_    0.093842 0.331646 0.734956 0.104961
H56   H     H_    0.630812 0.247738 0.434067 0.155645
H57   H     H_    0.146552 0.236920 0.646555 0.124883
H58   H     H_    0.004886 0.144069 0.639063 0.163145
H59   H     H_    0.040787 0.168489 0.794356 0.087166
H60   H     H_    0.952988 0.238304 0.727988 0.151592
H61   H     H_    0.999508 0.447701 0.241935 0.111348
H62   H     H_    0.890038 0.403531 0.197657 0.112541
H63   H     H_    0.951326 0.239300 0.162545 0.155991
H64   H     H_    0.006683 0.329662 0.070492 0.080981
H65   H     H_    0.059948 0.283845 0.206224 0.161905
H66   H     H_    0.294994 0.092806 0.377740 0.165091
H67   H     H_    0.612794 0.218600 0.905807 0.152810
H68   H     H_    0.249345 0.160727 0.504696 0.104875
H69   H     H_    0.216601 0.944803 0.447019 0.187678
H70   H     H_    0.173451 0.009278 0.577497 0.162549
H71   H     H_    0.095932 0.123082 0.433677 0.191613
H72   H     H_    0.061810 0.998493 0.411571 0.140226
H73   H     H_    0.137486 0.054373 0.305076 0.143387
H74   H     H_    0.601106 0.947347 0.315000 0.132710
H75   H     H_    0.708972 0.989325 0.283943 0.149836
H76   H     H_    0.539611 0.101179 0.222048 0.172607
H77   H     H_    0.650978 0.145087 0.197589 0.173143
H78   H     H_    0.649743 0.329483 0.973739 0.129629
H79   H     H_    0.678271 0.006550 0.056788 0.136475
H80   H     H_    0.580541 0.070437 0.009716 0.155160
H81   H     H_    0.569554 0.956697 0.088094 0.161628
H82   H     H_    0.328753 0.831544 0.228933 0.140736
H83   H     H_    0.441838 0.852493 0.175473 0.133573
H84   H     H_    0.395362 0.014590 0.097926 0.154713
H85   H     H_    0.334989 0.914996 0.027344 0.107575
H86   H     H_    0.283281 0.986754 0.144848 0.141836
H87   H     H_    0.698598 0.922869 0.598105 0.146667
H88   H     H_    0.682088 0.874456 0.751445 0.121855
H89   H     H_    0.645001 0.272517 0.699563 0.191992
H90   H     H_    0.686301 0.043862 0.833711 0.143699
H91   H     H_    0.785713 0.014910 0.751285 0.084959
H92   H     H_    0.702665 0.089131 0.680593 0.184164
N1    N     N_R   0.500000 0.258690 0.500000 -0.284918
N2    N     N_R   0.500000 0.741330 0.500000 -0.292870
O1    O     O_R   0.371460 0.581430 0.500010 -0.452295
O2    O     O_3   0.502899 0.328684 0.122204 -0.574754
O3    O     O_3   0.555735 0.589710 0.915092 -0.551809
O4    O     O_3   0.452515 0.584013 0.082124 -0.549859
O5    O     O_3   0.043999 0.657737 0.455957 -0.554469
O6    O     O_3   0.952758 0.603593 0.670228 -0.549902
O7    O     O_3   0.225154 0.671843 0.489033 -0.538664
O8    O     O_3   0.775680 0.643423 0.623588 -0.552831
O9    O     O_3   0.052476 0.315593 0.551714 -0.512265
O10   O     O_3   0.940657 0.349604 0.361492 -0.500238
O11   O     O_3   0.341692 0.057488 0.552801 -0.567037
O12   O     O_R   0.628540 0.581430 0.499990 -0.466037
O13   O     O_3   0.649504 0.062030 0.423565 -0.598295
O14   O     O_3   0.399334 0.940473 0.319438 -0.578779
O15   O     O_3   0.576986 0.951367 0.683404 -0.555063
O16   O     O_R   0.371470 0.418560 0.500010 -0.539632
O17   O     O_R   0.628530 0.418560 0.499990 -0.535684
O18   O     O_R   0.500000 0.581410 0.321940 -0.500118
O19   O     O_R   0.500000 0.581410 0.678060 -0.494928
O20   O     O_R   0.500010 0.418540 0.321940 -0.478081
O21   O     O_R   0.499990 0.418540 0.678060 -0.469973
O22   O     O_3   0.528016 0.330637 0.874717 -0.565425

loop_
_geom_bond_atom_site_label_1
_geom_bond_atom_site_label_2
_ccdc_geom_bond_type
C8    O19   A    
Cu2   O21   S    
C55   H73   S    
C41   C42   S    
C35   C36   S    
C63   H91   S    
C38   H30   S    
C3    C6    A    
C28   H6    S    
C61   H86   S    
C62   O15   S    
C57   C58   S    
C58   H77   S    
C53   O11   S    
C48   H52   S    
C29   H8    S    
C53   C54   S    
Cu2   O20   S    
C26   C27   S    
C29   C30   S    
C31   H14   S    
C41   H37   S    
C46   H47   S    
C28   C29   S    
C19   C21   A    
C33   H20   S    
Cu1   O18   S    
C48   H54   S    
C38   C39   S    
C54   H69   S    
Cu1   O12   S    
C56   C65   A    
C49   H55   S    
C41   O6    S    
C35   O4    S    
C55   H71   S    
C62   H87   S    
C37   H27   S    
C26   H89   S    
C65   H56   S    
C44   O7    S    
Cu1   O19   S    
C2    O14   S    
C40   H33   S    
C57   O13   S    
C36   H25   S    
C47   H50   S    
C31   O3    S    
C7    O18   A    
C25   H78   S    
C50   H58   S    
C43   H42   S    
C9    C10   S    
C15   C34   A    
C18   C20   A    
C22   O9    S    
C25   O22   S    
C59   H80   S    
C36   H24   S    
C60   O14   S    
C47   H51   S    
C44   H46   S    
C3    O15   S    
C52   H65   S    
C2    C6    A    
C53   H68   S    
C43   H43   S    
C63   H92   S    
C38   H29   S    
C25   H67   S    
C16   O7    S    
C4    H1    S    
C51   H62   S    
C44   C46   S    
C59   H81   S    
C51   H61   S    
C38   O5    S    
C32   H16   S    
C20   H23   S    
C41   H38   S    
C57   H75   S    
C56   O13   S    
Cu1   O1    S    
Cu1   Cu2   S    
C52   H64   S    
C48   H53   S    
C49   O9    S    
C17   O8    S    
C51   O10   S    
C25   C26   S    
Cu2   N1    S    
C24   C34   A    
C55   H72   S    
C51   C52   S    
C46   H49   S    
C60   C61   S    
C60   H83   S    
C14   C23   A    
C2    C4    A    
C33   H18   S    
C62   C63   S    
C45   O11   S    
C40   H36   S    
C1    O16   A    
C39   H31   S    
C47   C48   S    
C7    C13   S    
C23   C34   S    
C1    C18   S    
C31   H15   S    
C60   H82   S    
C5    H12   S    
C9    C11   D    
C1    O1    A    
C21   H34   S    
C44   H44   S    
C8    O21   A    
C20   C22   A    
C26   H2    S    
C4    N2    A    
C15   O6    S    
C50   H60   S    
C42   C43   S    
C30   H11   S    
C35   H21   S    
C39   C40   S    
C47   O8    S    
C27   H3    S    
C28   O2    S    
C12   O12   A    
C42   H39   S    
C15   C17   A    
C54   C55   S    
C36   C37   S    
C10   O2    S    
C64   H45   S    
C45   C64   A    
C7    O20   A    
C57   H74   S    
C52   H63   S    
C31   C32   S    
C53   H66   S    
C64   N1    A    
C3    C5    A    
C10   C13   D    
C61   H85   S    
C49   H57   S    
Cu2   O17   S    
C46   H48   S    
C5    N2    A    
C30   H13   S    
C58   C59   S    
C9    O22   S    
C32   C33   S    
C40   H35   S    
Cu1   N2    S    
C39   H32   S    
C54   H70   S    
C13   O4    S    
C8    C11   S    
C56   C66   A    
C32   H17   S    
C12   C19   S    
Cu2   O16   S    
C17   C19   A    
C62   H88   S    
C37   H26   S    
C14   C16   A    
C33   H19   S    
C24   O10   S    
C61   H84   S    
C30   H10   S    
C35   H22   S    
C58   H76   S    
C6    C66   S    
C12   O17   A    
C29   H9    S    
C37   H28   S    
C16   C18   A    
C49   C50   S    
C21   C24   A    
C65   N1    A    
C45   C66   A    
C11   O3    S    
C22   C23   A    
C50   H59   S    
C43   H41   S    
C63   H90   S    
C14   O5    S    
C27   H5    S    
C28   H7    S    
C42   H40   S    
C27   H4    S    
C59   H79   S    
