data_mof_unit_18788.cif
_audit_creation_date              2012-10-26T18:29:55-0400
_audit_creation_method            fapswitch 2.2
_symmetry_space_group_name_H-M    P1
_symmetry_Int_Tables_number       1
_space_group_crystal_system       triclinic
_cell_length_a                    10.830147
_cell_length_b                    12.9742
_cell_length_c                    11.813978
_cell_angle_alpha                 99.415409
_cell_angle_beta                  93.531867
_cell_angle_gamma                 92.821879
_cell_volume                      1631.56997334

loop_
_atom_site_label
_atom_site_type_symbol
_atom_type_description
_atom_site_fract_x
_atom_site_fract_y
_atom_site_fract_z
_atom_type_partial_charge
C1    C     C_R   0.498841 0.299822 0.478957 0.558496
C2    C     C_R   0.557510 0.030318 0.540358 0.068851
C3    C     C_R   0.469301 0.970452 0.456839 0.038473
C4    C     C_R   0.260792 0.495026 0.499646 0.532091
C5    C     C_R   0.451508 0.862583 0.453649 -0.099187
C6    C     C_R   0.605094 0.870203 0.611692 -0.097860
C7    C     C_R   0.626079 0.977662 0.617792 0.088992
C8    C     C_R   0.385076 0.392908 0.025752 0.073340
C9    C     C_R   0.397257 0.405580 0.146853 0.008147
C10   C     C_R   0.544942 0.547562 0.155522 0.364923
C11   C     C_R   0.536036 0.538546 0.033800 -0.069191
C12   C     C_3   0.879883 0.499365 0.497920 0.091469
C13   C     C_R   0.457182 0.459648 0.966766 0.045530
C14   C     C_R   0.454967 0.449407 0.843723 0.229665
C15   C     C_R   0.597268 0.596696 0.858263 0.393507
C16   C     C_R   0.504880 0.700299 0.520806 0.551144
C17   C     C_R   0.605372 0.606420 0.977819 -0.101899
C18   C     C_R   0.740386 0.499101 0.499535 0.615506
C19   C     C_3   0.078495 0.456342 0.606961 -0.223122
C20   C     C_3   0.936637 0.449516 0.603067 0.094371
C21   C     C_3   0.085246 0.611310 0.493145 0.213581
C22   C     C_3   0.062756 0.416577 0.391611 -0.024121
C23   C     C_3   0.939410 0.615843 0.505332 0.315750
C24   C     C_3   0.123787 0.495432 0.498455 0.014743
C25   C     C_3   0.917405 0.427442 0.381946 0.168326
C26   C     C_R   0.518353 0.813197 0.530977 -0.021811
C27   C     C_R   0.496169 0.186655 0.467668 0.018100
C28   C     C_R   0.399670 0.018870 0.377653 0.096475
C29   C     C_R   0.413406 0.126906 0.384691 -0.139350
C30   C     C_R   0.572013 0.139858 0.542787 0.087398
Cl1   Cl    Cl    0.687766 0.687622 0.802107 -0.481640
Cl2   Cl    Cl    0.645706 0.646246 0.236964 -0.605279
Cl3   Cl    Cl    0.892225 0.495154 0.746401 -0.489523
Cl4   Cl    Cl    0.908194 0.696889 0.639012 -0.503302
Cu1   Cu    Cu3+1 0.509350 0.507730 0.615930 1.053048
Cu2   Cu    Cu3+1 0.490650 0.492270 0.384070 1.011940
H1    H     H_    0.118655 0.506502 0.687014 0.185037
H2    H     H_    0.794161 0.459346 0.249701 0.304681
H3    H     H_    0.933579 0.441463 0.209916 0.207638
H4    H     H_    0.123408 0.721392 0.386952 0.257666
H5    H     H_    0.062503 0.606597 0.312818 0.271387
H6    H     H_    0.789195 0.679828 0.434453 0.290710
H7    H     H_    0.921937 0.742820 0.421873 0.257493
H8    H     H_    0.260788 0.007175 0.248398 0.234782
H9    H     H_    0.364879 0.915545 0.230631 0.245440
H10   H     H_    0.691865 0.018391 0.783893 0.252754
H11   H     H_    0.802199 0.997289 0.688669 0.265463
H12   H     H_    0.384962 0.815820 0.391336 0.171479
H13   H     H_    0.752225 0.180811 0.600810 0.260481
H14   H     H_    0.645294 0.206045 0.703334 0.270894
H15   H     H_    0.447425 0.302404 0.750770 0.255406
H16   H     H_    0.330542 0.379057 0.711150 0.265614
H17   H     H_    0.321847 0.241363 0.985919 0.228598
H18   H     H_    0.210134 0.328381 0.994653 0.235297
H19   H     H_    0.153220 0.664162 0.665781 0.270627
H20   H     H_    0.246468 0.698162 0.567704 0.242064
H21   H     H_    0.071111 0.262586 0.316230 0.227375
H22   H     H_    0.190990 0.305121 0.408365 0.227428
H23   H     H_    0.660624 0.831008 0.668293 0.216841
H24   H     H_    0.859568 0.283233 0.282903 0.238408
H25   H     H_    0.875396 0.277401 0.423821 0.246393
H26   H     H_    0.357099 0.165146 0.326767 0.108525
H27   H     H_    0.112369 0.377608 0.612644 0.138870
H28   H     H_    0.666865 0.668720 0.025818 0.206582
H29   H     H_    0.342471 0.354610 0.190894 0.115793
H30   H     H_    0.904911 0.365857 0.590841 0.141445
H31   H     H_    0.103197 0.436955 0.313251 0.161210
N1    N     N_R   0.523430 0.519360 0.790130 -0.224945
N2    N     N_3   0.297621 0.313392 0.965165 -0.590053
N3    N     N_3   0.153796 0.687582 0.585584 -0.544683
N4    N     N_3   0.094913 0.308240 0.396807 -0.671425
N5    N     N_3   0.847053 0.324506 0.364769 -0.615294
N6    N     N_R   0.476570 0.480640 0.209880 -0.233584
N7    N     N_3   0.886658 0.476375 0.279650 -0.567187
N8    N     N_3   0.121961 0.640199 0.383108 -0.602688
N9    N     N_3   0.880754 0.667310 0.415638 -0.540237
N10   N     N_3   0.313190 0.958300 0.291848 -0.624675
N11   N     N_3   0.717469 0.030776 0.703031 -0.650729
N12   N     N_3   0.663935 0.205884 0.617588 -0.589418
N13   N     N_3   0.386822 0.359998 0.777908 -0.564743
O1    O     O_R   0.506640 0.354460 0.582000 -0.506404
O2    O     O_R   0.490840 0.341410 0.386200 -0.525539
O3    O     O_R   0.325590 0.506510 0.597900 -0.553790
O4    O     O_R   0.309790 0.493450 0.402100 -0.501608
O5    O     O_R   0.509160 0.658590 0.613800 -0.466325
O6    O     O_R   0.493360 0.645540 0.418000 -0.448100
O7    O     O_R   0.690210 0.506550 0.597900 -0.390061
O8    O     O_R   0.674410 0.493490 0.402100 -0.468474

loop_
_geom_bond_atom_site_label_1
_geom_bond_atom_site_label_2
_ccdc_geom_bond_type
C8    C13   A    
C27   C29   A    
C11   C13   A    
Cu1   Cu2   S    
C23   N9    S    
H17   N2    S    
H14   N12   S    
Cu1   O1    S    
Cu2   O8    S    
H18   N2    S    
C12   C23   S    
C8    N2    S    
C20   H30   S    
H8    N10   S    
C17   H28   S    
C4    C24   S    
C10   N6    A    
H22   N4    S    
H24   N5    S    
C1    O1    A    
C25   N7    S    
H3    N7    S    
H15   N13   S    
C19   H1    S    
C2    C7    A    
Cu1   O7    S    
C11   C17   A    
C19   C20   S    
Cu2   O2    S    
C8    C9    A    
C22   C25   S    
C14   N13   S    
C13   C14   A    
C27   C30   A    
C16   O6    A    
C9    N6    A    
C16   C26   S    
C5    H12   S    
C21   N3    S    
Cu2   N6    S    
C19   H27   S    
H10   N11   S    
Cu1   O3    S    
Cu2   O6    S    
C1    O2    A    
C18   O8    A    
H13   N12   S    
H5    N8    S    
C4    O4    A    
C23   Cl4   S    
C12   C20   S    
C25   N5    S    
H21   N4    S    
C28   N10   S    
C7    N11   S    
C30   N12   S    
H25   N5    S    
H20   N3    S    
C21   C23   S    
C16   O5    A    
C22   C24   S    
C3    C28   A    
C20   Cl3   S    
C22   N4    S    
H2    N7    S    
H7    N9    S    
C15   C17   A    
C29   H26   S    
C28   C29   A    
C6    H23   S    
C3    C5    A    
C15   Cl1   S    
C6    C7    A    
C21   N8    S    
H6    N9    S    
C18   O7    A    
H4    N8    S    
C12   C25   S    
C2    C30   A    
C2    C3    A    
Cu1   O5    S    
C6    C26   A    
C4    O3    A    
Cu1   N1    S    
Cu2   O4    S    
C15   N1    A    
C19   C24   S    
C9    H29   S    
C22   H31   S    
H19   N3    S    
C10   C11   A    
C5    C26   A    
C10   Cl2   S    
C21   C24   S    
C12   C18   S    
C1    C27   S    
C14   N1    A    
H9    N10   S    
H11   N11   S    
H16   N13   S    
