data_mof_unit_28097.cif
_audit_creation_date              2012-12-11T14:06:48-0500
_audit_creation_method            fapswitch 2.2
_symmetry_space_group_name_H-M    P1
_symmetry_Int_Tables_number       1
_space_group_crystal_system       triclinic
_cell_length_a                    6.91735
_cell_length_b                    17.348571
_cell_length_c                    24.114332
_cell_angle_alpha                 104.451986
_cell_angle_beta                  90.339967
_cell_angle_gamma                 89.979264
_cell_volume                      2802.24632905

loop_
_atom_site_label
_atom_site_type_symbol
_atom_type_description
_atom_site_fract_x
_atom_site_fract_y
_atom_site_fract_z
_atom_type_partial_charge
O1    O     O_R   0.494290 0.391990 0.999150 -0.504708
O2    O     O_R   0.827170 0.534410 0.082350 -0.554503
O3    O     O_R   0.994360 0.608010 0.000850 -0.505253
C1    C     C_R   0.658450 0.550157 0.106160 0.725978
O4    O     O_R   0.824210 0.388010 0.004470 -0.543429
O5    O     O_R   0.991370 0.460560 0.922410 -0.510267
C2    C     C_R   0.654533 0.354625 0.999960 0.813925
O6    O     O_R   0.497270 0.539440 0.077590 -0.554323
O7    O     O_3   0.659770 0.523970 0.973170 -0.338820
V1    V     V_3+5 0.935840 0.495550 0.004980 1.619959
O8    O     O_R   0.320910 0.465590 0.917650 -0.506847
C3    C     C_R   0.151474 0.449606 0.893920 0.815455
O9    O     O_R   0.323870 0.611990 0.995530 -0.541596
C4    C     C_R   0.154072 0.645149 0.998565 0.795657
V2    V     V_3+5 0.435470 0.504450 0.995020 1.661037
O10   O     O_3   0.161670 0.476030 0.026830 -0.384775
C5    C     C_2   0.141080 0.730221 0.998148 -0.423706
H1    H     H_    0.275619 0.760842 0.994513 0.138805
C6    C     C_2   0.970909 0.770202 0.002282 0.447633
C7    C     C_R   0.094433 0.245274 0.626569 0.611962
N1    N     N_R   0.097182 0.325881 0.648994 -0.532193
C8    C     C_R   0.081666 0.377529 0.614483 0.598461
C9    C     C_R   0.061329 0.348552 0.554128 -0.084881
C10   C     C_R   0.057716 0.264904 0.530687 -0.008563
C11   C     C_R   0.074677 0.213294 0.567209 -0.036235
C12   C     C_R   0.043408 0.399355 0.516296 -0.070541
C13   C     C_R   0.022314 0.366817 0.457404 -0.169649
C14   C     C_R   0.019524 0.284233 0.434181 -0.037168
C15   C     C_R   0.037307 0.232619 0.470662 -0.014139
C16   C     C_R   0.034996 0.148987 0.447164 -0.096399
C17   C     C_R   0.051376 0.098179 0.485045 -0.073193
C18   C     C_R   0.071059 0.130707 0.543997 -0.171032
C19   C     C_R   0.000260 0.252308 0.374821 0.610861
N2    N     N_R   0.001239 0.171706 0.352206 -0.529017
C20   C     C_R   0.018109 0.120038 0.386700 0.722853
O11   O     O_2   0.111638 0.196052 0.661720 -0.500599
O12   O     O_2   0.083854 0.456426 0.638852 -0.497936
H2    H     H_    0.008840 0.406824 0.429456 0.180290
O13   O     O_2   0.980444 0.301622 0.339819 -0.508181
O14   O     O_2   0.021392 0.041185 0.362226 -0.447530
H3    H     H_    0.083455 0.090702 0.571977 0.176115
C21   C     C_R   0.830604 0.097733 0.264355 0.619996
C22   C     C_R   0.822715 0.068454 0.204701 0.523814
C23   C     C_R   0.975990 0.082415 0.169820 -0.317302
C24   C     C_R   0.138123 0.127035 0.197021 -0.156162
C25   C     C_R   0.144596 0.155093 0.256762 -0.157525
H4    H     H_    0.268807 0.188844 0.277269 0.187997
C26   C     C_R   0.991866 0.140977 0.290732 0.157898
C27   C     C_R   0.280477 0.395781 0.735233 -0.159160
H5    H     H_    0.401076 0.402567 0.708403 0.171605
C28   C     C_R   0.294571 0.425920 0.794716 0.564638
C29   C     C_R   0.138768 0.417839 0.830518 -0.336760
C30   C     C_R   0.969634 0.378401 0.804840 0.574688
C31   C     C_R   0.957214 0.348491 0.745448 -0.149544
H6    H     H_    0.826393 0.318542 0.726589 0.172052
C32   C     C_R   0.111977 0.356922 0.710275 0.197484
C33   C     C_R   0.493045 0.879386 0.612123 0.615695
N3    N     N_R   0.493367 0.828511 0.647565 -0.561551
C34   C     C_R   0.512475 0.747892 0.625552 0.591351
C35   C     C_R   0.534666 0.715813 0.566082 -0.006552
C36   C     C_R   0.536428 0.767492 0.529325 -0.013224
C37   C     C_R   0.514550 0.849926 0.552411 -0.116859
C38   C     C_R   0.557303 0.633573 0.542633 -0.096860
C39   C     C_R   0.581708 0.603155 0.483674 -0.131921
C40   C     C_R   0.583538 0.654122 0.446529 0.002161
C41   C     C_R   0.560557 0.736682 0.469418 -0.094893
C42   C     C_R   0.561740 0.788419 0.432580 -0.188860
C43   C     C_R   0.539172 0.870988 0.456361 0.691179
C44   C     C_R   0.515940 0.900991 0.515423 -0.234316
C45   C     C_R   0.606291 0.624468 0.386905 0.600094
N4    N     N_R   0.605365 0.675130 0.351385 -0.557192
C46   C     C_R   0.584677 0.755747 0.373055 0.758514
O15   O     O_2   0.471789 0.958320 0.634524 -0.507196
O16   O     O_2   0.512973 0.698911 0.661086 -0.500084
H7    H     H_    0.556837 0.592365 0.569778 0.178506
H8    H     H_    0.599000 0.539474 0.467319 0.163038
O17   O     O_2   0.626939 0.545494 0.364589 -0.509984
O18   O     O_2   0.586542 0.804020 0.337039 -0.410485
H9    H     H_    0.499194 0.964658 0.532054 0.187284
C47   C     C_R   0.456662 0.641140 0.254815 0.681136
C48   C     C_R   0.469868 0.610512 0.195444 -0.253917
H10   H     H_    0.341045 0.610111 0.169627 0.152787
C49   C     C_R   0.646809 0.581625 0.169663 -0.142881
C50   C     C_R   0.810193 0.583798 0.205215 -0.162697
H11   H     H_    0.948565 0.562063 0.187041 0.157804
C51   C     C_R   0.796247 0.613752 0.264841 -0.108798
H12   H     H_    0.923121 0.614637 0.291475 0.205529
C52   C     C_R   0.619678 0.643029 0.290058 0.233529
C53   C     C_R   0.319790 0.847640 0.739830 -0.076044
H13   H     H_    0.198946 0.813528 0.717630 0.135555
C54   C     C_R   0.311875 0.878418 0.799417 -0.173688
H14   H     H_    0.184702 0.866566 0.821958 0.135444
C55   C     C_R   0.467401 0.922419 0.829794 -0.087288
C56   C     C_R   0.630788 0.936482 0.798153 -0.090896
C57   C     C_R   0.636737 0.905495 0.738528 -0.117230
H15   H     H_    0.762167 0.916127 0.714693 0.132401
C58   C     C_R   0.482707 0.860660 0.708982 0.357241
C59   C     C_2   0.644022 0.267832 0.993326 -0.380334
C60   C     C_2   0.475391 0.230823 0.001025 0.414020
O19   O     O_R   0.618210 0.960470 0.922400 -0.547925
O20   O     O_R   0.291310 0.111960 0.995450 -0.506662
O21   O     O_R   0.124210 0.039530 0.077580 -0.543057
C61   C     C_R   0.461652 0.144725 0.997800 0.687677
O22   O     O_R   0.288310 0.965490 0.917650 -0.537549
O23   O     O_R   0.121180 0.892010 0.999220 -0.569963
C62   C     C_R   0.457276 0.951456 0.893693 0.682084
O24   O     O_R   0.621230 0.107990 0.000760 -0.568469
O25   O     O_3   0.455770 0.976060 0.026840 -0.352747
V3    V     V_3+5 0.179680 0.004440 0.995020 1.549385
O26   O     O_R   0.791670 0.888040 0.004570 -0.513716
C63   C     C_R   0.961061 0.855012 0.001625 0.653033
O27   O     O_R   0.794680 0.034510 0.082370 -0.498699
C64   C     C_R   0.964140 0.050875 0.106125 0.797699
V4    V     V_3+5 0.680070 0.995560 0.005010 1.588419
O28   O     O_3   0.953840 0.023940 0.973160 -0.366136
F1    F     F_    0.459627 0.464008 0.816846 -0.620862
F2    F     F_    0.816729 0.367179 0.837002 -0.631851
F3    F     F_    0.539314 0.923437 0.422940 -0.594715
F4    F     F_    0.284459 0.668924 0.278146 -0.673538
F5    F     F_    0.800760 0.732960 0.006996 -0.660200
C65   C     C_1   0.792269 0.984688 0.824861 0.317251
N5    N     N_1   0.922046 0.023387 0.845908 -0.304886
C66   C     C_1   0.817842 0.223786 0.972132 0.332532
N6    N     N_1   0.956651 0.189196 0.954666 -0.231211
F6    F     F_    0.311209 0.274112 0.016032 -0.660726
C67   C     C_1   0.046293 0.485290 0.535425 0.399673
N7    N     N_1   0.048598 0.554089 0.550432 -0.307437
C68   C     C_1   0.047359 0.012254 0.465921 0.488177
N8    N     N_1   0.044099 0.943461 0.450916 -0.257353
F7    F     F_    0.680030 0.084391 0.296593 -0.597653
F8    F     F_    0.665484 0.025301 0.181332 -0.618398
C69   C     C_1   0.298118 0.147777 0.165287 0.477818
N9    N     N_1   0.426654 0.164634 0.140121 -0.346738

loop_
_geom_bond_atom_site_label_1
_geom_bond_atom_site_label_2
_ccdc_geom_bond_type
C60   C61   S    
C55   C56   A    
C2    C59   S    
C31   H6    S    
C57   H15   S    
C1    O6    A    
C68   N8    T    
O22   C62   A    
V4    O28   S    
C33   N3    A    
C66   N6    T    
C60   F6    S    
C30   C31   A    
C23   C24   A    
C12   C13   A    
C19   O13   S    
C16   C20   A    
C35   C38   A    
C14   C15   A    
C50   C51   A    
C42   C46   A    
O5    C3    A    
C16   C17   A    
C51   C52   A    
C7    C11   A    
C13   H2    S    
O20   V3    S    
C40   C45   A    
C59   C60   D    
O25   V3    S    
N2    C20   A    
C12   C67   S    
C9    C12   A    
O25   V4    S    
O26   C63   A    
C46   O18   S    
C3    C29   S    
C10   C15   A    
O8    V2    S    
C36   C41   A    
C17   C18   A    
C69   N9    T    
C27   C28   A    
C18   H3    S    
C45   N4    A    
O1    V2    S    
C53   C54   A    
O7    V1    S    
O26   V4    S    
C43   F3    S    
C11   C18   A    
C41   C42   A    
O23   C63   A    
C47   F4    S    
C34   C35   A    
O20   C61   A    
N1    C8    A    
C45   O17   S    
C4    C5    S    
C56   C57   A    
N3    C58   S    
C17   C68   S    
O27   V4    S    
O27   C64   A    
C48   C49   A    
C48   H10   S    
C25   C26   A    
C59   C66   S    
C31   C32   A    
C38   C39   A    
C28   C29   A    
C33   C37   A    
O19   V4    S    
C10   C11   A    
C54   H14   S    
O4    C2    A    
C51   H12   S    
C43   C44   A    
N3    C34   A    
C24   C25   A    
C8    O12   S    
C42   C43   A    
C37   C44   A    
C53   C58   A    
C35   C36   A    
O2    C1    A    
C22   C23   A    
O24   V4    S    
O5    V1    S    
C15   C16   A    
C55   C62   S    
C54   C55   A    
C49   C50   A    
C9    C10   A    
C5    H1    S    
C39   H8    S    
C21   F7    S    
C21   C26   A    
C50   H11   S    
C34   O16   S    
C65   N5    T    
O3    C4    A    
C14   C19   A    
C40   C41   A    
O6    V2    S    
O9    V2    S    
C44   H9    S    
N2    C26   S    
C21   C22   A    
O2    V1    S    
C29   C30   A    
O23   V3    S    
C25   H4    S    
O1    C2    A    
C33   O15   S    
C47   C48   A    
C6    F5    S    
N1    C32   S    
O8    C3    A    
C57   C58   A    
C6    C63   S    
C27   C32   A    
O19   C62   A    
C28   F1    S    
C39   C40   A    
C22   F8    S    
C20   O14   S    
O7    V2    S    
O4    V1    S    
C47   C52   A    
O3    V1    S    
V1    O10   S    
C23   C64   S    
O22   V3    S    
C1    C49   S    
C38   H7    S    
C67   N7    T    
C5    C6    D    
C19   N2    A    
C30   F2    S    
C36   C37   A    
V3    O28   S    
N4    C52   S    
C7    O11   S    
C56   C65   S    
N4    C46   A    
C7    N1    A    
C24   C69   S    
C27   H5    S    
C13   C14   A    
O21   C64   A    
C8    C9    A    
O21   V3    S    
C61   O24   A    
C53   H13   S    
O9    C4    A    
V2    O10   S    
