data_mof_unit_47203.cif
_audit_creation_date              2012-12-11T15:48:13-0500
_audit_creation_method            fapswitch 2.2
_symmetry_space_group_name_H-M    P1
_symmetry_Int_Tables_number       1
_space_group_crystal_system       triclinic
_cell_length_a                    6.917214
_cell_length_b                    17.684704
_cell_length_c                    19.424967
_cell_angle_alpha                 108.521982
_cell_angle_beta                  89.910243
_cell_angle_gamma                 90.210549
_cell_volume                      2253.13453128

loop_
_atom_site_label
_atom_site_type_symbol
_atom_type_description
_atom_site_fract_x
_atom_site_fract_y
_atom_site_fract_z
_atom_type_partial_charge
O1    O     O_R   0.494330 0.415710 0.413720 -0.538686
O2    O     O_R   0.819360 0.430070 0.560210 -0.545611
O3    O     O_R   0.994320 0.584290 0.586280 -0.546967
C1    C     C_R   0.651008 0.415834 0.582432 0.703803
O4    O     O_R   0.823740 0.406290 0.412670 -0.543039
O5    O     O_R   0.998730 0.560340 0.437690 -0.538840
C2    C     C_R   0.654697 0.383167 0.384827 0.726842
O6    O     O_R   0.489920 0.439660 0.562310 -0.542999
O7    O     O_3   0.662330 0.550570 0.508380 -0.367783
V1    V     V_3+5 0.935370 0.490620 0.498440 1.414034
O8    O     O_R   0.328720 0.569930 0.439790 -0.540551
C3    C     C_R   0.159351 0.586749 0.419616 0.725678
O9    O     O_R   0.324340 0.593710 0.587330 -0.520551
C4    C     C_R   0.155234 0.617640 0.614576 0.721710
V2    V     V_3+5 0.435940 0.509380 0.501560 1.434449
O10   O     O_3   0.159110 0.449430 0.491620 -0.373905
C5    C     C_R   0.299203 0.743426 0.701319 0.249941
C6    C     C_R   0.293966 0.806633 0.767739 0.120895
C7    C     C_R   0.127976 0.817199 0.813765 -0.111623
C8    C     C_R   0.975384 0.762131 0.792293 -0.172738
H1    H     H_    0.849206 0.767294 0.826514 0.153570
C9    C     C_R   0.984366 0.698413 0.727669 -0.223799
H2    H     H_    0.864994 0.656478 0.714078 0.138519
C10   C     C_R   0.145883 0.687756 0.681808 -0.108496
C11   C     C_R   0.290033 0.630526 0.319287 -0.162749
C12   C     C_R   0.148597 0.638979 0.372650 -0.141746
C13   C     C_R   0.000832 0.696713 0.380822 0.273456
C14   C     C_R   0.988131 0.741351 0.331393 0.066412
C15   C     C_R   0.134725 0.730968 0.277166 -0.037971
C16   C     C_R   0.287750 0.676263 0.271887 0.061118
C17   C     C_R   0.834311 0.795865 0.333164 0.216109
C18   C     C_R   0.829096 0.837114 0.282738 -0.222397
C19   C     C_R   0.973922 0.828217 0.230948 0.080048
C20   C     C_R   0.128922 0.775784 0.228204 0.017191
C21   C     C_R   0.277785 0.768700 0.176480 0.050834
C22   C     C_R   0.430976 0.714816 0.172099 0.243600
C23   C     C_R   0.435394 0.668140 0.219225 0.108380
C24   C     C_R   0.964715 0.871632 0.181852 -0.182366
C25   C     C_R   0.113339 0.866556 0.131597 -0.108647
C26   C     C_R   0.270742 0.816183 0.130057 -0.194090
H3    H     H_    0.401823 0.586947 0.315366 0.169121
H4    H     H_    0.709901 0.877264 0.284244 0.153829
H5    H     H_    0.843818 0.911236 0.184054 0.119051
H6    H     H_    0.385635 0.813205 0.091364 0.162634
C27   C     C_R   0.771776 0.180761 0.865808 -0.201332
C28   C     C_R   0.613422 0.130572 0.864834 -0.133320
C29   C     C_R   0.456003 0.128428 0.816595 0.140854
C30   C     C_R   0.463697 0.175528 0.769614 0.062543
C31   C     C_R   0.624773 0.226057 0.772110 -0.040450
C32   C     C_R   0.778389 0.229620 0.821049 0.064099
C33   C     C_R   0.312745 0.174178 0.720220 -0.136387
C34   C     C_R   0.319059 0.221798 0.675409 -0.202185
C35   C     C_R   0.476941 0.271645 0.677577 0.108365
C36   C     C_R   0.631443 0.273599 0.725548 0.063423
C37   C     C_R   0.792268 0.323134 0.726787 0.057043
C38   C     C_R   0.942873 0.326923 0.775874 -0.262681
C39   C     C_R   0.935947 0.282035 0.823959 0.292582
C40   C     C_R   0.482582 0.319231 0.632075 -0.220517
C41   C     C_R   0.643799 0.367392 0.632012 -0.083169
C42   C     C_R   0.798871 0.368806 0.679329 -0.201195
H7    H     H_    0.889455 0.182436 0.902964 0.195764
H8    H     H_    0.185880 0.137328 0.715373 0.170570
H9    H     H_    0.199310 0.219548 0.638858 0.138214
H10   H     H_    0.363051 0.317487 0.595521 0.127370
H11   H     H_    0.923301 0.406539 0.680073 0.121460
H12   H     H_    0.065496 0.365901 0.777767 0.133071
C43   C     C_R   0.789458 0.303498 0.263871 -0.163619
H13   H     H_    0.910092 0.344770 0.273235 0.155002
C44   C     C_R   0.777709 0.241404 0.197751 0.107827
C45   C     C_R   0.621204 0.186343 0.183889 -0.116821
C46   C     C_R   0.474768 0.197642 0.237620 0.293979
C47   C     C_R   0.485448 0.262753 0.302086 -0.210363
H14   H     H_    0.372023 0.270883 0.342321 0.126068
C48   C     C_R   0.643778 0.315165 0.316297 -0.113143
O11   O     O_R   0.774940 0.060470 0.937800 -0.525830
O12   O     O_R   0.440880 0.093730 0.087350 -0.510556
O13   O     O_R   0.266130 0.939630 0.062280 -0.545693
C49   C     C_R   0.610177 0.117888 0.114816 0.739594
O14   O     O_R   0.445480 0.069960 0.939820 -0.521501
O15   O     O_R   0.270770 0.915690 0.913690 -0.525724
C50   C     C_R   0.612377 0.083225 0.916333 0.793949
O16   O     O_R   0.770300 0.084410 0.086380 -0.536988
O17   O     O_3   0.602600 0.949510 0.991670 -0.375720
V3    V     V_3+5 0.329470 0.009370 0.001550 1.550238
O18   O     O_R   0.940760 0.906160 0.912560 -0.534837
C51   C     C_R   0.111237 0.884085 0.883729 0.761722
O19   O     O_R   0.936150 0.929930 0.060100 -0.547986
C52   C     C_R   0.104850 0.914980 0.081768 0.691154
V4    V     V_3+5 0.828930 0.990450 0.998310 1.502621
O20   O     O_3   0.105670 0.050490 0.008320 -0.339664
N1    N     N_2   0.456197 0.737214 0.652276 -0.514613
H15   H     H_    0.592909 0.736399 0.673025 0.271040
C53   C     C_3   0.438022 0.782716 0.602361 -0.456598
H16   H     H_    0.461614 0.742649 0.546085 0.212577
H17   H     H_    0.547791 0.831151 0.615136 0.216954
H18   H     H_    0.293089 0.810554 0.605605 0.192772
N2    N     N_2   0.580673 0.707971 0.119945 -0.521470
H19   H     H_    0.718418 0.703399 0.138271 0.292653
C54   C     C_3   0.541470 0.651184 0.049183 -0.526214
H20   H     H_    0.534219 0.589711 0.052575 0.225602
H21   H     H_    0.658942 0.654002 0.011049 0.194102
H22   H     H_    0.402689 0.665268 0.027325 0.193774
I1    I     I_    0.666703 0.584095 0.207934 -0.471410
I2    I     I_    0.204263 0.054187 0.811561 -0.372055
I3    I     I_    0.543420 0.883358 0.791544 -0.399646
N3    N     N_2   0.088609 0.290003 0.874950 -0.522860
H23   H     H_    0.220977 0.302648 0.856573 0.263941
C55   C     C_3   0.046205 0.343778 0.946741 -0.500261
H24   H     H_    0.029526 0.405645 0.945017 0.188773
H25   H     H_    0.166917 0.342655 0.984018 0.222100
H26   H     H_    0.911696 0.325525 0.968589 0.216715
I4    I     I_    0.994951 0.242131 0.120215 -0.394019
N4    N     N_2   0.316498 0.143486 0.227821 -0.495087
H27   H     H_    0.190034 0.169781 0.252001 0.262564
C56   C     C_3   0.359559 0.071658 0.245281 -0.525022
H28   H     H_    0.231122 0.031779 0.233649 0.194658
H29   H     H_    0.482040 0.039074 0.211961 0.181762
H30   H     H_    0.396190 0.086649 0.303798 0.189226
N5    N     N_2   0.872384 0.713068 0.440912 -0.500969
H31   H     H_    0.782890 0.666737 0.441830 0.288852
C57   C     C_3   0.955551 0.757337 0.510382 -0.466597
H32   H     H_    0.840340 0.773890 0.552109 0.204233
H33   H     H_    0.025309 0.812886 0.507304 0.218746
H34   H     H_    0.063299 0.720623 0.527359 0.158046
I5    I     I_    0.590920 0.823015 0.404902 -0.455770

loop_
_geom_bond_atom_site_label_1
_geom_bond_atom_site_label_2
_ccdc_geom_bond_type
O19   C52   A    
C53   H16   S    
C45   C49   S    
C21   C22   A    
C5    N1    S    
O15   V3    S    
C7    C51   S    
O12   V3    S    
N2    H19   S    
C17   C18   A    
C35   C36   A    
C55   H24   S    
C12   C13   A    
O16   V4    S    
C14   C15   A    
O12   C49   A    
C6    C7    A    
O5    C3    A    
O14   V3    S    
C44   I4    S    
N3    H23   S    
V2    O10   S    
C38   C39   A    
C46   N4    S    
C20   C21   A    
C4    C10   S    
C57   H34   S    
O15   C51   A    
C36   C37   A    
O8    V2    S    
C30   C33   A    
C29   C30   A    
O13   C52   A    
C56   H29   S    
C22   N2    S    
O1    V2    S    
O7    V1    S    
C1    O6    A    
C39   N3    S    
C41   C42   A    
C53   H17   S    
C37   C42   A    
C33   H8    S    
V3    O20   S    
C25   C52   S    
N2    C54   S    
C19   C20   A    
C2    C48   S    
N5    C57   S    
C40   H10   S    
O17   V4    S    
C5    C10   A    
C33   C34   A    
C47   C48   A    
C11   H3    S    
N1    H15   S    
C23   I1    S    
O18   V4    S    
O11   C50   A    
O13   V3    S    
C11   C12   A    
O18   C51   A    
C15   C20   A    
C24   H5    S    
C43   H13   S    
C16   C23   A    
C3    C12   S    
C43   C44   A    
O2    C1    A    
C15   C16   A    
N1    C53   S    
C28   C50   S    
C49   O16   A    
O17   V3    S    
N5    H31   S    
C56   H30   S    
C37   C38   A    
C5    C6    A    
C43   C48   A    
C57   H32   S    
C45   C46   A    
O3    C4    A    
C30   C31   A    
C54   H21   S    
C8    C9    A    
C42   H11   S    
O6    V2    S    
O19   V4    S    
C9    C10   A    
C17   I5    S    
O2    V1    S    
C25   C26   A    
C34   C35   A    
O4    C2    A    
N4    H27   S    
C11   C16   A    
C28   C29   A    
C22   C23   A    
C29   I2    S    
O1    C2    A    
C32   C39   A    
C14   C17   A    
C47   H14   S    
C34   H9    S    
O5    V1    S    
C35   C40   A    
C13   N5    S    
C53   H18   S    
O14   C50   A    
C19   C24   A    
C55   H26   S    
C18   C19   A    
C7    C8    A    
O9    V2    S    
C21   C26   A    
C40   C41   A    
C6    I3    S    
O4    V1    S    
O3    V1    S    
V1    O10   S    
C54   H20   S    
C56   H28   S    
C24   C25   A    
N3    C55   S    
C27   C32   A    
C38   H12   S    
C1    C41   S    
C27   H7    S    
C55   H25   S    
O7    V2    S    
C44   C45   A    
C57   H33   S    
O11   V4    S    
C27   C28   A    
C26   H6    S    
C54   H22   S    
C46   C47   A    
C8    H1    S    
C31   C32   A    
C13   C14   A    
C18   H4    S    
C9    H2    S    
V4    O20   S    
O9    C4    A    
C31   C36   A    
O8    C3    A    
N4    C56   S    
