data_mof_unit_9123.cif
_audit_creation_date              2012-12-11T16:53:47-0500
_audit_creation_method            fapswitch 2.2
_symmetry_space_group_name_H-M    P1
_symmetry_Int_Tables_number       1
_space_group_crystal_system       triclinic
_cell_length_a                    14.859244
_cell_length_b                    14.826133
_cell_length_c                    17.068299
_cell_angle_alpha                 108.471337
_cell_angle_beta                  106.202376
_cell_angle_gamma                 108.841482
_cell_volume                      3055.66553018

loop_
_atom_site_label
_atom_site_type_symbol
_atom_type_description
_atom_site_fract_x
_atom_site_fract_y
_atom_site_fract_z
_atom_type_partial_charge
C1    C     C_R   0.085529 0.281420 0.070759 -0.136018
C2    C     C_R   0.062823 0.490324 0.256806 -0.151755
C3    C     C_R   0.222333 0.798204 0.185908 -0.144372
C4    C     C_R   0.932932 0.520418 0.748619 -0.161579
C5    C     C_R   0.699394 0.408313 0.000495 -0.128163
C6    C     C_R   0.237967 0.804288 0.271702 0.086586
C7    C     C_R   0.637282 0.435831 0.945108 0.077620
C8    C     C_R   0.969649 0.437987 0.261916 0.087078
C9    C     C_R   0.996504 0.813841 0.962745 0.020445
C10   C     C_R   0.394502 0.466454 0.878140 0.154768
C11   C     C_R   0.338679 0.410175 0.914780 0.018219
C12   C     C_R   0.021831 0.586721 0.747162 -0.041302
C13   C     C_R   0.358851 0.328006 0.925689 -0.304675
C14   C     C_R   0.450135 0.320416 0.922416 0.219601
C15   C     C_R   0.523262 0.401900 0.912216 -0.017288
C16   C     C_R   0.725836 0.209089 0.819047 -0.151775
C17   C     C_R   0.485240 0.462440 0.877073 0.124329
C18   C     C_3   0.537296 0.577731 0.898265 -0.501697
C19   C     C_3   0.438172 0.582284 0.900272 -0.509734
C20   C     C_R   0.957009 0.435191 0.343801 -0.001333
C21   C     C_R   0.021221 0.611566 0.669464 0.150252
C22   C     C_R   0.121085 0.632020 0.581800 -0.208734
C23   C     C_R   0.674315 0.209315 0.737335 0.057146
C24   C     C_R   0.114545 0.665254 0.664273 -0.204760
C25   C     C_R   0.928209 0.552547 0.588438 -0.239334
C26   C     C_R   0.933055 0.515020 0.504266 0.033717
C27   C     C_R   0.033625 0.546975 0.504220 0.132691
C28   C     C_R   0.243654 0.520536 0.938438 -0.147405
C29   C     C_R   0.045173 0.490674 0.428180 0.051654
C30   C     C_R   0.856110 0.404371 0.341921 -0.221292
C31   C     C_R   0.842228 0.439718 0.422250 0.182272
C32   C     C_R   0.568115 0.132859 0.666402 0.138279
C33   C     C_R   0.280048 0.901023 0.356386 0.115400
C34   C     C_R   0.275695 0.448663 0.954602 0.077014
C35   C     C_R   0.397385 0.090686 0.438369 0.114065
C36   C     C_R   0.321208 0.001016 0.357634 -0.253311
C37   C     C_R   0.297772 0.893728 0.438428 -0.286354
C38   C     C_R   0.378085 0.979221 0.518707 0.165066
C39   C     C_R   0.432121 0.076880 0.518142 0.128232
C40   C     C_R   0.733814 0.306744 0.742836 -0.122196
C41   C     C_R   0.525496 0.153305 0.593568 -0.290359
C42   C     C_R   0.510347 0.038688 0.668516 -0.182086
C43   C     C_R   0.414292 0.963217 0.595817 -0.203345
C44   C     C_R   0.074873 0.114344 0.140183 0.086150
C45   C     C_R   0.217554 0.702942 0.263973 -0.125223
C46   C     C_R   0.991116 0.096683 0.064130 -0.039099
C47   C     C_R   0.901900 0.993557 0.018491 0.201313
C48   C     C_R   0.892629 0.925805 0.061949 -0.229724
C49   C     C_R   0.973026 0.953340 0.144385 0.014295
C50   C     C_R   0.067075 0.043188 0.177357 0.092217
C51   C     C_3   0.139649 0.128717 0.271979 0.031570
C52   C     C_R   0.248802 0.433285 0.022677 -0.122711
C53   C     C_3   0.145103 0.208068 0.231933 -0.623526
C54   C     C_R   0.106466 0.613235 0.826901 0.217370
C55   C     C_R   0.912538 0.198605 0.993580 -0.146239
C56   C     C_R   0.702707 0.497694 0.918399 -0.143722
C57   C     C_R   0.997019 0.184617 0.037592 0.077070
C58   C     C_3   0.464029 0.227028 0.932089 -0.364396
C59   C     C_3   0.483173 0.163616 0.854264 -0.906233
C60   C     C_3   0.145789 0.479298 0.439587 -0.445513
C61   C     C_3   0.174882 0.436978 0.509571 -0.222162
C62   C     C_3   0.279893 0.434582 0.524227 -0.986482
C63   C     C_3   0.733075 0.402654 0.421358 -0.341847
C64   C     C_3   0.640317 0.324481 0.328424 -0.949799
C65   C     C_3   0.449272 0.194015 0.433151 -0.441858
C66   C     C_3   0.429364 0.282700 0.489609 -0.244287
C67   C     C_R   0.888995 0.406004 0.179097 -0.124513
C68   C     C_3   0.491985 0.388289 0.491364 -0.951862
C69   C     C_3   0.818599 0.949009 0.922853 -0.363225
C70   C     C_3   0.710764 0.931581 0.921462 -0.928200
C71   C     C_3   0.089586 0.138373 0.339851 -0.317093
C72   C     C_3   0.089016 0.058249 0.378272 -0.912792
C73   C     C_3   0.213272 0.709884 0.867961 -0.406146
C74   C     C_3   0.287598 0.758181 0.968861 -0.903014
C75   C     C_R   0.082858 0.802464 0.006824 -0.117879
C76   C     C_R   0.910889 0.717083 0.931428 -0.113317
H1    H     H_    0.163241 0.305752 0.119887 0.101862
H2    H     H_    0.605883 0.627702 0.966066 0.200885
H3    H     H_    0.852097 0.494919 0.705610 0.099329
H4    H     H_    0.551371 0.588787 0.840544 0.188692
H5    H     H_    0.450647 0.634202 0.969604 0.199967
H6    H     H_    0.395850 0.596682 0.844231 0.191667
H7    H     H_    0.788502 0.355386 0.277223 0.147720
H8    H     H_    0.196522 0.667237 0.580517 0.127896
H9    H     H_    0.185312 0.726605 0.722238 0.115381
H10   H     H_    0.853468 0.524735 0.591564 0.103572
H11   H     H_    0.568974 0.225601 0.592070 0.129401
H12   H     H_    0.678429 0.519335 0.864156 0.101227
H13   H     H_    0.695745 0.152309 0.843554 0.097733
H14   H     H_    0.540436 0.021218 0.724357 0.121433
H15   H     H_    0.372852 0.888748 0.596725 0.121287
H16   H     H_    0.301836 0.008091 0.294690 0.114194
H17   H     H_    0.260184 0.818108 0.438794 0.122928
H18   H     H_    0.822807 0.850784 0.031569 0.144576
H19   H     H_    0.215802 0.126132 0.297283 0.134334
H20   H     H_    0.106837 0.258891 0.252691 0.204153
H21   H     H_    0.244611 0.542991 0.884469 0.134343
H22   H     H_    0.225005 0.251814 0.237806 0.183144
H23   H     H_    0.806183 0.356056 0.154528 0.081529
H24   H     H_    0.713707 0.342741 0.699125 0.083062
H25   H     H_    0.261990 0.381461 0.051957 0.094550
H26   H     H_    0.830909 0.149997 0.974007 0.120817
H27   H     H_    0.225791 0.679014 0.317723 0.091159
H28   H     H_    0.414998 0.130844 0.788068 0.270216
H29   H     H_    0.554580 0.214470 0.851937 0.264807
H30   H     H_    0.493488 0.096465 0.864093 0.242624
H31   H     H_    0.525255 0.252286 0.999534 0.168451
H32   H     H_    0.391547 0.170482 0.929821 0.188223
H33   H     H_    0.279707 0.391163 0.457873 0.275672
H34   H     H_    0.163159 0.859854 0.031081 0.096507
H35   H     H_    0.344317 0.517185 0.558873 0.266877
H36   H     H_    0.294718 0.394195 0.567704 0.258868
H37   H     H_    0.181787 0.487153 0.576880 0.208427
H38   H     H_    0.112327 0.355562 0.484872 0.190158
H39   H     H_    0.135245 0.419943 0.374390 0.188690
H40   H     H_    0.211352 0.557174 0.459792 0.183404
H41   H     H_    0.635417 0.361657 0.281191 0.258756
H42   H     H_    0.647518 0.250223 0.298640 0.261491
H43   H     H_    0.566152 0.302943 0.337050 0.258793
H44   H     H_    0.730528 0.363306 0.466909 0.181784
H45   H     H_    0.831060 0.693214 0.886551 0.086341
H46   H     H_    0.720117 0.473669 0.449077 0.190661
H47   H     H_    0.577105 0.409910 0.518729 0.259397
H48   H     H_    0.464885 0.382392 0.421531 0.265332
H49   H     H_    0.481102 0.452680 0.536229 0.260955
H50   H     H_    0.344297 0.260443 0.459222 0.204972
H51   H     H_    0.451836 0.293740 0.560909 0.200079
H52   H     H_    0.534772 0.218888 0.455195 0.193507
H53   H     H_    0.418740 0.182102 0.361416 0.181260
H54   H     H_    0.677819 0.863082 0.935756 0.260711
H55   H     H_    0.715847 0.003310 0.973141 0.255882
H56   H     H_    0.142154 0.519883 0.304654 0.090576
H57   H     H_    0.655991 0.913599 0.852917 0.249578
H58   H     H_    0.840480 0.999418 0.888816 0.188491
H59   H     H_    0.812474 0.871003 0.880343 0.185022
H60   H     H_    0.043100 0.975374 0.322890 0.268431
H61   H     H_    0.170609 0.072444 0.414923 0.262358
H62   H     H_    0.052776 0.067695 0.427200 0.253701
H63   H     H_    0.136881 0.219134 0.397479 0.204106
H64   H     H_    0.008202 0.127441 0.307509 0.202642
H65   H     H_    0.340883 0.843153 0.992189 0.238456
H66   H     H_    0.246702 0.756838 0.012998 0.266997
H67   H     H_    0.233201 0.862198 0.166957 0.092326
H68   H     H_    0.339558 0.720145 0.979996 0.250679
H69   H     H_    0.257759 0.689192 0.828528 0.181536
H70   H     H_    0.197412 0.775505 0.859943 0.192734
H71   H     H_    0.676331 0.353578 0.027880 0.101057
H72   H     H_    0.308856 0.275955 0.944637 0.133177
N1    N     N_R   0.055640 0.348550 0.045600 -0.039555
N2    N     N_R   0.811290 0.303400 0.871650 -0.036081
N3    N     N_R   0.205180 0.552990 0.997660 -0.035496
N4    N     N_R   0.814810 0.361830 0.823710 -0.037356
N5    N     N_R   0.201660 0.494570 0.045600 -0.042415
N6    N     N_R   0.068420 0.560530 0.871650 -0.047558
N7    N     N_R   0.948050 0.295860 0.997660 -0.039368
N8    N     N_R   0.185190 0.638170 0.176290 -0.041320
N9    N     N_R   0.798340 0.505430 0.954400 -0.039887
N10   N     N_R   0.931580 0.439470 0.128350 -0.038768
N11   N     N_R   0.051950 0.704140 0.002340 -0.039833
N12   N     N_R   0.944360 0.651450 0.954400 -0.037606
N13   N     N_R   0.039170 0.492150 0.176290 -0.036869
N14   N     N_R   0.188710 0.696600 0.128350 -0.045938
N15   N     N_R   0.794820 0.447010 0.002340 -0.041190
N16   N     N_R   0.960830 0.507850 0.823710 -0.051267
Ni1   Ni    Ni4+2 0.119330 0.493420 0.109950 0.209721
Ni2   Ni    Ni4+2 0.880670 0.506580 0.890050 0.203280
Ni3   Ni    Ni4+2 0.872590 0.372590 0.000000 0.206927
Ni4   Ni    Ni4+2 0.127410 0.627410 0.000000 0.214338

loop_
_geom_bond_atom_site_label_1
_geom_bond_atom_site_label_2
_ccdc_geom_bond_type
C28   H21   S    
C66   C68   S    
C69   H58   S    
C5    H71   S    
C6    C45   A    
C27   C29   A    
C1    H1    S    
C73   C74   S    
N15   Ni3   S    
C35   C36   A    
C3    C6    A    
C68   H48   S    
C39   C41   A    
C20   C30   A    
N11   Ni4   S    
C55   N7    A    
C55   H26   S    
C40   N4    A    
C26   C27   A    
C59   H29   S    
C64   H43   S    
C48   H18   S    
C59   H28   S    
C5    N15   A    
N6    N16   A    
C18   C19   S    
C30   C31   A    
C56   H12   S    
C35   C65   S    
C10   C17   A    
C44   C50   A    
N3    Ni4   S    
C54   C73   S    
C70   H54   S    
C33   C36   A    
C64   H42   S    
C66   H51   S    
C68   H47   S    
C58   H31   S    
C30   H7    S    
C47   C69   S    
C74   H68   S    
C45   H27   S    
N10   N13   A    
C44   C53   S    
C62   H35   S    
N11   N12   A    
N7    Ni3   S    
C70   H57   S    
C2    H56   S    
C32   C41   A    
C4    N16   A    
C1    N1    A    
C9    C76   A    
N12   Ni2   S    
C4    C12   A    
C19   H6    S    
C24   H9    S    
N9    N15   A    
C3    N14   A    
C67   H23   S    
C36   H16   S    
C62   H36   S    
C72   H62   S    
C74   H66   S    
N8    N14   A    
C16   H13   S    
C69   H59   S    
C12   C54   A    
C13   C14   A    
C53   H20   S    
N6    Ni4   S    
C61   C62   S    
C51   C71   S    
C7    C56   A    
C41   H11   S    
C2    N13   A    
C44   C46   A    
N10   Ni3   S    
C50   C51   S    
C20   C29   A    
C72   H61   S    
C14   C58   S    
C70   H55   S    
C52   H25   S    
C59   H30   S    
C37   H17   S    
C65   H52   S    
C31   C63   S    
C3    H67   S    
C4    H3    S    
C5    C7    A    
C71   H63   S    
C25   C26   A    
C12   C21   S    
C33   C37   A    
C64   H41   S    
C66   H50   S    
C73   H69   S    
C60   C61   S    
C42   H14   S    
C22   H8    S    
C35   C39   A    
C54   N6    A    
C37   C38   A    
N2    N4    A    
C1    C57   A    
C56   N9    A    
N4    Ni2   S    
C47   C48   A    
C29   C60   S    
C10   C19   S    
C18   H2    S    
C17   C18   S    
N1    Ni1   S    
C45   N8    A    
C8    C20   S    
C28   N3    A    
N14   Ni4   S    
C48   C49   A    
C74   H65   S    
C49   C50   A    
C16   C23   A    
C22   C27   A    
C55   C57   A    
C46   C57   S    
C61   H37   S    
C22   C24   A    
C58   C59   S    
C42   C43   A    
C76   H45   S    
C63   H46   S    
C75   N11   A    
C15   C17   A    
C21   C25   A    
C46   C47   A    
C76   N12   A    
C75   H34   S    
N5    Ni1   S    
C11   C34   S    
C2    C8    A    
N9    Ni2   S    
C40   H24   S    
C65   H53   S    
C71   H64   S    
C53   H22   S    
C34   C52   A    
C6    C33   S    
C73   H70   S    
C23   C32   S    
N16   Ni2   S    
C52   N5    A    
C38   C43   A    
C60   H40   S    
C63   H44   S    
C11   C13   A    
C38   C39   A    
C62   H33   S    
N8    Ni1   S    
N2    Ni3   S    
C7    C15   S    
C25   H10   S    
C67   N10   A    
C58   H32   S    
N3    N5    A    
N1    N7    A    
C69   C70   S    
C43   H15   S    
C72   H60   S    
C10   C11   A    
C28   C34   A    
C63   C64   S    
C26   C31   A    
C71   C72   S    
C8    C67   A    
C18   H4    S    
C65   C66   S    
C21   C24   A    
C61   H38   S    
C32   C42   A    
C14   C15   A    
C60   H39   S    
C16   N2    A    
C9    C75   A    
C13   H72   S    
C51   C53   S    
C19   H5    S    
C68   H49   S    
N13   Ni1   S    
C23   C40   A    
C51   H19   S    
