data_mof_unit_15704.cif
_audit_creation_date              2012-10-26T20:18:56-0400
_audit_creation_method            fapswitch 2.2
_symmetry_space_group_name_H-M    P1
_symmetry_Int_Tables_number       1
_space_group_crystal_system       triclinic
_cell_length_a                    15.041931
_cell_length_b                    13.019493
_cell_length_c                    11.774035
_cell_angle_alpha                 101.119206
_cell_angle_beta                  92.627248
_cell_angle_gamma                 92.991145
_cell_volume                      2255.76059537

loop_
_atom_site_label
_atom_site_type_symbol
_atom_type_description
_atom_site_fract_x
_atom_site_fract_y
_atom_site_fract_z
_atom_type_partial_charge
C1    C     C_R   0.499210 0.298617 0.476549 0.530209
C2    C     C_R   0.534587 0.884289 0.644879 -0.011732
C3    C     C_R   0.540275 0.139681 0.548004 -0.032708
C4    C     C_R   0.459726 0.860319 0.451996 -0.032708
C5    C     C_R   0.518505 0.033737 0.551083 0.031572
C6    C     C_R   0.481496 0.966263 0.448917 0.031572
C7    C     C_R   0.418355 0.392455 0.024452 -0.035246
C8    C     C_R   0.581645 0.607545 0.975549 -0.035246
C9    C     C_R   0.423987 0.408864 0.145989 0.053784
C10   C     C_R   0.576013 0.591136 0.854011 0.053785
C11   C     C_R   0.539353 0.541913 0.156928 0.154333
C12   C     C_R   0.500791 0.701383 0.523451 0.530209
C13   C     C_R   0.460647 0.458087 0.843072 0.154333
C14   C     C_R   0.531017 0.538273 0.033944 -0.002308
C15   C     C_R   0.468983 0.461727 0.966056 -0.002308
C16   C     C_R   0.329140 0.497872 0.500899 0.533609
C17   C     C_R   0.670860 0.502128 0.499101 0.533610
C18   C     C_R   0.820030 0.591620 0.562919 0.013090
C19   C     C_R   0.179970 0.408379 0.437081 0.013090
C20   C     C_R   0.767446 0.506374 0.497240 -0.008875
C21   C     C_R   0.232554 0.493626 0.502760 -0.008877
C22   C     C_R   0.806111 0.420704 0.433566 -0.117233
C23   C     C_R   0.030644 0.324086 0.378121 -0.080165
C24   C     C_R   0.193888 0.579295 0.566435 -0.117232
C25   C     C_R   0.898716 0.415635 0.435212 0.032372
C26   C     C_R   0.101284 0.584364 0.564789 0.032372
C27   C     C_R   0.953152 0.501357 0.499632 0.024578
C28   C     C_R   0.046848 0.498642 0.500369 0.024578
C29   C     C_R   0.913926 0.590086 0.562771 0.015709
C30   C     C_R   0.086074 0.409912 0.437230 0.015710
C31   C     C_R   0.937966 0.326256 0.375128 -0.005196
C32   C     C_R   0.062034 0.673742 0.624876 -0.005195
C33   C     C_2   0.774874 0.681979 0.627126 0.206200
C34   C     C_R   0.969356 0.675912 0.621882 -0.080166
C35   C     C_2   0.225126 0.318020 0.372874 0.206200
C36   C     C_3   0.362573 0.295650 0.963943 -0.398218
C37   C     C_3   0.637427 0.704350 0.036057 -0.398218
C38   C     C_3   0.882726 0.231754 0.308108 -0.401436
C39   C     C_3   0.117274 0.768243 0.691897 -0.401436
C40   C     C_3   0.382417 0.799917 0.375725 -0.369492
C41   C     C_3   0.617584 0.200084 0.624274 -0.369492
C42   C     C_3   0.572514 0.842208 0.747147 -0.375480
C43   C     C_3   0.427488 0.157792 0.252852 -0.375480
C44   C     C_3   0.468112 0.935857 0.227798 -0.401047
C45   C     C_R   0.499281 0.816681 0.540962 0.004091
C46   C     C_3   0.531891 0.064143 0.772201 -0.401048
C47   C     C_2   0.385900 0.396859 0.772256 0.282890
C48   C     C_2   0.614100 0.603140 0.227744 0.282890
C49   C     C_R   0.500720 0.183319 0.459037 0.004091
C50   C     C_R   0.467563 0.006501 0.346486 0.019276
C51   C     C_R   0.532439 0.993499 0.653513 0.019275
C52   C     C_R   0.465415 0.115710 0.355120 -0.011732
Cu1   Cu    Cu3+1 0.506660 0.507730 0.615930 0.944071
Cu2   Cu    Cu3+1 0.493340 0.492270 0.384070 0.944070
H1    H     H_    0.762401 0.356733 0.385539 0.122342
H2    H     H_    0.298406 0.317382 0.928106 0.196761
H3    H     H_    0.400339 0.248886 0.895652 0.100203
H4    H     H_    0.654504 0.757351 0.975646 0.129256
H5    H     H_    0.599660 0.751114 0.104348 0.100203
H6    H     H_    0.701594 0.682619 0.071894 0.196761
H7    H     H_    0.841206 0.254859 0.237854 0.149626
H8    H     H_    0.924783 0.168792 0.267206 0.135582
H9    H     H_    0.839092 0.198449 0.367298 0.127542
H10   H     H_    0.158794 0.745136 0.762150 0.149626
H11   H     H_    0.160907 0.801550 0.632708 0.127542
H12   H     H_    0.237599 0.643266 0.614461 0.122342
H13   H     H_    0.075216 0.831203 0.732802 0.135583
H14   H     H_    0.343358 0.750329 0.425029 0.139123
H15   H     H_    0.334801 0.853986 0.348292 0.131224
H16   H     H_    0.406369 0.748735 0.298050 0.152025
H17   H     H_    0.656642 0.249673 0.574971 0.139123
H18   H     H_    0.593632 0.251265 0.701950 0.152025
H19   H     H_    0.665200 0.146015 0.651707 0.131223
H20   H     H_    0.608015 0.903463 0.814798 0.125751
H21   H     H_    0.518266 0.804125 0.788252 0.148235
H22   H     H_    0.623158 0.786008 0.718130 0.161973
H23   H     H_    0.058743 0.253557 0.334272 0.169444
H24   H     H_    0.391990 0.096537 0.185198 0.125749
H25   H     H_    0.376842 0.213990 0.281868 0.161972
H26   H     H_    0.481736 0.195877 0.211749 0.148237
H27   H     H_    0.506574 0.975446 0.168422 0.130335
H28   H     H_    0.502898 0.863593 0.232080 0.123973
H29   H     H_    0.399124 0.915211 0.189768 0.130264
H30   H     H_    0.493430 0.024553 0.831578 0.130335
H31   H     H_    0.600879 0.084789 0.810230 0.130264
H32   H     H_    0.497103 0.136406 0.767920 0.123974
H33   H     H_    0.395875 0.322011 0.717237 0.098216
H34   H     H_    0.941256 0.746441 0.665733 0.169442
H35   H     H_    0.604125 0.677989 0.282764 0.098216
H36   H     H_    0.617089 0.639180 0.809264 0.154457
H37   H     H_    0.382911 0.360820 0.190736 0.154455
H38   H     H_    0.721049 0.714233 0.583488 0.093908
H39   H     H_    0.278954 0.285770 0.416511 0.093910
H40   H     H_    0.345495 0.242649 0.024354 0.129256
N1    N     N_R   0.516670 0.519360 0.790130 -0.263722
N2    N     N_R   0.483330 0.480640 0.209870 -0.263721
O1    O     O_R   0.504720 0.354460 0.582000 -0.528763
O2    O     O_2   0.205891 0.283075 0.270329 -0.537991
O3    O     O_2   0.311077 0.429016 0.777753 -0.514518
O4    O     O_2   0.688923 0.570983 0.222247 -0.514518
O5    O     O_R   0.495280 0.645540 0.418000 -0.528764
O6    O     O_R   0.493480 0.341410 0.386200 -0.516225
O7    O     O_R   0.506520 0.658590 0.613800 -0.516224
O8    O     O_R   0.375880 0.506510 0.597910 -0.462180
O9    O     O_R   0.624120 0.493490 0.402090 -0.462181
O10   O     O_R   0.364640 0.493450 0.402110 -0.503490
O11   O     O_R   0.635360 0.506550 0.597890 -0.503487
O12   O     O_2   0.794107 0.716921 0.729674 -0.537991

loop_
_geom_bond_atom_site_label_1
_geom_bond_atom_site_label_2
_ccdc_geom_bond_type
C11   N2    A    
C25   C31   A    
C26   C32   A    
C16   C21   S    
C27   C29   A    
C7    C36   S    
Cu2   O5    S    
C44   H29   S    
C42   H22   S    
C9    H37   S    
C3    C49   A    
Cu1   Cu2   S    
C43   H24   S    
C39   H10   S    
C42   H21   S    
C40   H16   S    
C13   N1    A    
C19   C21   A    
C24   C26   A    
C44   H28   S    
C17   O11   A    
C5    C6    A    
C11   C14   A    
C43   C52   S    
Cu1   N1    S    
Cu1   O8    S    
C43   H25   S    
C17   C20   S    
C47   O3    D    
C32   C39   S    
C16   O8    A    
C4    C40   S    
C22   C25   A    
C50   C52   A    
C35   O2    D    
Cu2   N2    S    
C37   H4    S    
C16   O10   A    
C41   H17   S    
C38   H7    S    
C7    C15   A    
C39   H11   S    
C11   C48   S    
C33   O12   D    
C4    C45   A    
C35   H39   S    
C2    C45   A    
C48   O4    D    
C42   H20   S    
C40   H15   S    
Cu2   O10   S    
C23   C30   A    
C12   O7    A    
C4    C6    A    
C44   H27   S    
C33   H38   S    
C1    O1    A    
C13   C47   S    
Cu1   O1    S    
C43   H26   S    
C46   C51   S    
C23   H23   S    
C32   C34   A    
C36   H2    S    
C17   O9    A    
Cu1   O11   S    
C2    C42   S    
C49   C52   A    
C18   C29   A    
C34   H34   S    
C6    C50   A    
C9    N2    A    
C37   H5    S    
C41   H18   S    
C46   H30   S    
C20   C22   A    
C36   H3    S    
C48   H35   S    
C13   C15   A    
C8    C37   S    
C38   H9    S    
C44   C50   S    
C7    C9    A    
C3    C41   S    
C8    C14   A    
Cu2   O9    S    
C39   H13   S    
Cu2   O6    S    
C12   C45   S    
C3    C5    A    
C22   H1    S    
C24   H12   S    
C25   C27   A    
C26   C28   A    
C31   C38   S    
C46   H31   S    
C28   C30   A    
C12   O5    A    
C19   C35   S    
C10   N1    A    
Cu1   O7    S    
C29   C34   A    
C18   C20   A    
C18   C33   S    
C37   H6    S    
C2    C51   A    
C41   H19   S    
C36   H40   S    
C10   H36   S    
C8    C10   A    
C40   H14   S    
C21   C24   A    
C27   C28   A    
C14   C15   A    
C5    C51   A    
C38   H8    S    
C19   C30   A    
C1    C49   S    
C1    O6    A    
C23   C31   A    
C46   H32   S    
C47   H33   S    
