data_mof_unit_54004.cif
_audit_creation_date              2013-03-05T16:45:29-0500
_audit_creation_method            fapswitch 2.2
_symmetry_space_group_name_H-M    P1
_symmetry_Int_Tables_number       1
_space_group_crystal_system       triclinic
_cell_length_a                    18.392354
_cell_length_b                    18.441991
_cell_length_c                    18.481469
_cell_angle_alpha                 120.057913
_cell_angle_beta                  90.004731
_cell_angle_gamma                 120.036723
_cell_volume                      4426.15022474

loop_
_atom_site_label
_atom_site_type_symbol
_atom_site_description
_atom_site_fract_x
_atom_site_fract_y
_atom_site_fract_z
_atom_type_partial_charge
Zn1   Zn    Zn3+2 0.543620 0.414150 0.457300 0.991665
Zn2   Zn    Zn3+2 0.542680 0.585840 0.456390 0.976337
Zn3   Zn    Zn3+2 0.543620 0.585850 0.629000 0.968697
Zn4   Zn    Zn3+2 0.370090 0.414160 0.457300 0.984858
O1    O     O_3   0.500000 0.500000 0.500000 -0.495117
O2    O     O_R   0.323160 0.439910 0.385120 -0.607239
O3    O     O_R   0.616440 0.439920 0.555110 -0.636239
O4    O     O_R   0.614860 0.560070 0.384480 -0.641776
O5    O     O_R   0.445540 0.560090 0.675280 -0.639784
O6    O     O_R   0.614860 0.729170 0.553580 -0.638966
O7    O     O_R   0.324090 0.270830 0.386020 -0.640787
O8    O     O_R   0.615510 0.729180 0.674390 -0.646015
O9    O     O_R   0.445540 0.270830 0.386020 -0.633261
O10   O     O_R   0.615510 0.439910 0.385120 -0.633971
O11   O     O_R   0.324090 0.439920 0.555110 -0.648347
O12   O     O_R   0.443960 0.560080 0.384480 -0.645077
O13   O     O_R   0.616440 0.560090 0.675280 -0.646752
C1    C     C_R   0.359279 0.502476 0.362774 0.836708
C2    C     C_R   0.641469 0.500945 0.638960 0.892969
C3    C     C_R   0.639500 0.499690 0.360776 0.805612
C4    C     C_R   0.360574 0.499166 0.639222 0.891554
C5    C     C_R   0.638872 0.778264 0.639024 0.776606
C6    C     C_R   0.360726 0.222964 0.362624 0.864014
C7    C     C_2   0.279907 0.943649 0.224067 -0.123952
C8    C     C_2   0.190819 0.887847 0.191722 -0.300934
H1    H     H_    0.313511 0.906065 0.210611 0.211563
H2    H     H_    0.155055 0.922090 0.200784 0.157476
C9    C     C_2   0.336441 0.056177 0.276855 -0.118546
C10   C     C_2   0.303730 0.112140 0.310879 -0.304320
H3    H     H_    0.407547 0.093711 0.288907 0.203225
H4    H     H_    0.233826 0.078036 0.303118 0.149883
C11   C     C_2   0.803056 0.584977 0.835963 0.354542
C12   C     C_2   0.802378 0.501700 0.809363 -0.425296
H5    H     H_    0.754727 0.427729 0.747499 0.138446
C13   C     C_2   0.736124 0.574353 0.781103 -0.241742
C14   C     C_2   0.704415 0.507781 0.692783 -0.349598
H6    H     H_    0.715667 0.625471 0.813823 0.208466
H7    H     H_    0.728547 0.461119 0.658117 0.166893
C15   C     C_2   0.276498 0.525413 0.834046 0.365089
C16   C     C_2   0.193253 0.499502 0.808091 -0.405980
H8    H     H_    0.166466 0.485038 0.746574 0.133815
C17   C     C_2   0.334941 0.538125 0.780024 -0.134305
C18   C     C_2   0.302929 0.491184 0.692677 -0.340514
H9    H     H_    0.406264 0.583203 0.812427 0.201793
H10   H     H_    0.232129 0.439260 0.656930 0.140090
C19   C     C_R   0.579759 0.790912 0.398338 -0.204801
H11   H     H_    0.617110 0.862421 0.463759 0.160956
C20   C     C_R   0.487841 0.725319 0.375206 -0.200300
H12   H     H_    0.456071 0.747545 0.423301 0.150374
C21   C     C_R   0.437127 0.630173 0.292008 0.035027
C22   C     C_R   0.479546 0.602610 0.229491 0.301985
C23   C     C_R   0.572170 0.671442 0.253005 -0.285233
H13   H     H_    0.605343 0.650628 0.206116 0.202170
C24   C     C_R   0.622877 0.765005 0.337531 0.335239
C25   C     C_R   0.283915 0.557070 0.217709 -0.166491
H14   H     H_    0.312515 0.595230 0.185457 0.198901
C26   C     C_R   0.192710 0.504849 0.204166 -0.106829
C27   C     C_R   0.156554 0.460705 0.250872 -0.060753
C28   C     C_R   0.212224 0.463713 0.305964 0.152802
C29   C     C_R   0.303444 0.509990 0.313539 -0.092651
C30   C     C_R   0.339983 0.562667 0.273310 0.027904
C31   C     C_R   0.042330 0.483077 0.311069 -0.155535
H15   H     H_    0.093656 0.564473 0.357848 0.125715
C32   C     C_R   0.956079 0.442442 0.314855 -0.190146
H16   H     H_    0.940901 0.492236 0.364264 0.144982
C33   C     C_R   0.889464 0.337462 0.255677 -0.133174
H17   H     H_    0.823965 0.307728 0.261714 0.144241
C34   C     C_R   0.907526 0.272110 0.189567 0.285293
C35   C     C_R   0.995452 0.313111 0.188318 -0.193649
H18   H     H_    0.011521 0.263463 0.140066 0.129389
C36   C     C_R   0.062956 0.418374 0.249138 0.132175
H19   H     H_    0.559149 0.779518 0.962985 0.224603
C37   C     C_R   0.539267 0.821228 0.878088 0.306669
C38   C     C_R   0.579937 0.864861 0.831967 0.093128
C39   C     C_R   0.668758 0.898342 0.836058 0.027474
C40   C     C_R   0.717309 0.889616 0.886636 0.203011
C41   C     C_R   0.676404 0.846342 0.931643 -0.256071
H20   H     H_    0.713027 0.839375 0.970775 0.189966
C42   C     C_R   0.588675 0.812473 0.927254 -0.245119
C43   C     C_R   0.767003 0.054772 0.842869 -0.233812
H21   H     H_    0.778572 0.096312 0.913575 0.165503
C44   C     C_R   0.804411 0.108445 0.805002 -0.066564
C45   C     C_R   0.787523 0.052400 0.711921 0.020086
C46   C     C_R   0.733741 0.945243 0.660058 -0.265756
H22   H     H_    0.722740 0.903490 0.589428 0.201209
C47   C     C_R   0.694821 0.891659 0.697674 -0.072247
C48   C     C_R   0.711922 0.947730 0.790739 0.113658
C49   C     C_R   0.776932 0.106182 0.612638 0.215077
C50   C     C_R   0.815535 0.144839 0.563080 0.170910
C51   C     C_R   0.905584 0.182472 0.569056 0.221882
C52   C     C_R   0.955522 0.180733 0.625347 -0.145181
H23   H     H_    0.024410 0.208568 0.632301 0.154843
C53   C     C_R   0.916466 0.139411 0.671764 -0.175884
H24   H     H_    0.955783 0.136403 0.712482 0.152035
C54   C     C_R   0.827437 0.101222 0.665509 0.059860
C55   C     C_R   0.702099 0.313204 0.397539 -0.186697
H25   H     H_    0.735291 0.339296 0.462477 0.164287
C56   C     C_R   0.734747 0.382422 0.374406 -0.192792
H26   H     H_    0.791912 0.460847 0.421857 0.134257
C57   C     C_R   0.691132 0.351865 0.292008 0.142105
C58   C     C_R   0.617782 0.249941 0.230995 -0.220446
H27   H     H_    0.583942 0.225266 0.166923 0.159416
C59   C     C_R   0.585726 0.180310 0.253685 -0.224451
H28   H     H_    0.527675 0.102609 0.206267 0.186652
C60   C     C_R   0.626265 0.211924 0.338012 0.385643
C61   C     C_R   0.770195 0.429407 0.217111 -0.263210
H29   H     H_    0.785426 0.373278 0.189736 0.177144
C62   C     C_R   0.801880 0.501649 0.197565 -0.052491
C63   C     C_R   0.779183 0.572722 0.231345 -0.019005
C64   C     C_R   0.725936 0.569837 0.284196 -0.225404
H30   H     H_    0.708566 0.624203 0.309334 0.191111
C65   C     C_R   0.695759 0.498834 0.305254 -0.060738
C66   C     C_R   0.719005 0.428200 0.271856 0.012241
C67   C     C_R   0.893028 0.744747 0.264042 -0.075041
H31   H     H_    0.935400 0.762549 0.319522 0.110841
C68   C     C_R   0.923451 0.815308 0.242465 -0.088848
H32   H     H_    0.988669 0.887541 0.281606 0.119110
C69   C     C_R   0.869940 0.792331 0.169999 -0.002669
H33   H     H_    0.893679 0.846941 0.153305 0.155569
C70   C     C_R   0.785681 0.699004 0.119286 -0.045353
H34   H     H_    0.744264 0.681362 0.063296 0.158950
C71   C     C_R   0.755019 0.628226 0.140618 -0.133027
H35   H     H_    0.690119 0.555620 0.100336 0.142721
C72   C     C_R   0.808898 0.650498 0.212721 0.150450
Zn5   Zn    Zn3+2 0.953650 0.585790 0.045310 1.003928
Zn6   Zn    Zn3+2 0.953650 0.414090 0.873610 0.977928
Zn7   Zn    Zn3+2 0.954590 0.414100 0.046220 0.965798
Zn8   Zn    Zn3+2 0.127180 0.585790 0.045310 1.049846
O14   O     O_3   0.997270 0.499940 0.002610 -0.504658
O15   O     O_R   0.173180 0.560020 0.947500 -0.576183
O16   O     O_R   0.881750 0.560030 0.117490 -0.649640
O17   O     O_R   0.880830 0.439850 0.827330 -0.654933
O18   O     O_R   0.053310 0.439870 0.118130 -0.637632
O19   O     O_R   0.881750 0.270770 0.828220 -0.646294
O20   O     O_R   0.173180 0.729110 0.116590 -0.636603
O21   O     O_R   0.882410 0.270770 0.949030 -0.643482
O22   O     O_R   0.051730 0.729120 0.116590 -0.628737
O23   O     O_R   0.880830 0.560020 0.947500 -0.598074
O24   O     O_R   0.174110 0.560030 0.117490 -0.626835
O25   O     O_R   0.051730 0.439850 0.827330 -0.650737
O26   O     O_R   0.882410 0.439870 0.118130 -0.645384
C73   C     C_R   0.136763 0.498359 0.863382 0.917661
C74   C     C_R   0.857899 0.500402 0.141908 0.785689
C75   C     C_R   0.858432 0.501692 0.863789 0.913109
C76   C     C_R   0.137718 0.501258 0.143615 0.834195
C77   C     C_R   0.858678 0.221718 0.863574 0.785425
C78   C     C_R   0.136438 0.776994 0.139955 0.862834
N1    N     N_R   0.717759 0.833270 0.361568 0.196431
O27   O     O_R   0.767138 0.908306 0.444084 -0.443939
O28   O     O_R   0.755569 0.821820 0.301034 -0.420331
N2    N     N_R   0.430826 0.505693 0.143362 0.218276
O29   O     O_R   0.360142 0.424755 0.131358 -0.382077
O30   O     O_R   0.461689 0.495506 0.078053 -0.358189
N3    N     N_2   0.177100 0.422420 0.355605 -0.274803
H36   H     H_    0.112715 0.357078 0.324329 0.230238
C79   C     C_3   0.194375 0.497359 0.447302 -0.716256
H37   H     H_    0.172611 0.459542 0.482177 0.239415
H38   H     H_    0.157072 0.530686 0.451339 0.223179
H39   H     H_    0.266682 0.560087 0.481655 0.225701
N4    N     N_2   0.839273 0.165197 0.126380 -0.309365
H40   H     H_    0.859484 0.124789 0.080078 0.220320
C80   C     C_3   0.752837 0.137438 0.088731 -0.784155
H41   H     H_    0.759878 0.181587 0.061578 0.237319
H42   H     H_    0.719543 0.151356 0.139243 0.251981
H43   H     H_    0.709217 0.054312 0.034193 0.245547
N5    N     N_R   0.450379 0.790009 0.879472 0.197178
O31   O     O_R   0.428951 0.792831 0.947507 -0.365868
O32   O     O_R   0.388174 0.749975 0.810473 -0.424439
N6    N     N_2   0.534952 0.880488 0.784578 -0.306755
H44   H     H_    0.474855 0.815748 0.735869 0.262895
C81   C     C_3   0.534962 0.970415 0.839019 -0.725685
H45   H     H_    0.505391 0.980902 0.795764 0.236713
H46   H     H_    0.604227 0.040044 0.880309 0.228499
H47   H     H_    0.495096 0.961553 0.882854 0.269123
N7    N     N_2   0.808399 0.928358 0.895711 -0.316525
H48   H     H_    0.846030 0.957914 0.957056 0.231319
C82   C     C_3   0.822152 0.858329 0.824407 -0.672733
H49   H     H_    0.894726 0.894916 0.836787 0.237836
H50   H     H_    0.792374 0.839516 0.760143 0.231767
H51   H     H_    0.792360 0.786614 0.820519 0.248007
N8    N     N_2   0.687702 0.073697 0.609204 -0.307949
H52   H     H_    0.651852 0.013646 0.615017 0.219428
C83   C     C_3   0.679017 0.156516 0.665417 -0.685781
H53   H     H_    0.712297 0.194498 0.736346 0.221129
H54   H     H_    0.607336 0.125292 0.654036 0.234723
H55   H     H_    0.708823 0.214159 0.649923 0.263938
N9    N     N_2   0.762719 0.144961 0.506769 -0.299608
H56   H     H_    0.796744 0.206575 0.502656 0.228363
C84   C     C_3   0.706427 0.047534 0.421142 -0.597837
H57   H     H_    0.670405 0.054754 0.379904 0.274354
H58   H     H_    0.656370 0.988045 0.429297 0.253291
H59   H     H_    0.747061 0.022952 0.385709 0.231533
N10   N     N_2   0.943011 0.219376 0.516843 -0.313152
H60   H     H_    0.901530 0.177169 0.453106 0.235893
C85   C     C_3   0.035840 0.262249 0.525085 -0.775684
H61   H     H_    0.053830 0.293015 0.484476 0.242572
H62   H     H_    0.048007 0.202067 0.501071 0.247067
H63   H     H_    0.078335 0.326634 0.595088 0.234521
N11   N     N_R   0.589461 0.142585 0.363887 0.180587
O33   O     O_R   0.614971 0.176912 0.446681 -0.413276
O34   O     O_R   0.527236 0.045397 0.305700 -0.421910
N12   N     N_R   0.867849 0.684838 0.916362 0.225449
O35   O     O_R   0.951740 0.720027 0.935516 -0.383217
O36   O     O_R   0.846267 0.748166 0.960081 -0.452765
N13   N     N_R   0.310978 0.541026 0.914389 0.238479
O37   O     O_R   0.395161 0.610373 0.961520 -0.353904
O38   O     O_R   0.262710 0.474575 0.931663 -0.373069

loop_
_geom_bond_atom_site_label_1
_geom_bond_atom_site_label_2
_geom_bond_distance
_ccdc_geom_bond_type
O17   C75   1.274774 A    
C33   C34   1.407664 A    
C55   C60   1.406282 A    
C53   H24   1.083581 S    
C5    C47   1.477099 S    
C16   C73   1.457382 S    
N6    C81   1.445989 S    
N6    H44   1.029374 S    
C13   C14   1.336912 D    
C25   H14   1.084868 S    
Zn8   O14   1.949198 S    
C67   H31   1.083049 S    
C26   C27   1.418510 A    
N7    C82   1.445933 S    
N13   O37   1.301190 A    
C62   C63   1.417783 A    
C81   H46   1.111175 S    
Zn6   O25   1.939272 S    
O4    C3    1.286003 A    
N12   O36   1.301253 A    
Zn1   O1    1.947607 S    
C6    C10   1.444852 S    
C9    C10   1.339434 D    
C13   H6    1.086285 S    
Zn8   O24   1.948186 S    
O25   C73   1.282348 A    
C43   C48   1.394280 A    
C26   C76   1.462254 S    
C2    C14   1.440070 S    
C83   H54   1.110218 S    
C27   C36   1.484424 S    
C61   H29   1.082419 S    
C49   N8    1.426160 S    
C56   H26   1.083168 S    
O8    C5    1.278516 A    
C68   H32   1.082367 S    
O9    C6    1.280069 A    
C84   H58   1.108355 S    
Zn7   O26   1.937454 S    
O7    C6    1.278047 A    
C35   C36   1.405156 A    
C69   H33   1.082207 S    
C38   N6    1.423416 S    
C31   C32   1.394796 A    
Zn3   O8    1.928372 S    
C64   C65   1.398965 A    
C4    C18   1.453032 S    
C46   H22   1.083909 S    
O24   C76   1.286060 A    
N7    H48   1.031815 S    
C23   C24   1.405701 A    
C34   C35   1.407424 A    
C82   H50   1.108082 S    
C55   C56   1.397201 A    
N2    O29   1.301127 A    
C7    C8    1.340413 D    
Zn2   O12   1.947378 S    
N3    C79   1.448116 S    
C85   H63   1.107454 S    
C67   C72   1.403860 A    
C20   C21   1.404177 A    
C33   H17   1.079062 S    
C49   C54   1.414369 A    
C22   N2    1.441422 S    
C28   C29   1.417626 A    
C53   C54   1.398054 A    
C3    C65   1.457447 S    
N5    O32   1.300441 A    
C50   N9    1.425169 S    
C35   H18   1.083487 S    
C17   H9    1.086252 S    
O2    C1    1.285800 A    
C65   C66   1.418725 A    
C44   C77   1.476171 S    
C28   N3    1.430538 S    
C70   C71   1.398512 A    
C21   C22   1.418052 A    
C15   C17   1.479717 S    
C80   H42   1.108954 S    
C41   C42   1.393015 A    
C12   C75   1.440409 S    
O19   C77   1.277951 A    
C81   H47   1.110592 S    
C19   C20   1.392359 A    
N12   O35   1.301747 A    
C61   C66   1.382884 A    
C34   N4    1.429151 S    
C22   C23   1.408802 A    
C11   C13   1.463280 S    
O10   C3    1.273757 A    
C58   H27   1.083147 S    
Zn7   O21   1.925135 S    
Zn4   O2    1.948034 S    
C38   C39   1.413894 A    
Zn8   O20   1.926229 S    
C15   C16   1.356621 D    
C47   C48   1.420973 A    
C43   H21   1.083373 S    
Zn6   O14   1.944512 S    
Zn5   O22   1.927258 S    
C27   C28   1.405177 A    
C41   H20   1.083018 S    
O6    C5    1.294516 A    
C64   H30   1.085004 S    
C29   C30   1.420623 A    
O26   C74   1.286452 A    
N4    C80   1.449746 S    
N8    H52   1.030020 S    
C84   H59   1.111188 S    
C79   H38   1.109170 S    
C39   C40   1.411197 A    
Zn7   O14   1.950914 S    
C83   H53   1.111079 S    
C31   H15   1.083087 S    
Zn3   O5    1.939268 S    
C52   C53   1.392704 A    
C80   H43   1.109246 S    
Zn5   O16   1.939123 S    
C45   C46   1.395665 A    
Zn6   O17   1.948053 S    
C82   H51   1.110797 S    
C45   C54   1.482367 S    
C55   H25   1.082543 S    
C19   C24   1.400609 A    
N10   C85   1.446117 S    
C12   H5    1.084789 S    
C37   C42   1.404012 A    
C59   C60   1.406823 A    
C40   C41   1.399574 A    
Zn4   O7    1.926379 S    
C18   H10   1.080233 S    
C81   H45   1.110128 S    
N3    H36   1.030574 S    
C82   H49   1.110392 S    
C39   C48   1.483837 S    
C16   H8    1.082140 S    
C44   C45   1.421772 A    
C60   N11   1.438107 S    
O20   C78   1.280010 A    
C25   C26   1.394705 A    
N5    O31   1.301594 A    
C83   H55   1.110936 S    
Zn2   O1    1.950915 S    
Zn1   O9    1.927154 S    
C17   C18   1.338547 D    
C71   C72   1.403734 A    
Zn2   O6    1.925134 S    
C37   C38   1.420628 A    
C52   H23   1.080788 S    
O16   C74   1.272624 A    
C23   H13   1.082531 S    
C24   N1    1.438017 S    
C80   H41   1.111425 S    
Zn7   O18   1.947273 S    
C1    C29   1.473218 S    
C40   N7    1.423731 S    
C19   H11   1.081003 S    
C79   H37   1.110379 S    
Zn1   O3    1.946569 S    
O22   C78   1.278358 A    
C79   H39   1.110817 S    
Zn2   O4    1.937454 S    
C57   C66   1.478548 S    
C7    C9    1.466652 S    
N1    O28   1.300093 A    
C37   N5    1.441310 S    
Zn3   O1    1.944512 S    
Zn8   O15   1.936885 S    
C67   C68   1.398711 A    
C63   C72   1.477955 S    
Zn5   O23   1.946567 S    
H19   C42   1.082616 S    
C56   C57   1.402746 A    
C58   C59   1.397846 A    
C11   C12   1.350924 D    
Zn4   O11   1.936886 S    
C9    H3    1.085515 S    
C50   C51   1.417528 A    
N9    H56   1.031124 S    
C10   H4    1.081328 S    
O23   C75   1.268649 A    
C63   C64   1.384211 A    
C32   H16   1.082451 S    
C7    H1    1.086476 S    
O5    C4    1.280862 A    
C51   C52   1.410561 A    
C51   N10   1.434299 S    
C61   C62   1.396408 A    
O3    C2    1.270471 A    
C20   H12   1.083695 S    
Zn4   O1    1.949201 S    
C25   C30   1.384562 A    
C14   H7    1.085404 S    
C57   C58   1.400913 A    
O13   C2    1.273385 A    
C43   C44   1.398262 A    
C68   C69   1.398439 A    
C31   C36   1.401039 A    
Zn3   O13   1.948052 S    
N11   O33   1.301711 A    
N1    O27   1.301154 A    
N2    O30   1.301568 A    
C11   N12   1.442553 S    
C84   H57   1.107903 S    
O15   C73   1.274747 A    
N4    H40   1.031677 S    
C69   C70   1.398560 A    
N9    C84   1.446941 S    
C85   H61   1.110586 S    
Zn5   O14   1.947610 S    
O11   C4    1.274752 A    
O18   C76   1.272733 A    
C49   C50   1.413768 A    
Zn6   O19   1.928220 S    
O12   C1    1.277428 A    
N10   H60   1.030705 S    
C59   H28   1.082389 S    
N11   O34   1.301599 A    
C21   C30   1.484510 S    
C70   H34   1.082292 S    
C46   C47   1.397273 A    
Zn1   O10   1.939020 S    
C71   H35   1.083121 S    
C15   N13   1.441758 S    
N13   O38   1.301800 A    
C62   C74   1.456140 S    
O21   C77   1.294839 A    
N8    C83   1.446488 S    
C32   C33   1.396238 A    
C8    C78   1.445192 S    
C85   H62   1.110894 S    
C8    H2    1.081419 S    
