data_mof_unit_62872.cif
_audit_creation_date              2012-12-10T20:11:21-0500
_audit_creation_method            fapswitch 2.2
_symmetry_space_group_name_H-M    P1
_symmetry_Int_Tables_number       1
_space_group_crystal_system       triclinic
_cell_length_a                    41.974149
_cell_length_b                    35.552646
_cell_length_c                    21.744466
_cell_angle_alpha                 90.915261
_cell_angle_beta                  122.421002
_cell_angle_gamma                 89.678216
_cell_volume                      27387.6392346

loop_
_atom_site_label
_atom_site_type_symbol
_atom_type_description
_atom_site_fract_x
_atom_site_fract_y
_atom_site_fract_z
_atom_type_partial_charge
C1    C     C_R   0.426805 0.499937 0.924555 0.968277
C2    C     C_R   0.573212 0.500095 0.075484 0.965881
C3    C     C_R   0.926650 0.999974 0.925365 0.891751
C4    C     C_R   0.073524 0.000263 0.074471 0.920926
C5    C     C_2   0.507629 0.497668 0.821828 0.298617
C6    C     C_2   0.493258 0.499040 0.179247 0.296386
C7    C     C_2   0.008442 0.996971 0.822883 0.309586
C8    C     C_2   0.001102 0.002600 0.185971 0.335265
C9    C     C_R   0.173931 0.477967 0.721945 -0.137311
C10   C     C_R   0.825951 0.476035 0.279730 -0.136815
C11   C     C_R   0.672590 0.966705 0.703948 -0.132961
C12   C     C_R   0.327466 0.964956 0.298171 -0.132624
C13   C     C_R   0.134194 0.478094 0.681148 0.423850
C14   C     C_R   0.865698 0.475845 0.320831 0.416556
C15   C     C_R   0.632840 0.967457 0.662283 0.415438
C16   C     C_R   0.367201 0.965516 0.341053 0.411516
C17   C     C_R   0.114551 0.499890 0.617948 -0.179686
C18   C     C_R   0.885525 0.499723 0.382239 -0.175091
C19   C     C_R   0.614160 0.998293 0.617449 -0.164176
C20   C     C_R   0.385996 0.997872 0.382487 -0.157739
C21   C     C_R   0.134018 0.523267 0.598057 -0.292643
C22   C     C_R   0.866359 0.525388 0.400006 -0.287733
C23   C     C_R   0.634242 0.029278 0.617312 -0.300932
C24   C     C_R   0.366193 0.030420 0.377234 -0.305902
C25   C     C_R   0.173325 0.525955 0.640860 -0.012851
C26   C     C_R   0.827093 0.528293 0.356716 -0.010739
C27   C     C_R   0.673527 0.030570 0.662421 -0.007152
C28   C     C_R   0.327137 0.031703 0.329842 -0.006396
C29   C     C_R   0.193322 0.502707 0.702449 -0.101354
C30   C     C_R   0.806822 0.502987 0.297031 -0.101381
C31   C     C_R   0.692763 0.998766 0.704841 -0.100033
C32   C     C_R   0.307629 0.998472 0.292100 -0.095697
C33   C     C_1   0.233619 0.501614 0.741425 0.140578
C34   C     C_1   0.766496 0.502182 0.258109 0.142579
C35   C     C_1   0.733046 0.997570 0.743239 0.136853
C36   C     C_1   0.267389 0.997734 0.254390 0.130358
C37   C     C_1   0.267261 0.500545 0.772930 0.138394
C38   C     C_1   0.732837 0.501291 0.226727 0.139175
C39   C     C_1   0.766676 0.996996 0.774018 0.129260
C40   C     C_1   0.233818 0.997537 0.224490 0.135574
C41   C     C_R   0.328904 0.490783 0.882824 0.500556
C42   C     C_R   0.671108 0.489836 0.117257 0.500032
C43   C     C_R   0.828482 0.976287 0.872462 0.493998
C44   C     C_R   0.172434 0.968520 0.143896 0.507042
C45   C     C_R   0.502153 0.499563 0.882945 0.819192
C46   C     C_R   0.498040 0.500059 0.117296 0.821408
C47   C     C_R   0.001901 0.999454 0.882633 0.788738
C48   C     C_R   0.000498 0.000396 0.119308 0.756574
C49   C     C_R   0.368034 0.489874 0.918630 -0.270817
C50   C     C_R   0.631976 0.488870 0.081521 -0.267141
C51   C     C_R   0.867587 0.976718 0.907958 -0.254694
C52   C     C_R   0.133244 0.969354 0.109114 -0.277504
C53   C     C_R   0.385863 0.499996 0.882646 -0.179174
C54   C     C_R   0.614182 0.500461 0.117308 -0.178794
C55   C     C_R   0.885459 0.999931 0.884145 -0.194867
C56   C     C_R   0.114982 0.001024 0.114792 -0.186049
C57   C     C_R   0.364679 0.509393 0.808088 -0.103249
C58   C     C_R   0.635435 0.511660 0.191563 -0.104358
C59   C     C_R   0.863948 0.022061 0.821455 -0.080423
C60   C     C_R   0.136566 0.032337 0.158784 -0.119131
C61   C     C_R   0.324814 0.509057 0.770498 -0.127214
C62   C     C_R   0.675309 0.511625 0.228979 -0.127359
C63   C     C_R   0.824146 0.020438 0.782874 -0.126899
C64   C     C_R   0.176325 0.030424 0.198568 -0.135191
C65   C     C_R   0.307376 0.499577 0.808672 -0.089119
C66   C     C_R   0.692698 0.500442 0.191072 -0.090141
C67   C     C_R   0.806785 0.997476 0.809317 -0.089048
C68   C     C_R   0.193779 0.998545 0.189837 -0.069232
C69   C     C_R   0.500489 0.694132 0.493902 0.117013
C70   C     C_R   0.002828 0.193881 0.496262 0.108648
C71   C     C_R   0.465549 0.635893 0.461114 -0.045855
C72   C     C_R   0.534899 0.635967 0.535639 -0.048654
C73   C     C_R   0.967817 0.136736 0.478114 -0.038381
C74   C     C_R   0.032484 0.134176 0.504359 -0.040626
C75   C     C_1   0.004026 0.267337 0.499465 -0.014162
C76   C     C_1   0.500481 0.767406 0.493322 -0.024080
C77   C     C_R   0.003226 0.307237 0.499991 0.099051
C78   C     C_R   0.500310 0.807206 0.494635 0.099616
C79   C     C_R   0.499956 0.426807 0.499955 1.027852
C80   C     C_R   0.999857 0.926699 0.499743 0.986238
C81   C     C_R   0.466378 0.674949 0.458060 -0.199960
C82   C     C_R   0.534436 0.675073 0.532830 -0.205177
C83   C     C_R   0.969849 0.175882 0.479656 -0.187027
C84   C     C_R   0.033841 0.173449 0.507991 -0.181922
C85   C     C_R   0.500357 0.504998 0.619022 0.799582
C86   C     C_R   0.499670 0.505215 0.381364 0.793275
C87   C     C_R   0.000411 0.004284 0.619298 0.815331
C88   C     C_R   0.999514 0.998225 0.380645 0.823154
C89   C     C_R   0.500053 0.573667 0.500301 0.797623
C90   C     C_R   0.999953 0.073548 0.498066 0.902430
C91   C     C_R   0.000230 0.426801 0.499751 1.001650
C92   C     C_R   0.500133 0.926773 0.499683 0.977295
C93   C     C_R   0.073369 0.499826 0.574171 1.037745
C94   C     C_R   0.926657 0.499591 0.425877 1.038547
C95   C     C_R   0.573234 0.999436 0.573972 1.021903
C96   C     C_R   0.426824 0.999151 0.426050 1.017139
C97   C     C_R   0.999971 0.573406 0.500468 1.032971
C98   C     C_R   0.499915 0.073443 0.500323 1.025098
C99   C     C_R   0.967747 0.673327 0.444481 0.422579
C100  C     C_R   0.026443 0.674364 0.564312 0.423810
C101  C     C_R   0.472320 0.173741 0.438747 0.426007
C102  C     C_R   0.526434 0.174443 0.564478 0.426943
C103  C     C_R   0.970376 0.634086 0.440272 -0.158313
C104  C     C_R   0.026960 0.634840 0.564346 -0.152436
C105  C     C_R   0.473784 0.134318 0.436551 -0.157387
C106  C     C_R   0.525492 0.134978 0.565635 -0.154660
C107  C     C_R   0.999327 0.614641 0.501371 -0.321397
C108  C     C_R   0.499677 0.114747 0.500907 -0.324739
C109  C     C_R   0.996304 0.693236 0.505425 -0.166424
C110  C     C_R   0.499209 0.193469 0.501868 -0.160591
C111  C     C_1   0.995336 0.733422 0.506354 0.117524
C112  C     C_1   0.499087 0.233618 0.501920 0.123922
C113  C     C_R   0.001067 0.385674 0.499414 -0.193966
C114  C     C_R   0.500475 0.885605 0.498812 -0.234460
C115  C     C_1   0.499019 0.267234 0.501533 0.103060
C116  C     C_1   0.994989 0.767073 0.506099 0.099978
C117  C     C_R   0.498432 0.326200 0.443227 -0.115702
C118  C     C_R   0.500222 0.327989 0.558482 -0.118795
C119  C     C_R   0.981671 0.825357 0.437115 -0.113663
C120  C     C_R   0.009741 0.828525 0.569867 -0.122890
C121  C     C_R   0.497466 0.365756 0.442196 0.350342
C122  C     C_R   0.502174 0.367487 0.559157 0.355572
C123  C     C_R   0.982307 0.864916 0.435797 0.319738
C124  C     C_R   0.013082 0.867835 0.568261 0.345063
C125  C     C_R   0.499844 0.385958 0.500409 -0.280682
C126  C     C_R   0.999122 0.885709 0.501429 -0.267927
C127  C     C_R   0.499085 0.307482 0.500946 -0.180990
C128  C     C_R   0.995141 0.807355 0.504362 -0.177969
C129  C     C_R   0.976521 0.325764 0.508487 -0.173334
C130  C     C_R   0.028739 0.327171 0.490880 -0.170675
C131  C     C_R   0.478701 0.825960 0.516239 -0.182897
C132  C     C_R   0.522117 0.826771 0.475351 -0.183457
C133  C     C_R   0.974543 0.365007 0.507009 -0.059333
C134  C     C_R   0.028516 0.366428 0.491667 -0.057655
C135  C     C_R   0.477875 0.865175 0.517524 -0.065682
C136  C     C_R   0.523153 0.865981 0.478407 -0.059642
C137  C     C_1   0.500556 0.733915 0.493071 -0.018774
C138  C     C_1   0.004021 0.233778 0.498381 -0.009986
C139  C     C_R   0.500158 0.615414 0.499374 -0.212092
C140  C     C_R   0.999981 0.115092 0.493507 -0.200540
C141  C     C_2   0.532344 0.521520 0.750568 -0.237497
C142  C     C_2   0.467969 0.522285 0.250953 -0.229080
C143  C     C_2   0.032652 0.021051 0.750972 -0.231628
C144  C     C_2   0.968967 0.997639 0.249016 -0.265319
C145  C     C_2   0.500325 0.517862 0.683568 0.254395
C146  C     C_2   0.499811 0.518930 0.318041 0.253919
C147  C     C_2   0.000575 0.015636 0.684494 0.256889
C148  C     C_2   0.997943 0.987160 0.315125 0.274879
C149  C     C_2   0.529289 0.523536 0.815173 -0.095037
C150  C     C_2   0.471423 0.524671 0.186901 -0.095011
C151  C     C_2   0.029991 0.022878 0.816112 -0.113671
C152  C     C_2   0.971599 0.988046 0.186600 -0.090080
H1    H     H_    0.440179 0.690638 0.429082 0.157433
H2    H     H_    0.560759 0.690796 0.560796 0.155621
H3    H     H_    0.945634 0.192532 0.468743 0.159287
H4    H     H_    0.058615 0.188252 0.517229 0.170641
H5    H     H_    0.384650 0.481850 0.975361 0.186030
H6    H     H_    0.615331 0.479597 0.025002 0.183093
H7    H     H_    0.884101 0.959540 0.955670 0.194707
H8    H     H_    0.116972 0.945362 0.075982 0.173035
H9    H     H_    0.956464 0.309448 0.514066 0.173938
H10   H     H_    0.049515 0.312006 0.485084 0.174191
H11   H     H_    0.461662 0.809856 0.530307 0.172812
H12   H     H_    0.539255 0.811309 0.460024 0.172592
H13   H     H_    0.118214 0.540654 0.550351 0.213762
H14   H     H_    0.882412 0.544319 0.446295 0.212023
H15   H     H_    0.618923 0.053119 0.583660 0.215197
H16   H     H_    0.381568 0.055410 0.407864 0.215752
O1    O     O_R   0.444560 0.531280 0.944560 -0.546961
O2    O     O_R   0.555440 0.531280 0.055440 -0.545852
O3    O     O_R   0.944560 0.031280 0.944560 -0.569243
O4    O     O_R   0.055440 0.031280 0.055440 -0.575818
O5    O     O_R   0.055440 0.500090 0.504360 -0.613248
O6    O     O_R   0.944560 0.500090 0.495640 -0.613613
O7    O     O_R   0.555440 0.000090 0.504360 -0.603455
O8    O     O_R   0.444560 0.000090 0.495640 -0.601443
O9    O     O_R   0.055430 0.500110 0.606490 -0.616263
O10   O     O_R   0.944570 0.500110 0.393510 -0.617390
O11   O     O_R   0.555430 0.000110 0.606490 -0.630947
O12   O     O_R   0.444570 0.000110 0.393510 -0.631733
O13   O     O_R   0.000010 0.555520 0.448910 -0.608456
O14   O     O_R   0.999990 0.555520 0.551090 -0.614388
O15   O     O_R   0.500010 0.055520 0.448910 -0.604455
O16   O     O_R   0.499990 0.055520 0.551090 -0.607739
O17   O     O_R   0.444540 0.468700 0.944530 -0.634145
O18   O     O_R   0.555460 0.468700 0.055470 -0.635152
O19   O     O_R   0.944540 0.968700 0.944530 -0.617201
O20   O     O_R   0.055460 0.968700 0.055470 -0.624348
O21   O     O_R   0.500010 0.531280 0.909540 -0.598755
O22   O     O_R   0.499990 0.531280 0.090460 -0.597712
O23   O     O_R   0.000010 0.031280 0.909540 -0.610716
O24   O     O_R   0.999990 0.031280 0.090460 -0.611361
O25   O     O_R   0.499990 0.468700 0.909520 -0.620451
O26   O     O_R   0.500010 0.468700 0.090480 -0.618780
O27   O     O_R   0.999990 0.968700 0.909520 -0.617236
O28   O     O_R   0.000010 0.968700 0.090480 -0.587654
O29   O     O_R   0.531280 0.444560 0.531260 -0.615726
O30   O     O_R   0.468720 0.444560 0.468740 -0.617720
O31   O     O_R   0.031280 0.944560 0.531260 -0.637757
O32   O     O_R   0.968720 0.944560 0.468740 -0.627687
O33   O     O_R   0.531280 0.499990 0.621740 -0.632948
O34   O     O_R   0.468720 0.499990 0.378260 -0.632378
O35   O     O_R   0.031280 0.999990 0.621740 -0.636490
O36   O     O_R   0.968720 0.999990 0.378260 -0.646896
O37   O     O_R   0.468680 0.499990 0.559140 -0.578167
O38   O     O_R   0.531320 0.499990 0.440860 -0.578124
O39   O     O_R   0.968680 0.999990 0.559140 -0.584601
O40   O     O_R   0.031320 0.999990 0.440860 -0.574132
O41   O     O_R   0.531300 0.555420 0.531300 -0.599469
O42   O     O_R   0.468700 0.555420 0.468700 -0.595843
O43   O     O_R   0.031300 0.055420 0.531300 -0.591045
O44   O     O_R   0.968700 0.055420 0.468700 -0.580020
O45   O     O_R   0.999980 0.444660 0.448930 -0.621530
O46   O     O_R   0.000020 0.444660 0.551070 -0.615184
O47   O     O_R   0.499980 0.944660 0.448930 -0.618803
O48   O     O_R   0.500020 0.944660 0.551070 -0.615264
Zn1   Zn    Zn3+2 0.500000 0.541780 0.000000 1.082693
Zn2   Zn    Zn3+2 0.000000 0.041780 0.000000 1.060448
Zn3   Zn    Zn3+2 0.500000 0.458200 0.000000 0.975069
Zn4   Zn    Zn3+2 0.000000 0.958200 0.000000 1.002186
Zn5   Zn    Zn3+2 0.541790 0.499990 0.541780 1.039302
Zn6   Zn    Zn3+2 0.458210 0.499990 0.458220 1.038358
Zn7   Zn    Zn3+2 0.041790 0.999990 0.541780 1.031312
Zn8   Zn    Zn3+2 0.958210 0.999990 0.458220 1.021442
Zn9   Zn    Zn3+2 0.000000 0.500080 0.431790 1.014454
Zn10  Zn    Zn3+2 0.000000 0.500080 0.568210 1.013673
Zn11  Zn    Zn3+2 0.500000 0.000080 0.431790 1.022723
Zn12  Zn    Zn3+2 0.500000 0.000080 0.568210 1.020918
O49   O     O_3   0.311521 0.481329 0.919504 -0.603963
C153  C     C_3   0.315439 0.511729 0.965797 0.089425
H17   H     H_    0.300443 0.536934 0.932856 0.142789
H18   H     H_    0.345723 0.518918 0.005092 0.165675
C154  C     C_3   0.298146 0.500788 0.009463 -0.290727
H19   H     H_    0.267814 0.493786 0.971563 0.259749
H20   H     H_    0.312781 0.475517 0.042168 0.245708
C155  C     C_3   0.301663 0.532704 0.060558 -0.871896
H21   H     H_    0.331809 0.539976 0.099635 0.307097
H22   H     H_    0.289107 0.523781 0.091806 0.270670
H23   H     H_    0.286447 0.558005 0.028822 0.259813
O50   O     O_3   0.688443 0.478736 0.080855 -0.605386
C156  C     C_3   0.684997 0.507980 0.034405 0.088302
H24   H     H_    0.699434 0.533917 0.066937 0.143162
H25   H     H_    0.654774 0.514375 0.993754 0.168357
C157  C     C_3   0.703496 0.495750 0.993040 -0.293278
H26   H     H_    0.733698 0.489189 0.032473 0.260120
H27   H     H_    0.689257 0.469930 0.960281 0.242534
C158  C     C_3   0.700882 0.526516 0.942384 -0.877101
H28   H     H_    0.670906 0.533366 0.901876 0.308781
H29   H     H_    0.714288 0.516653 0.912783 0.269232
H30   H     H_    0.715777 0.552312 0.974271 0.262075
O51   O     O_3   0.811591 0.953950 0.898683 -0.611353
C159  C     C_3   0.809250 0.974753 0.952057 0.117429
H31   H     H_    0.787214 0.996857 0.925400 0.150035
H32   H     H_    0.836726 0.988381 0.992732 0.180324
C160  C     C_3   0.798528 0.948266 0.992813 -0.291325
H33   H     H_    0.771461 0.933877 0.953494 0.264021
H34   H     H_    0.820787 0.926539 0.020605 0.234768
C161  C     C_3   0.794259 0.969605 0.049444 -0.921289
H35   H     H_    0.820983 0.984341 0.089357 0.300169
H36   H     H_    0.787296 0.949516 0.079170 0.267317
H37   H     H_    0.771166 0.990543 0.022467 0.272323
O52   O     O_3   0.190485 0.937318 0.137371 -0.618002
C162  C     C_3   0.179823 0.931411 0.064042 0.114439
H38   H     H_    0.205679 0.933371 0.062098 0.198447
H39   H     H_    0.159661 0.952638 0.024972 0.134730
C163  C     C_3   0.163048 0.891935 0.038679 -0.336859
H40   H     H_    0.184657 0.870724 0.073247 0.247420
H41   H     H_    0.138581 0.888618 0.044778 0.222883
C164  C     C_3   0.149961 0.884673 0.959133 -0.936344
H42   H     H_    0.127200 0.904641 0.923447 0.276647
H43   H     H_    0.138711 0.855576 0.942904 0.275706
H44   H     H_    0.173909 0.887914 0.951436 0.270247
C165  C     C_2   0.383973 0.516952 0.768676 0.910730
O53   O     O_2   0.373327 0.500942 0.710531 -0.627025
O54   O     O_R   0.413990 0.542485 0.797502 -0.784089
H45   H     H_    0.424638 0.545082 0.765519 0.334935
C166  C     C_2   0.616238 0.520680 0.231021 0.910627
O55   O     O_2   0.627176 0.506246 0.289788 -0.626781
O56   O     O_R   0.585969 0.545761 0.201534 -0.782540
H46   H     H_    0.575368 0.549394 0.233553 0.335073
C167  C     C_2   0.882780 0.044423 0.792936 0.951073
O57   O     O_2   0.880154 0.034580 0.736268 -0.660850
O58   O     O_R   0.902226 0.077342 0.829450 -0.741460
H47   H     H_    0.913273 0.090588 0.804088 0.337071
C168  C     C_2   0.118370 0.066286 0.166973 0.984677
O59   O     O_2   0.120891 0.072820 0.224778 -0.661223
O60   O     O_R   0.100412 0.091859 0.110087 -0.747283
H48   H     H_    0.089644 0.114166 0.122575 0.350039
C169  C     C_2   0.301496 0.520127 0.692616 1.006166
O61   O     O_2   0.274146 0.501142 0.648853 -0.605371
O62   O     O_R   0.310865 0.552383 0.669577 -0.774702
H49   H     H_    0.292906 0.557018 0.615636 0.354137
C170  C     C_2   0.698678 0.524766 0.306336 1.005935
O63   O     O_2   0.726193 0.506678 0.350766 -0.606489
O64   O     O_R   0.689164 0.557955 0.328107 -0.773353
H50   H     H_    0.707175 0.564001 0.381789 0.354765
C171  C     C_2   0.800889 0.043212 0.716116 0.983062
O65   O     O_2   0.773353 0.029201 0.662091 -0.607635
O66   O     O_R   0.810554 0.080683 0.715182 -0.772993
H51   H     H_    0.792611 0.093145 0.666940 0.354370
C172  C     C_2   0.199603 0.061790 0.248886 0.984953
O67   O     O_2   0.225779 0.054976 0.310684 -0.608699
O68   O     O_R   0.191393 0.099030 0.225710 -0.765264
H52   H     H_    0.208923 0.117730 0.265062 0.351999
C173  C     C_2   0.427660 0.618448 0.424890 0.958909
O69   O     O_2   0.405720 0.621840 0.359243 -0.588511
O70   O     O_R   0.416380 0.599837 0.466317 -0.820567
H53   H     H_    0.389733 0.589518 0.435550 0.348316
C174  C     C_2   0.572561 0.618411 0.577540 0.959029
O71   O     O_2   0.591563 0.621969 0.643874 -0.584452
O72   O     O_R   0.586942 0.599236 0.541008 -0.820759
H54   H     H_    0.613095 0.588774 0.575522 0.350237
C175  C     C_2   0.931153 0.120408 0.458745 0.961452
O73   O     O_2   0.902434 0.129127 0.401578 -0.585899
O74   O     O_R   0.928967 0.096658 0.506783 -0.844993
H55   H     H_    0.902224 0.087861 0.487394 0.338463
C176  C     C_2   0.064189 0.114607 0.505813 0.959876
O75   O     O_2   0.096747 0.124110 0.550427 -0.598474
O76   O     O_R   0.056750 0.086537 0.453903 -0.788955
H56   H     H_    0.080612 0.075598 0.459942 0.350718
O77   O     O_3   0.938021 0.692308 0.386735 -0.568690
C177  C     C_3   0.910886 0.702504 0.403846 0.124602
H57   H     H_    0.896117 0.727944 0.372072 0.200840
H58   H     H_    0.923549 0.710434 0.462328 0.116075
C178  C     C_3   0.881689 0.671046 0.381915 -0.387133
H59   H     H_    0.870068 0.662404 0.324312 0.259882
H60   H     H_    0.895420 0.646337 0.417149 0.229591
C179  C     C_3   0.849362 0.683751 0.390130 -0.879451
H61   H     H_    0.860313 0.692175 0.447549 0.269303
H62   H     H_    0.829017 0.660210 0.374629 0.284287
H63   H     H_    0.834319 0.707882 0.354079 0.263113
O78   O     O_3   0.054575 0.694451 0.624042 -0.570386
C180  C     C_3   0.080734 0.709248 0.608361 0.116960
H64   H     H_    0.091249 0.736447 0.638528 0.197176
H65   H     H_    0.068146 0.715630 0.549631 0.110331
C181  C     C_3   0.114292 0.682636 0.634429 -0.367092
H66   H     H_    0.126085 0.675366 0.692280 0.260794
H67   H     H_    0.104705 0.656363 0.600936 0.227773
C182  C     C_3   0.145245 0.700522 0.627749 -0.904270
H68   H     H_    0.134154 0.707647 0.570128 0.268447
H69   H     H_    0.168929 0.680411 0.646352 0.281290
H70   H     H_    0.156131 0.726459 0.662108 0.263938
O79   O     O_3   0.445747 0.193030 0.377153 -0.571722
C183  C     C_3   0.415865 0.205510 0.384779 0.098457
H71   H     H_    0.404792 0.231946 0.353715 0.190724
H72   H     H_    0.424901 0.212606 0.442109 0.119359
C184  C     C_3   0.383900 0.176363 0.352857 -0.368412
H73   H     H_    0.375843 0.168398 0.296642 0.261014
H74   H     H_    0.393661 0.150791 0.386846 0.231715
C185  C     C_3   0.349283 0.191650 0.350699 -0.853522
H75   H     H_    0.356576 0.199281 0.406552 0.270345
H76   H     H_    0.326814 0.169798 0.327757 0.289466
H77   H     H_    0.338266 0.216850 0.315770 0.259350
O80   O     O_3   0.552990 0.194406 0.626370 -0.573536
C186  C     C_3   0.582446 0.207344 0.618300 0.100820
H78   H     H_    0.593510 0.233917 0.650544 0.189811
H79   H     H_    0.572938 0.214350 0.561096 0.119209
C187  C     C_3   0.614610 0.178671 0.648007 -0.370195
H80   H     H_    0.623219 0.170796 0.704135 0.260309
H81   H     H_    0.604797 0.152983 0.612821 0.231024
C188  C     C_3   0.648754 0.194476 0.649547 -0.865638
H82   H     H_    0.640860 0.202181 0.593779 0.270446
H83   H     H_    0.671304 0.172881 0.670517 0.285489
H84   H     H_    0.659930 0.219726 0.685841 0.261296
C189  C     C_2   0.941514 0.613950 0.372648 0.959828
O81   O     O_2   0.933085 0.625706 0.313206 -0.567062
O82   O     O_R   0.923145 0.582348 0.376699 -0.853789
H85   H     H_    0.903700 0.571593 0.326880 0.331750
C190  C     C_2   0.057569 0.615262 0.629505 0.954266
O83   O     O_2   0.066563 0.625904 0.690549 -0.570411
O84   O     O_R   0.076739 0.585321 0.621222 -0.851692
H86   H     H_    0.097221 0.574709 0.669628 0.329688
C191  C     C_2   0.446974 0.114266 0.367013 0.968697
O85   O     O_2   0.442342 0.125278 0.309765 -0.559458
O86   O     O_R   0.426326 0.083495 0.366607 -0.851972
H87   H     H_    0.408767 0.072593 0.315880 0.341981
C192  C     C_2   0.553089 0.115508 0.634066 0.964960
O87   O     O_2   0.558223 0.126620 0.692249 -0.562696
O88   O     O_R   0.573946 0.085203 0.632307 -0.851325
H88   H     H_    0.592079 0.074667 0.682431 0.339080
C193  C     C_2   0.498872 0.305188 0.383715 0.940030
O89   O     O_2   0.481535 0.275565 0.359575 -0.609976
O90   O     O_R   0.518710 0.319790 0.354341 -0.756402
H89   H     H_    0.516598 0.303298 0.313833 0.343803
C194  C     C_2   0.499426 0.308986 0.618382 0.942089
O91   O     O_2   0.515807 0.279151 0.642455 -0.612986
O92   O     O_R   0.480368 0.325780 0.648236 -0.760259
H90   H     H_    0.482162 0.310560 0.689010 0.342064
C195  C     C_2   0.966991 0.803434 0.367831 0.937595
O93   O     O_2   0.948299 0.774891 0.355861 -0.617026
O94   O     O_R   0.973808 0.816031 0.315332 -0.785119
H91   H     H_    0.962085 0.799082 0.270435 0.347681
C196  C     C_2   0.021010 0.810415 0.640162 0.936585
O95   O     O_2   0.036717 0.779845 0.655809 -0.623994
O96   O     O_R   0.014052 0.828810 0.689146 -0.762960
H92   H     H_    0.023262 0.814006 0.735174 0.343972
O97   O     O_3   0.496369 0.385081 0.386279 -0.602375
C197  C     C_3   0.458392 0.388379 0.328044 0.061921
H93   H     H_    0.441658 0.404381 0.345660 0.150588
H94   H     H_    0.445256 0.360149 0.307048 0.144635
C198  C     C_3   0.457243 0.409497 0.266295 -0.268865
H95   H     H_    0.469915 0.437839 0.286348 0.246523
H96   H     H_    0.474090 0.393969 0.248569 0.243135
C199  C     C_3   0.416936 0.413729 0.201131 -0.866516
H97   H     H_    0.404069 0.385641 0.178842 0.255071
H98   H     H_    0.417194 0.429592 0.157808 0.291741
H99   H     H_    0.399552 0.429353 0.217451 0.281237
O98   O     O_3   0.505197 0.388464 0.616305 -0.602888
C200  C     C_3   0.543681 0.390633 0.673060 0.058105
H100  H     H_    0.560231 0.405827 0.654749 0.153443
H101  H     H_    0.555926 0.362079 0.691548 0.141729
C201  C     C_3   0.547056 0.412104 0.737641 -0.259568
H102  H     H_    0.535780 0.440910 0.720405 0.248862
H103  H     H_    0.530082 0.397608 0.755592 0.246493
C202  C     C_3   0.587958 0.414703 0.801563 -0.873849
H104  H     H_    0.599548 0.386134 0.820879 0.254846
H105  H     H_    0.589321 0.430774 0.847144 0.290507
H106  H     H_    0.605477 0.429391 0.785107 0.280588
O99   O     O_3   0.969649 0.883533 0.371214 -0.650806
C203  C     C_3   0.929964 0.887084 0.332607 0.099128
H107  H     H_    0.920747 0.900798 0.366934 0.152837
H108  H     H_    0.916040 0.859077 0.313931 0.151494
C204  C     C_3   0.917252 0.911245 0.265822 -0.311298
H109  H     H_    0.930878 0.939346 0.283781 0.226102
H110  H     H_    0.926268 0.897795 0.231066 0.240600
C205  C     C_3   0.874537 0.916255 0.220842 -0.895424
H111  H     H_    0.860196 0.888521 0.201435 0.258232
H112  H     H_    0.866566 0.933683 0.172778 0.297237
H113  H     H_    0.864971 0.930667 0.253847 0.262798
O100  O     O_3   0.027084 0.889511 0.631164 -0.605314
C206  C     C_3   0.066929 0.889703 0.669604 0.093353
H114  H     H_    0.076990 0.900148 0.634820 0.145419
H115  H     H_    0.078405 0.860976 0.688448 0.135186
C207  C     C_3   0.082112 0.915671 0.736265 -0.261170
H116  H     H_    0.070009 0.944193 0.718414 0.252256
H117  H     H_    0.073291 0.904836 0.772631 0.240680
C208  C     C_3   0.125075 0.918394 0.778595 -0.922515
H118  H     H_    0.137819 0.890220 0.798153 0.258485
H119  H     H_    0.135171 0.937512 0.826455 0.297115
H120  H     H_    0.134431 0.929847 0.743537 0.270186
C209  C     C_2   0.570747 0.524957 0.763012 0.951217
O101  O     O_2   0.596589 0.506357 0.810306 -0.609550
O102  O     O_R   0.578392 0.550764 0.724623 -0.707813
H121  H     H_    0.555832 0.566959 0.691037 0.303212
C210  C     C_2   0.429346 0.524545 0.237820 0.949138
O103  O     O_2   0.403965 0.505518 0.189130 -0.607780
O104  O     O_R   0.420951 0.549769 0.277186 -0.710490
H122  H     H_    0.443146 0.566441 0.311947 0.301928
C211  C     C_2   0.070642 0.026257 0.762225 0.962986
O105  O     O_2   0.097429 0.008634 0.809657 -0.577883
O106  O     O_R   0.076773 0.052559 0.722429 -0.715560
H123  H     H_    0.053461 0.067849 0.688777 0.293795
C212  C     C_2   0.939003 0.024513 0.238111 0.985413
O107  O     O_2   0.905832 0.016072 0.197193 -0.544621
O108  O     O_R   0.948155 0.059666 0.273389 -0.730963
H124  H     H_    0.976275 0.064958 0.302633 0.321684
C213  C     C_2   0.943352 0.383142 0.509866 0.938330
O109  O     O_2   0.932355 0.369366 0.546493 -0.606394
O110  O     O_R   0.925492 0.415019 0.468613 -0.783671
H125  H     H_    0.904371 0.424320 0.474474 0.353338
C214  C     C_2   0.058456 0.386102 0.487716 0.938616
O111  O     O_2   0.068617 0.373601 0.448197 -0.604987
O112  O     O_R   0.076233 0.417881 0.531337 -0.786944
H126  H     H_    0.096665 0.428171 0.524701 0.351438
C215  C     C_2   0.451902 0.883350 0.535731 0.945491
O113  O     O_2   0.448000 0.869971 0.582793 -0.618173
O114  O     O_R   0.430780 0.914738 0.497459 -0.752592
H127  H     H_    0.413847 0.924154 0.514425 0.355754
C216  C     C_2   0.549600 0.885056 0.463275 0.948877
O115  O     O_2   0.553789 0.872830 0.415158 -0.618149
O116  O     O_R   0.570858 0.915976 0.505691 -0.757412
H128  H     H_    0.588179 0.926099 0.490616 0.354297
O117  O     O_3   0.465672 0.524642 0.675742 -0.639320
C217  C     C_3   0.450623 0.559191 0.639966 0.079261
H129  H     H_    0.419747 0.558529 0.616836 0.198908
H130  H     H_    0.454138 0.563344 0.593288 0.178773
C218  C     C_3   0.467790 0.592633 0.693401 -0.392244
H131  H     H_    0.464765 0.588127 0.740484 0.247920
H132  H     H_    0.498278 0.595021 0.713849 0.243900
C219  C     C_3   0.448605 0.629410 0.656675 -0.837082
H133  H     H_    0.452182 0.634842 0.610530 0.278191
H134  H     H_    0.461593 0.653034 0.696685 0.272497
H135  H     H_    0.418034 0.628190 0.636178 0.270406
O118  O     O_3   0.534483 0.527007 0.327108 -0.640107
C220  C     C_3   0.548768 0.561553 0.365700 0.088375
H136  H     H_    0.579760 0.561668 0.390055 0.201564
H137  H     H_    0.544501 0.564959 0.411786 0.176929
C221  C     C_3   0.531587 0.595090 0.314598 -0.394869
H138  H     H_    0.535821 0.591560 0.268578 0.247260
H139  H     H_    0.500833 0.596393 0.292274 0.243956
C222  C     C_3   0.549495 0.632082 0.354778 -0.837851
H140  H     H_    0.544570 0.636567 0.399721 0.274287
H141  H     H_    0.536625 0.655767 0.316341 0.271569
H142  H     H_    0.580334 0.631912 0.377513 0.272321
O119  O     O_3   0.965770 0.020236 0.676755 -0.639607
C223  C     C_3   0.951926 0.056850 0.651910 0.129992
H143  H     H_    0.922863 0.053812 0.603245 0.199478
H144  H     H_    0.968737 0.073342 0.635533 0.151149
C224  C     C_3   0.950307 0.079035 0.710902 -0.389024
H145  H     H_    0.935873 0.061912 0.731104 0.258406
H146  H     H_    0.979389 0.085121 0.757272 0.240110
C225  C     C_3   0.929382 0.116129 0.681881 -0.840804
H147  H     H_    0.943488 0.133606 0.661288 0.273682
H148  H     H_    0.929392 0.131925 0.726347 0.264995
H149  H     H_    0.899673 0.110771 0.637117 0.274987
O120  O     O_3   0.027198 0.965597 0.321431 -0.643028
C226  C     C_3   0.023971 0.928387 0.338973 0.115917
H150  H     H_    0.997257 0.915410 0.294084 0.186323
H151  H     H_    0.024767 0.927605 0.390935 0.164788
C227  C     C_3   0.057267 0.905569 0.348695 -0.369223
H152  H     H_    0.057182 0.906014 0.297512 0.232257
H153  H     H_    0.084062 0.918492 0.393129 0.226361
C228  C     C_3   0.055353 0.864839 0.367479 -0.835067
H154  H     H_    0.054144 0.863533 0.417216 0.265144
H155  H     H_    0.080830 0.849547 0.377596 0.251358
H156  H     H_    0.030066 0.850805 0.321318 0.307525
C229  C     C_2   0.552297 0.552690 0.871767 0.878607
O121  O     O_2   0.554896 0.584274 0.853397 -0.617473
O122  O     O_R   0.572769 0.543446 0.945442 -0.821160
H157  H     H_    0.588075 0.565403 0.978276 0.353479
C230  C     C_2   0.448360 0.553581 0.131677 0.874641
O123  O     O_2   0.445372 0.585030 0.151598 -0.619453
O124  O     O_R   0.428253 0.544265 0.057489 -0.821657
H158  H     H_    0.412879 0.566068 0.025730 0.352030
C231  C     C_2   0.052921 0.052033 0.872686 0.891797
O125  O     O_2   0.055382 0.083678 0.854340 -0.605552
O126  O     O_R   0.073536 0.042676 0.946310 -0.779173
H159  H     H_    0.088954 0.064593 0.979085 0.385344
C232  C     C_2   0.943098 0.961718 0.130217 0.838220
O127  O     O_2   0.909472 0.968253 0.101543 -0.629402
O128  O     O_R   0.954692 0.928438 0.112962 -0.780081
H160  H     H_    0.932672 0.912653 0.074689 0.342766
O129  O     O_3   0.496420 0.465372 0.777521 -0.652620
C233  C     C_3   0.458049 0.455881 0.748252 0.191163
H161  H     H_    0.442396 0.459311 0.688252 0.209856
H162  H     H_    0.443570 0.473908 0.768221 0.129971
C234  C     C_3   0.455107 0.414628 0.763524 -0.391192
H163  H     H_    0.465548 0.396435 0.735974 0.248010
H164  H     H_    0.472936 0.409590 0.823005 0.245540
C235  C     C_3   0.414423 0.403765 0.736089 -0.845570
H165  H     H_    0.403780 0.420834 0.764623 0.270945
H166  H     H_    0.413129 0.373589 0.746989 0.265905
H167  H     H_    0.396040 0.408279 0.676479 0.280249
O130  O     O_3   0.505056 0.467191 0.222932 -0.650060
C236  C     C_3   0.543618 0.458730 0.251944 0.187675
H168  H     H_    0.559289 0.462981 0.311975 0.208684
H169  H     H_    0.557612 0.476875 0.231889 0.129247
C237  C     C_3   0.547471 0.417421 0.236357 -0.389508
H170  H     H_    0.537609 0.399247 0.264074 0.241829
H171  H     H_    0.529622 0.411474 0.176877 0.247495
C238  C     C_3   0.588346 0.407688 0.263258 -0.849331
H172  H     H_    0.598423 0.424740 0.234528 0.270609
H173  H     H_    0.590319 0.377454 0.252155 0.266516
H174  H     H_    0.606771 0.413120 0.322862 0.279424
O131  O     O_3   0.998047 0.964375 0.779323 -0.616759
C239  C     C_3   0.960543 0.953093 0.753465 0.138506
H175  H     H_    0.941490 0.977620 0.741838 0.164373
H176  H     H_    0.960155 0.934889 0.794102 0.156366
C240  C     C_3   0.945472 0.929971 0.683228 -0.288555
H177  H     H_    0.946382 0.947124 0.641931 0.261244
H178  H     H_    0.963653 0.904891 0.694480 0.253727
C241  C     C_3   0.904946 0.917071 0.652243 -0.920496
H179  H     H_    0.903412 0.899243 0.692079 0.267105
H180  H     H_    0.894924 0.900319 0.601509 0.273079
H181  H     H_    0.886140 0.941767 0.639154 0.283538
O132  O     O_3   0.025470 0.028048 0.241408 -0.627111
C242  C     C_3   0.062436 0.028761 0.254253 0.160358
H182  H     H_    0.076975 0.054010 0.288695 0.200980
H183  H     H_    0.062653 0.032454 0.203944 0.140012
C243  C     C_3   0.085408 0.994070 0.295787 -0.381856
H184  H     H_    0.088645 0.993618 0.349924 0.273111
H185  H     H_    0.070550 0.968104 0.264691 0.234619
C244  C     C_3   0.124636 0.994417 0.307571 -0.890437
H186  H     H_    0.122396 0.992510 0.254451 0.262753
H187  H     H_    0.140870 0.969790 0.340439 0.266856
H188  H     H_    0.140120 0.020481 0.337094 0.299343
C245  C     C_2   0.194476 0.450946 0.782797 0.925196
O133  O     O_2   0.224080 0.460109 0.838455 -0.633989
O134  O     O_R   0.179564 0.414997 0.776589 -0.737000
H189  H     H_    0.195832 0.399346 0.821509 0.348197
C246  C     C_2   0.805101 0.447123 0.220948 0.924091
O135  O     O_2   0.775665 0.455135 0.164537 -0.633272
O136  O     O_R   0.819530 0.410675 0.229973 -0.737560
H190  H     H_    0.803093 0.393683 0.186250 0.348068
C247  C     C_2   0.692361 0.931917 0.744027 0.927229
O137  O     O_2   0.721834 0.934044 0.803635 -0.638642
O138  O     O_R   0.676869 0.896602 0.713761 -0.741033
H191  H     H_    0.692630 0.875178 0.746285 0.345579
C248  C     C_2   0.307374 0.929145 0.261656 0.933714
O139  O     O_2   0.278221 0.929532 0.201411 -0.631225
O140  O     O_R   0.322232 0.894818 0.295944 -0.743921
H192  H     H_    0.306308 0.872512 0.265560 0.344095
O141  O     O_3   0.114195 0.454850 0.699389 -0.580746
C249  C     C_3   0.112621 0.471787 0.757019 0.110285
H193  H     H_    0.104151 0.501951 0.746195 0.132449
H194  H     H_    0.140550 0.470066 0.809021 0.139146
C250  C     C_3   0.083564 0.450768 0.765445 -0.282936
H195  H     H_    0.055556 0.451906 0.713527 0.240197
H196  H     H_    0.091994 0.420785 0.777613 0.242724
C251  C     C_3   0.080280 0.467888 0.826608 -0.942292
H197  H     H_    0.107848 0.466524 0.879319 0.272778
H198  H     H_    0.059049 0.451932 0.831356 0.277016
H199  H     H_    0.071107 0.497678 0.814763 0.268889
O142  O     O_3   0.885527 0.450431 0.304895 -0.582496
C252  C     C_3   0.887503 0.464039 0.246247 0.108654
H200  H     H_    0.896053 0.494273 0.254319 0.132667
H201  H     H_    0.859697 0.460902 0.194200 0.140864
C253  C     C_3   0.916711 0.441056 0.240572 -0.283695
H202  H     H_    0.944596 0.443647 0.292570 0.241887
H203  H     H_    0.908240 0.410915 0.231238 0.243067
C254  C     C_3   0.920372 0.454484 0.178327 -0.941692
H204  H     H_    0.892931 0.451597 0.125565 0.272340
H205  H     H_    0.941714 0.437177 0.175656 0.278019
H206  H     H_    0.929593 0.484375 0.187376 0.267462
O143  O     O_3   0.611960 0.936697 0.659502 -0.582978
C255  C     C_3   0.608954 0.937482 0.721194 0.097216
H207  H     H_    0.595798 0.964164 0.724198 0.144423
H208  H     H_    0.637163 0.934709 0.772332 0.133239
C256  C     C_3   0.584299 0.904460 0.715421 -0.283623
H209  H     H_    0.556248 0.906309 0.663887 0.238138
H210  H     H_    0.597721 0.877634 0.714276 0.243205
C257  C     C_3   0.578874 0.904261 0.779393 -0.926045
H211  H     H_    0.606558 0.901764 0.831581 0.267517
H212  H     H_    0.560935 0.879914 0.773500 0.280934
H213  H     H_    0.564737 0.930526 0.780575 0.266842
O144  O     O_3   0.387849 0.933627 0.347599 -0.584452
C258  C     C_3   0.391658 0.930642 0.286966 0.096416
H214  H     H_    0.406334 0.955778 0.283643 0.146304
H215  H     H_    0.363620 0.927773 0.235213 0.134513
C259  C     C_3   0.414922 0.895675 0.295407 -0.286570
H216  H     H_    0.442815 0.897800 0.347288 0.234114
H217  H     H_    0.400159 0.870315 0.297444 0.243540
C260  C     C_3   0.420994 0.891265 0.232509 -0.921740
H218  H     H_    0.393451 0.888413 0.179945 0.267790
H219  H     H_    0.437956 0.865633 0.240449 0.279325
H220  H     H_    0.436444 0.916008 0.230514 0.268775
C261  C     C_2   0.192499 0.553142 0.619433 0.959692
O145  O     O_2   0.177367 0.562321 0.555739 -0.604949
O146  O     O_R   0.227238 0.569134 0.671894 -0.816068
H221  H     H_    0.237112 0.587208 0.650251 0.356375
C262  C     C_2   0.808275 0.557908 0.375619 0.952011
O147  O     O_2   0.823784 0.570125 0.438164 -0.609845
O148  O     O_R   0.773450 0.572696 0.322011 -0.817419
H222  H     H_    0.763865 0.592660 0.341963 0.354842
C263  C     C_2   0.693453 0.065461 0.663684 0.957004
O149  O     O_2   0.678871 0.086081 0.610923 -0.612379
O150  O     O_R   0.728243 0.075501 0.725632 -0.812871
H223  H     H_    0.738623 0.099874 0.719542 0.356660
C264  C     C_2   0.307727 0.068296 0.319878 0.963341
O151  O     O_2   0.320331 0.091207 0.370212 -0.614065
O152  O     O_R   0.276003 0.077309 0.252088 -0.799512
H224  H     H_    0.266224 0.103507 0.251609 0.353878

loop_
_geom_bond_atom_site_label_1
_geom_bond_atom_site_label_2
_ccdc_geom_bond_type
C99   C103  A    
C242  H182  S    
C160  H34   S    
C55   C59   A    
C247  O137  D    
C142  C146  D    
C177  H58   S    
O119  C223  S    
C41   C65   A    
O110  H125  S    
C219  H133  S    
C144  C148  D    
C172  O67   D    
C234  C235  S    
C47   O27   A    
C203  H107  S    
C208  H120  S    
C177  C178  S    
O38   Zn5   S    
C243  H185  S    
C254  H204  S    
C29   C33   S    
C100  C104  A    
C236  C237  S    
C98   C108  S    
C157  H26   S    
C187  C188  S    
C136  C216  S    
C94   O10   A    
C98   O15   A    
C95   O7    A    
C257  H211  S    
O28   Zn4   S    
O9    Zn10  S    
C225  H147  S    
C11   C15   A    
O150  H223  S    
C72   C139  A    
C12   C16   A    
C211  O106  S    
C7    O131  S    
C158  H30   S    
C74   C176  S    
C70   C84   A    
C86   O34   A    
C166  O56   S    
C141  C145  D    
C103  C189  S    
C119  C128  A    
C243  C244  S    
C143  C151  S    
C100  C109  A    
C113  C133  A    
C4    C56   S    
C101  C105  A    
C256  H210  S    
C130  C134  A    
C146  O118  S    
C88   O40   A    
C41   C49   A    
C255  H207  S    
O21   Zn1   S    
O144  C258  S    
C204  C205  S    
C25   C29   A    
C188  H84   S    
C225  H148  S    
C27   C31   A    
O112  H126  S    
O88   H88   S    
C204  H110  S    
O15   Zn11  S    
C229  O122  S    
C62   C66   A    
C123  C126  A    
C78   C132  A    
C120  C196  S    
O13   Zn9   S    
C101  C110  A    
C216  O115  D    
C244  H186  S    
C223  C224  S    
C17   C21   A    
C3    O19   A    
O40   Zn7   S    
C244  H188  S    
C19   C23   A    
C210  O103  D    
O49   C153  S    
C188  H83   S    
C10   C30   A    
O68   H52   S    
C16   C20   A    
C258  C259  S    
O43   Zn7   S    
C12   C248  S    
C241  H179  S    
C88   C148  S    
C77   C129  A    
C96   O12   A    
C153  H18   S    
C260  H218  S    
C119  C195  S    
C23   H15   S    
C153  C154  S    
C254  H205  S    
C70   C138  S    
C216  O116  S    
C1    O17   A    
C164  H43   S    
C11   C247  S    
C261  O145  D    
O16   Zn12  S    
O148  H222  S    
O22   Zn1   S    
C238  H172  S    
O4    Zn2   S    
C190  O84   S    
C180  C181  S    
C162  H39   S    
O120  C226  S    
C64   C172  S    
C203  C204  S    
C144  C212  S    
C181  H66   S    
C75   C138  T    
C16   O144  S    
C90   C140  S    
O86   H87   S    
C57   C61   A    
O26   Zn3   S    
C119  C123  A    
C196  O95   D    
O12   Zn11  S    
C59   C63   A    
C157  C158  S    
C60   C64   A    
O130  C236  S    
C4    O20   A    
C237  H171  S    
O117  C217  S    
C168  O60   S    
O131  C239  S    
O5    Zn9   S    
C189  O81   D    
C84   H4    S    
C105  C191  S    
C217  H129  S    
C80   C126  S    
C49   C53   A    
C93   O5    A    
C221  H138  S    
C51   C55   A    
O134  H189  S    
C185  H75   S    
O3    Zn2   S    
C226  H151  S    
C22   H14   S    
C61   C65   A    
C251  H197  S    
C218  H132  S    
O77   C177  S    
C242  C243  S    
C114  C136  A    
C233  H161  S    
C103  C107  A    
C200  H100  S    
C73   C83   A    
C255  C256  S    
C159  H31   S    
C194  O92   S    
C52   H8    S    
C158  H29   S    
C6    O130  S    
C252  H200  S    
O42   Zn6   S    
C161  H36   S    
O99   C203  S    
O33   Zn5   S    
C198  H95   S    
C5    C149  D    
C206  H115  S    
C76   C137  T    
C50   H6    S    
C100  O78   S    
C150  C230  S    
C220  H136  S    
C64   C68   A    
C201  H102  S    
C135  C215  S    
C85   C145  S    
O29   Zn5   S    
C109  C111  S    
C90   O43   A    
C175  O74   S    
C141  C209  S    
C258  H214  S    
O11   Zn12  S    
C81   H1    S    
C155  H21   S    
C92   O47   A    
C212  O108  S    
C156  H24   S    
C118  C122  A    
C178  H60   S    
C25   C261  S    
C259  H216  S    
C260  H220  S    
C9    C13   A    
C69   C82   A    
C3    C55   S    
C240  H177  S    
C173  O70   S    
C233  C234  S    
C37   C65   S    
C58   C166  S    
C154  H19   S    
C148  O120  S    
C130  H10   S    
C20   C96   S    
C79   O30   A    
C231  O125  D    
C171  O66   S    
C49   H5    S    
C246  O135  D    
C181  C182  S    
O118  C220  S    
O102  H121  S    
C72   C174  S    
C46   O26   A    
C240  C241  S    
O19   Zn4   S    
C174  O72   S    
O8    Zn12  S    
C48   O24   A    
C30   C34   S    
C27   C263  S    
C145  O117  S    
O78   C180  S    
C24   H16   S    
C10   C14   A    
C93   O9    A    
C167  O58   S    
C89   O41   A    
C245  O134  S    
C80   O31   A    
C74   C140  A    
C221  C222  S    
C228  H155  S    
C259  C260  S    
C97   C107  S    
C121  C125  A    
C170  O63   D    
C121  O97   S    
C230  O124  S    
C206  H114  S    
C251  H199  S    
O20   Zn4   S    
C132  C136  A    
C253  H202  S    
C223  H144  S    
C169  O61   D    
C129  H9    S    
C88   O36   A    
C200  C201  S    
C187  H81   S    
C75   C77   S    
C163  H41   S    
C42   C50   A    
C159  C160  S    
C186  H79   S    
C26   C30   A    
C252  C253  S    
C40   C68   S    
C197  H94   S    
C17   C93   S    
C118  C127  A    
C143  C211  S    
C198  C199  S    
C19   C95   S    
C124  C126  A    
O44   Zn8   S    
C250  C251  S    
C45   O21   A    
O25   Zn3   S    
C213  O109  D    
C21   C25   A    
O132  C242  S    
C4    O4    A    
C18   C22   A    
C201  C202  S    
C28   C264  S    
C24   C28   A    
C74   C84   A    
C179  H61   S    
C163  C164  S    
C219  H134  S    
O124  H158  S    
O52   C162  S    
C57   C165  S    
C234  H164  S    
C155  H23   S    
C13   C17   A    
C156  C157  S    
C122  C125  A    
C203  H108  S    
C161  H35   S    
C144  C152  S    
O97   C197  S    
C184  C185  S    
C106  C108  A    
C149  C229  S    
O50   C156  S    
C215  O114  S    
C157  H27   S    
O47   Zn11  S    
C104  C107  A    
C98   O16   A    
C154  C155  S    
C110  C112  S    
C192  O88   S    
O45   Zn9   S    
O106  H123  S    
C10   C246  S    
O74   H55   S    
C182  H70   S    
C183  H71   S    
C43   C67   A    
C211  O105  D    
O58   H47   S    
C147  O119  S    
O146  H221  S    
C15   O143  S    
C164  H42   S    
C222  H140  S    
C208  H118  S    
C71   C81   A    
C58   C62   A    
C172  O68   S    
O1    Zn1   S    
C12   C32   A    
C222  H141  S    
O54   H45   S    
C199  H99   S    
O72   H54   S    
C255  H208  S    
C207  H116  S    
C162  H38   S    
C238  H173  S    
O41   Zn5   S    
C15   C19   A    
C264  O152  S    
C202  H105  S    
C50   C54   A    
C87   C147  S    
C180  H64   S    
C235  H165  S    
C262  O147  D    
C220  C221  S    
C191  O86   S    
C44   O52   S    
C229  O121  D    
C209  O102  S    
C205  H111  S    
O84   H86   S    
C99   C109  A    
C253  C254  S    
O37   Zn6   S    
C21   H13   S    
C60   C168  S    
C106  C192  S    
C244  H187  S    
C14   C18   A    
O10   Zn9   S    
C239  H176  S    
C258  H215  S    
C263  O149  D    
C241  H180  S    
O56   H46   S    
C111  C116  T    
C238  H174  S    
O17   Zn3   S    
C85   O33   A    
O2    Zn1   S    
C180  H65   S    
C177  H57   S    
C59   C167  S    
C160  C161  S    
O108  H124  S    
C118  C194  S    
O129  C233  S    
C213  O110  S    
C86   O38   A    
C212  O107  D    
C179  H63   S    
C86   C146  S    
O23   Zn2   S    
C87   O35   A    
C176  O76   S    
C208  H119  S    
C43   O51   S    
C45   O25   A    
C193  O90   S    
C63   C171  S    
C241  H181  S    
C247  O138  S    
C85   O37   A    
O104  H122  S    
O122  H157  S    
C91   O45   A    
C181  H67   S    
C2    C54   S    
O64   H50   S    
C53   C57   A    
O14   Zn10  S    
C226  C227  S    
C185  H77   S    
C243  H184  S    
C219  H135  S    
C5    C45   S    
C33   C37   T    
O70   H53   S    
C7    C47   S    
C35   C39   T    
O138  H191  S    
C8    C48   S    
C168  O59   D    
C236  H169  S    
C99   O77   S    
C217  H130  S    
C182  H68   S    
C183  C184  S    
C28   C32   A    
C224  C225  S    
C221  H139  S    
O51   C159  S    
O35   Zn7   S    
O48   Zn12  S    
C185  H76   S    
C70   C83   A    
C117  C127  A    
C14   O142  S    
C2    O2    A    
C7    C151  D    
C73   C140  A    
C251  H198  S    
C249  H194  S    
C113  C134  A    
C242  H183  S    
C256  C257  S    
C31   C35   S    
C102  C110  A    
O31   Zn7   S    
C8    O132  S    
C249  H193  S    
C32   C36   S    
C184  H73   S    
C239  H175  S    
C217  C218  S    
C159  H32   S    
C194  O91   D    
C264  O151  D    
O92   H90   S    
C42   O50   S    
C96   O8    A    
C8    C152  D    
C235  H167  S    
C76   C78   S    
C248  O140  S    
O96   H92   S    
C120  C128  A    
C218  C219  S    
C249  C250  S    
O18   Zn3   S    
C250  H196  S    
C142  C150  S    
C201  H103  S    
O6    Zn10  S    
C153  H17   S    
C90   O44   A    
C43   C51   A    
C175  O73   D    
O142  C252  S    
C155  H22   S    
C92   O48   A    
C77   C130  A    
C47   O23   A    
C178  H59   S    
C259  H217  S    
C260  H219  S    
C69   C81   A    
O76   H56   S    
C6    C150  D    
C56   C60   A    
C102  O80   S    
C254  H206  S    
C83   H3    S    
O98   C200  S    
C220  H137  S    
C173  O69   D    
C22   C26   A    
C164  H44   S    
O143  C255  S    
C195  O94   S    
C151  C231  S    
C134  C214  S    
C142  C210  S    
O126  H159  S    
C225  H149  S    
C162  C163  S    
O79   C183  S    
C79   O29   A    
C123  O99   S    
C171  O65   D    
O34   Zn6   S    
O82   H85   S    
O24   Zn2   S    
O116  H128  S    
C3    O3    A    
C71   C173  S    
C132  H12   S    
O141  C249  S    
C141  C149  S    
O94   H91   S    
C240  H178  S    
C174  O71   D    
C143  C147  D    
C196  O96   S    
C250  H195  S    
C218  H131  S    
C101  O79   S    
C237  H170  S    
O30   Zn6   S    
C199  H98   S    
C193  O89   D    
C91   O46   A    
C131  C135  A    
C189  O82   S    
C224  H145  S    
C80   O32   A    
C13   O141  S    
C62   C170  S    
C115  C127  S    
O128  H160  S    
C210  O104  S    
C228  H154  S    
C1    O1    A    
C246  O136  S    
C117  C121  A    
O100  C206  S    
C1    C53   S    
C165  O54   S    
C120  C124  A    
C186  H78   S    
C89   C139  S    
C253  H203  S    
C227  H153  S    
C114  C135  A    
C263  O150  S    
C131  H11   S    
C200  H101  S    
C230  O123  D    
C239  C240  S    
C9    C29   A    
O62   H49   S    
C11   C31   A    
O39   Zn8   S    
C252  H201  S    
O36   Zn8   S    
C133  C213  S    
C197  C198  S    
C176  O75   D    
C46   O22   A    
O46   Zn10  S    
C104  C190  S    
C169  O62   S    
O27   Zn4   S    
C198  H96   S    
C236  H168  S    
C206  C207  S    
C257  H212  S    
C214  O112  S    
C69   C137  S    
C105  C108  A    
C63   C67   A    
C226  H150  S    
O32   Zn8   S    
O114  H127  S    
C38   C66   S    
C36   C40   T    
C222  H142  S    
C179  H62   S    
C204  H109  S    
O66   H51   S    
C71   C139  A    
C227  C228  S    
C167  O57   D    
C117  C193  S    
C248  O139  D    
C91   C113  S    
C156  H25   S    
C178  C179  S    
C73   C175  S    
C78   C131  A    
C2    O18   A    
C214  O111  D    
C227  H152  S    
C184  H74   S    
C202  H104  S    
C256  H209  S    
C234  H163  S    
C224  H146  S    
C232  O127  D    
C215  O113  D    
C202  H106  S    
C154  H20   S    
C257  H213  S    
C87   O39   A    
C192  O87   D    
C26   C262  S    
C94   O6    A    
C95   O11   A    
C182  H69   S    
C41   O49   S    
O80   C186  S    
C23   C27   A    
C231  O126  S    
O60   H48   S    
C116  C128  S    
C18   C94   S    
C129  C133  A    
C44   C68   A    
C161  H37   S    
C124  O100  S    
O7    Zn11  S    
C160  H33   S    
C97   O14   A    
C190  O83   D    
C54   C58   A    
C199  H97   S    
C6    C46   S    
C34   C38   T    
C39   C67   S    
C237  C238  S    
C207  H117  S    
C158  H28   S    
C97   O13   A    
C89   O42   A    
O152  H224  S    
C261  O146  S    
C188  H82   S    
C152  C232  S    
C228  H156  S    
C235  H166  S    
O136  H190  S    
C170  O64   S    
C191  O85   D    
C44   C52   A    
C209  O101  D    
C195  O93   D    
C205  H112  S    
C61   C169  S    
C51   H7    S    
C223  H143  S    
C232  O128  S    
C48   O28   A    
C102  C106  A    
C233  H162  S    
C79   C125  S    
C187  H80   S    
C20   C24   A    
C9    C245  S    
C207  C208  S    
C163  H40   S    
O140  H192  S    
C82   H2    S    
C52   C56   A    
C186  C187  S    
C5    O129  S    
C245  O133  D    
C183  H72   S    
C42   C66   A    
C197  H93   S    
C262  O148  S    
C166  O55   D    
C92   C114  S    
C112  C115  T    
C72   C82   A    
O90   H89   S    
C122  O98   S    
C205  H113  S    
C165  O53   D    
