data_mof_unit_16761.cif
_audit_creation_date              2012-12-11T14:19:29-0500
_audit_creation_method            fapswitch 2.2
_symmetry_space_group_name_H-M    P1
_symmetry_Int_Tables_number       1
_space_group_crystal_system       triclinic
_cell_length_a                    19.417768
_cell_length_b                    7.233265
_cell_length_c                    17.77097
_cell_angle_alpha                 89.99997
_cell_angle_beta                  107.82799
_cell_angle_gamma                 90.000062
_cell_volume                      2376.1432306

loop_
_atom_site_label
_atom_site_type_symbol
_atom_type_description
_atom_site_fract_x
_atom_site_fract_y
_atom_site_fract_z
_atom_type_partial_charge
O1    O     O_R   0.414820 0.494320 0.416790 -0.536805
O2    O     O_R   0.585180 0.994320 0.583210 -0.536806
O3    O     O_R   0.560270 0.819500 0.430140 -0.544840
O4    O     O_R   0.439730 0.319500 0.569860 -0.544839
C1    C     C_R   0.581124 0.655328 0.414699 0.714604
C2    C     C_R   0.418876 0.155328 0.585302 0.714608
O5    O     O_R   0.413840 0.823740 0.407440 -0.539556
O6    O     O_R   0.586160 0.323740 0.592560 -0.539557
O7    O     O_R   0.437710 0.998590 0.560350 -0.541054
O8    O     O_R   0.562290 0.498590 0.439650 -0.541054
C3    C     C_R   0.387119 0.654765 0.385816 0.744186
C4    C     C_R   0.612881 0.154765 0.614184 0.744186
O9    O     O_3   0.508000 0.662290 0.550200 -0.379889
O10   O     O_3   0.492000 0.162290 0.449800 -0.379889
V1    V     V_3+5 0.498520 0.935380 0.490690 1.418166
V2    V     V_3+5 0.501480 0.435380 0.509310 1.418166
C5    C     C_2   0.798513 0.269088 0.768534 -0.005764
C6    C     C_2   0.201481 0.769078 0.231473 -0.005771
C7    C     C_2   0.820359 0.119143 0.816676 -0.322370
C8    C     C_2   0.179641 0.619143 0.183323 -0.322366
H1    H     H_    0.784845 0.000914 0.810738 0.170918
H2    H     H_    0.215161 0.500929 0.189253 0.170898
C9    C     C_2   0.724376 0.283385 0.709840 -0.173991
C10   C     C_2   0.275620 0.783381 0.290164 -0.173988
C11   C     C_2   0.682028 0.137790 0.678989 -0.318849
C12   C     C_2   0.317971 0.637789 0.321012 -0.318856
H3    H     H_    0.706196 0.420030 0.686817 0.172295
H4    H     H_    0.293799 0.920026 0.313189 0.172304
H5    H     H_    0.700492 0.998590 0.697073 0.158657
H6    H     H_    0.299508 0.498589 0.302927 0.158659
C13   C     C_R   0.326037 0.992528 0.633767 -0.210234
C14   C     C_R   0.673963 0.492528 0.366234 -0.210239
C15   C     C_R   0.370475 0.147418 0.635652 -0.079432
C16   C     C_R   0.629525 0.647419 0.364349 -0.079431
C17   C     C_R   0.367957 0.296767 0.685417 -0.215386
C18   C     C_R   0.632045 0.796770 0.314585 -0.215388
C19   C     C_R   0.322202 0.292254 0.732985 0.093578
C20   C     C_R   0.677802 0.792258 0.267018 0.093576
C21   C     C_R   0.276840 0.138432 0.729892 0.067805
C22   C     C_R   0.723162 0.638434 0.270110 0.067806
C23   C     C_R   0.278772 0.987945 0.679906 0.089207
C24   C     C_R   0.721228 0.487945 0.320094 0.089207
C25   C     C_R   0.321499 0.438943 0.783989 -0.189297
C26   C     C_R   0.678507 0.938951 0.216017 -0.189296
C27   C     C_R   0.276612 0.433628 0.832040 -0.162090
C28   C     C_R   0.723395 0.933635 0.167966 -0.162092
C29   C     C_R   0.229591 0.282776 0.829118 0.019919
C30   C     C_R   0.770413 0.782779 0.170886 0.019918
C31   C     C_R   0.229764 0.134710 0.777027 0.040490
C32   C     C_R   0.770238 0.634710 0.222976 0.040493
C33   C     C_R   0.183810 0.981414 0.772562 0.093320
C34   C     C_R   0.816190 0.481412 0.227439 0.093314
C35   C     C_R   0.185955 0.832922 0.722393 -0.161667
C36   C     C_R   0.814044 0.332917 0.277606 -0.161674
C37   C     C_R   0.233273 0.835686 0.676838 -0.192070
C38   C     C_R   0.766726 0.335683 0.323161 -0.192073
C39   C     C_R   0.183923 0.274017 0.878076 -0.044575
C40   C     C_R   0.816080 0.774018 0.121928 -0.044572
C41   C     C_R   0.135151 0.122713 0.870631 -0.144204
C42   C     C_R   0.864850 0.622713 0.129371 -0.144205
C43   C     C_R   0.136256 0.978367 0.817976 -0.186924
C44   C     C_R   0.863745 0.478366 0.182025 -0.186925
H7    H     H_    0.402384 0.416127 0.687970 0.132517
H8    H     H_    0.597618 0.916131 0.312032 0.132516
H9    H     H_    0.099541 0.862512 0.811962 0.160534
H10   H     H_    0.900459 0.362510 0.188039 0.160544
H11   H     H_    0.151294 0.713675 0.718779 0.141778
H12   H     H_    0.848703 0.213668 0.281219 0.141780
H13   H     H_    0.234146 0.718714 0.639037 0.135205
H14   H     H_    0.765851 0.218708 0.360961 0.135204
O11   O     O_R   0.937810 0.773680 0.060480 -0.524463
O12   O     O_R   0.062190 0.273680 0.939520 -0.524464
O13   O     O_R   0.086190 0.439740 0.092580 -0.521505
O14   O     O_R   0.913810 0.939740 0.907420 -0.521506
C45   C     C_R   0.111518 0.609200 0.116081 0.777108
C46   C     C_R   0.888482 0.109200 0.883919 0.777081
O15   O     O_R   0.939760 0.444210 0.069890 -0.549756
O16   O     O_R   0.060240 0.944210 0.930110 -0.549761
O17   O     O_R   0.914790 0.269640 0.916760 -0.535842
O18   O     O_R   0.085210 0.769640 0.083240 -0.535841
C47   C     C_R   0.917409 0.612731 0.083095 0.727772
C48   C     C_R   0.082591 0.112731 0.916905 0.727765
O19   O     O_3   0.992050 0.601530 0.949880 -0.377677
O20   O     O_3   0.007950 0.101530 0.050120 -0.377670
V3    V     V_3+5 0.001480 0.328340 0.009300 1.526230
V4    V     V_3+5 0.998520 0.828340 0.990700 1.526219
C49   C     C_2   0.848023 0.426883 0.769716 0.791156
O21   O     O_2   0.824798 0.585214 0.762786 -0.571046
O22   O     O_R   0.920470 0.393949 0.775484 -0.662021
H15   H     H_    0.948419 0.512155 0.775066 0.292605
C50   C     C_2   0.151963 0.926848 0.230303 0.791157
O23   O     O_2   0.175183 0.085183 0.237263 -0.571047
O24   O     O_R   0.079514 0.893883 0.224516 -0.662023
H16   H     H_    0.051560 0.012074 0.224946 0.292608
H17   H     H_    0.327254 0.876917 0.595364 0.127816
H18   H     H_    0.672745 0.376915 0.404636 0.127815
H19   H     H_    0.356236 0.557919 0.787259 0.136230
H20   H     H_    0.643772 0.057929 0.212748 0.136231
H21   H     H_    0.279219 0.549698 0.871104 0.160950
H22   H     H_    0.720791 0.049709 0.128906 0.160939
C51   C     C_2   0.190897 0.415565 0.940396 0.748598
O25   O     O_2   0.212590 0.370514 0.010017 -0.563807
O26   O     O_R   0.171739 0.598913 0.919405 -0.674613
H23   H     H_    0.178743 0.681925 0.967135 0.288109
C52   C     C_2   0.809104 0.915565 0.059607 0.748603
O27   O     O_2   0.787394 0.870522 0.989985 -0.563796
O28   O     O_R   0.828280 0.098905 0.080598 -0.674608
H24   H     H_    0.821272 0.181919 0.032868 0.288110

loop_
_geom_bond_atom_site_label_1
_geom_bond_atom_site_label_2
_ccdc_geom_bond_type
C49   O21   D    
O4    V2    S    
O24   H16   S    
O1    C3    A    
C46   O17   A    
O2    C4    A    
C2    O7    A    
O12   V3    S    
C29   C31   A    
O5    C3    A    
C52   O28   S    
C5    C9    S    
O14   C46   A    
C6    C10   S    
C6    C50   S    
C7    C46   S    
C7    H1    S    
C10   C12   D    
C13   H17   S    
C39   C41   A    
C36   H12   S    
C40   C42   A    
C42   C44   A    
C27   C29   A    
C23   C37   A    
O18   V4    S    
O26   H23   S    
C24   C38   A    
C26   H20   S    
C26   C28   A    
C31   C33   A    
C33   C43   A    
C32   C34   A    
O28   H24   S    
C41   C48   S    
C9    H3    S    
C45   O18   A    
C16   C18   A    
O16   V4    S    
C30   C32   A    
O15   V3    S    
O6    V2    S    
O13   C45   A    
C34   C36   A    
C28   C30   A    
C35   C37   A    
C11   H5    S    
C36   C38   A    
C41   C43   A    
C44   H10   S    
C51   O25   D    
C25   H19   S    
O20   V3    S    
O4    C2    A    
C27   H21   S    
C50   O23   D    
C5    C7    D    
O5    V1    S    
C3    C12   S    
C8    C45   S    
C33   C35   A    
C14   C16   A    
C19   C25   A    
C20   C26   A    
C50   O24   S    
O11   V4    S    
C42   C47   S    
O16   C48   A    
O15   C47   A    
O6    C4    A    
C1    C16   S    
C13   C15   A    
O1    V2    S    
O14   V4    S    
O2    V1    S    
C25   C27   A    
O13   V3    S    
C37   H13   S    
C14   H18   S    
C8    H2    S    
C12   H6    S    
C38   H14   S    
C49   O22   S    
O17   V3    S    
O3    V1    S    
C28   H22   S    
C13   C23   A    
C17   C19   A    
C5    C49   S    
C10   H4    S    
O3    C1    A    
C17   H7    S    
C21   C31   A    
C30   C40   A    
C39   C51   S    
C52   O27   D    
C2    C15   S    
C4    C11   S    
C40   C52   S    
C18   C20   A    
O7    V1    S    
C1    O8    A    
C19   C21   A    
C34   C44   A    
C20   C22   A    
C22   C32   A    
C22   C24   A    
C15   C17   A    
C6    C8    D    
C9    C11   D    
C35   H11   S    
C43   H9    S    
O19   V4    S    
C21   C23   A    
C51   O26   S    
O9    V2    S    
C29   C39   A    
C14   C24   A    
O10   V1    S    
O8    V2    S    
O22   H15   S    
C18   H8    S    
O12   C48   A    
O11   C47   A    
