data_mof_unit_52909.cif
_audit_creation_date              2013-03-05T15:52:21-0500
_audit_creation_method            fapswitch 2.2
_symmetry_space_group_name_H-M    P1
_symmetry_Int_Tables_number       1
_space_group_crystal_system       triclinic
_cell_length_a                    15.064961
_cell_length_b                    15.259384
_cell_length_c                    9.900512
_cell_angle_alpha                 88.317411
_cell_angle_beta                  93.557901
_cell_angle_gamma                 89.888491
_cell_volume                      2270.56743914

loop_
_atom_site_label
_atom_site_type_symbol
_atom_site_description
_atom_site_fract_x
_atom_site_fract_y
_atom_site_fract_z
_atom_type_partial_charge
O1    O     O_R   0.408390 0.908380 0.614690 -0.609760
O2    O     O_R   0.408390 0.091620 0.614690 -0.605347
O3    O     O_R   0.908390 0.408380 0.614690 -0.609738
O4    O     O_R   0.908390 0.591620 0.614690 -0.605337
O5    O     O_R   0.408370 0.908380 0.385360 -0.642446
O6    O     O_R   0.408370 0.091620 0.385360 -0.643973
O7    O     O_R   0.908370 0.408380 0.385360 -0.642466
O8    O     O_R   0.908370 0.591620 0.385360 -0.643989
C1    C     C_R   0.384934 0.875514 0.498213 0.858199
C2    C     C_R   0.383612 0.124106 0.496381 0.857537
C3    C     C_R   0.884935 0.375513 0.498212 0.858113
C4    C     C_R   0.883617 0.624108 0.496382 0.857561
Zn1   Zn    Zn3+2 0.500010 1.000000 0.653130 0.972438
Zn2   Zn    Zn3+2 0.000010 0.500000 0.653130 0.972458
Zn3   Zn    Zn3+2 0.499980 1.000000 0.346870 0.946051
Zn4   Zn    Zn3+2 0.999980 0.500000 0.346870 0.946056
O9    O     O_R   0.591620 0.091610 0.614640 -0.619266
O10   O     O_R   0.591620 0.908390 0.614640 -0.614762
O11   O     O_R   0.091620 0.591610 0.614640 -0.619275
O12   O     O_R   0.091620 0.408390 0.614640 -0.614747
O13   O     O_R   0.591610 0.091610 0.385310 -0.598655
O14   O     O_R   0.591610 0.908390 0.385310 -0.596346
O15   O     O_R   0.091610 0.591610 0.385310 -0.598665
O16   O     O_R   0.091610 0.408390 0.385310 -0.596300
C5    C     C_R   0.614792 0.125450 0.502113 0.895942
C6    C     C_R   0.612673 0.872814 0.504595 0.891974
C7    C     C_R   0.114792 0.625450 0.502113 0.895938
C8    C     C_R   0.112667 0.372810 0.504597 0.891919
H1    H     H_    0.253340 0.148495 0.305201 0.155894
H2    H     H_    0.255010 0.861131 0.308657 0.161529
H3    H     H_    0.753358 0.648497 0.305204 0.155852
H4    H     H_    0.755013 0.361127 0.308648 0.161543
C9    C     C_R   0.384890 0.265279 0.692898 -0.225199
C10   C     C_R   0.393960 0.718166 0.681344 -0.255291
C11   C     C_R   0.884909 0.765287 0.692892 -0.225209
C12   C     C_R   0.893962 0.218168 0.681337 -0.255173
H5    H     H_    0.451847 0.255719 0.661904 0.152655
H6    H     H_    0.460239 0.732897 0.650795 0.152599
H7    H     H_    0.951866 0.755722 0.661897 0.152643
H8    H     H_    0.960241 0.232890 0.650777 0.152593
C13   C     C_R   0.371311 0.298288 0.820270 0.052160
C14   C     C_R   0.382072 0.675602 0.806320 0.043135
C15   C     C_R   0.871333 0.798303 0.820261 0.052158
C16   C     C_R   0.882075 0.175598 0.806307 0.043120
C17   C     C_R   0.784978 0.798520 0.865561 0.158537
C18   C     C_R   0.796391 0.171681 0.854291 0.141984
C19   C     C_R   0.284956 0.298499 0.865568 0.158539
C20   C     C_R   0.296386 0.671676 0.854295 0.142034
C21   C     C_R   0.712270 0.793688 0.768357 0.008298
C22   C     C_R   0.722413 0.187398 0.761113 0.027174
C23   C     C_R   0.212248 0.293667 0.768365 0.008304
C24   C     C_R   0.222410 0.687391 0.761113 0.027172
C25   C     C_R   0.728136 0.778968 0.630098 -0.026957
C26   C     C_R   0.736525 0.208443 0.623032 -0.026033
C27   C     C_R   0.228116 0.278951 0.630107 -0.026954
C28   C     C_R   0.236523 0.708439 0.623034 -0.026053
C29   C     C_R   0.311495 0.246091 0.603716 0.064552
C30   C     C_R   0.319061 0.743070 0.596653 0.049572
C31   C     C_R   0.811513 0.746101 0.603711 0.064571
C32   C     C_R   0.819062 0.243072 0.596649 0.049554
C33   C     C_R   0.318285 0.193608 0.490432 -0.133427
C34   C     C_R   0.321781 0.805352 0.490706 -0.132532
C35   C     C_R   0.818297 0.693612 0.490433 -0.133407
C36   C     C_R   0.821783 0.305350 0.490700 -0.132589
C37   C     C_R   0.249367 0.191376 0.389836 -0.215902
C38   C     C_R   0.252631 0.812206 0.390074 -0.204620
C39   C     C_R   0.749382 0.691379 0.389838 -0.215839
C40   C     C_R   0.752633 0.312204 0.390067 -0.204610
C41   C     C_R   0.674177 0.742835 0.399418 0.187136
C42   C     C_R   0.680174 0.256718 0.394395 0.169843
C43   C     C_R   0.174149 0.242814 0.399440 0.187175
C44   C     C_R   0.180172 0.756720 0.394400 0.169839
C45   C     C_R   0.666849 0.793070 0.516203 -0.147665
C46   C     C_R   0.673639 0.200962 0.509974 -0.139466
C47   C     C_R   0.166826 0.293052 0.516217 -0.147640
C48   C     C_R   0.173638 0.700960 0.509976 -0.139469
C49   C     C_R   0.338893 0.024007 0.121458 -0.222779
C50   C     C_R   0.838902 0.524036 0.121463 -0.222733
H9    H     H_    0.330776 0.017897 0.227469 0.210978
H10   H     H_    0.830783 0.517908 0.227471 0.210979
C51   C     C_R   0.264176 0.048723 0.037614 -0.263110
C52   C     C_R   0.764196 0.548798 0.037631 -0.263062
H11   H     H_    0.203683 0.068909 0.081801 0.174938
H12   H     H_    0.703714 0.569001 0.081832 0.174892
C53   C     C_R   0.265956 0.039302 0.897581 0.214173
C54   C     C_R   0.765956 0.539371 0.897599 0.214238
C55   C     C_R   0.337066 0.991733 0.851598 0.262263
C56   C     C_R   0.837045 0.491778 0.851597 0.262231
C57   C     C_R   0.420409 0.002463 0.921481 0.090058
C58   C     C_R   0.920405 0.502458 0.921482 0.090038
C59   C     C_R   0.420721 0.008239 0.064679 0.128305
C60   C     C_R   0.920722 0.508243 0.064680 0.128255
N1    N     N_R   0.498810 0.000000 0.142780 -0.130930
N2    N     N_R   0.998810 0.500000 0.142780 -0.130926
C61   C     C_R   0.576996 0.996612 0.079330 -0.029591
C62   C     C_R   0.076995 0.496603 0.079330 -0.029551
C63   C     C_R   0.576861 0.997390 0.935136 -0.013924
C64   C     C_R   0.076861 0.497383 0.935136 -0.013955
N3    N     N_R   0.498740 0.000000 0.857170 -0.128660
N4    N     N_R   0.998740 0.500000 0.857170 -0.128631
C65   C     C_3   0.183081 0.053377 0.807699 -0.869735
H13   H     H_    0.157885 0.120661 0.819120 0.248602
H14   H     H_    0.196867 0.045882 0.699503 0.235775
H15   H     H_    0.131668 0.005053 0.835303 0.260498
C66   C     C_3   0.683063 0.553450 0.807752 -0.870321
H16   H     H_    0.696780 0.545845 0.699618 0.235864
H17   H     H_    0.631637 0.505224 0.835463 0.260573
H18   H     H_    0.657925 0.620734 0.819031 0.248656
C67   C     C_3   0.310203 0.897805 0.829945 -0.829599
H19   H     H_    0.268669 0.892486 0.734061 0.246378
H20   H     H_    0.369374 0.854660 0.832444 0.261486
H21   H     H_    0.270271 0.872530 0.913548 0.224841
C68   C     C_3   0.810112 0.397874 0.829795 -0.829255
H22   H     H_    0.768755 0.392629 0.733710 0.246369
H23   H     H_    0.869251 0.354650 0.832578 0.261356
H24   H     H_    0.769920 0.372630 0.913150 0.224821
C69   C     C_1   0.659008 0.993303 0.868632 0.232459
N5    N     N_1   0.724884 0.989657 0.814832 -0.198509
C70   C     C_1   0.159008 0.493291 0.868633 0.232456
N6    N     N_1   0.224884 0.489642 0.814835 -0.198499
C71   C     C_1   0.444609 0.334696 0.900940 0.198479
N7    N     N_1   0.502833 0.364787 0.965700 -0.214325
C72   C     C_1   0.457122 0.642181 0.890094 0.204866
N8    N     N_1   0.515864 0.614965 0.959827 -0.228413
C73   C     C_1   0.944633 0.834711 0.900927 0.198457
N9    N     N_1   0.002859 0.864802 0.965686 -0.214313
C74   C     C_1   0.957124 0.142137 0.890048 0.204832
N10   N     N_1   0.015866 0.114885 0.959747 -0.228415
C75   C     C_3   0.770110 0.802160 0.015243 -0.883637
H25   H     H_    0.832884 0.801510 0.080008 0.251945
H26   H     H_    0.732528 0.861867 0.035785 0.237503
H27   H     H_    0.731358 0.743963 0.046216 0.242035
C76   C     C_3   0.786546 0.152802 0.003947 -0.885377
H28   H     H_    0.822853 0.203310 0.063909 0.246752
H29   H     H_    0.716803 0.153326 0.032865 0.234522
H30   H     H_    0.815357 0.087453 0.032964 0.257337
C77   C     C_3   0.270088 0.302129 0.015248 -0.883729
H31   H     H_    0.332860 0.301492 0.080015 0.251961
H32   H     H_    0.232490 0.361823 0.035794 0.237513
H33   H     H_    0.231355 0.243918 0.046212 0.242000
C78   C     C_3   0.286535 0.652795 0.003950 -0.885399
H34   H     H_    0.322831 0.703308 0.063916 0.246742
H35   H     H_    0.216790 0.653308 0.032861 0.234518
H36   H     H_    0.315355 0.587450 0.032971 0.257338
C79   C     C_1   0.623765 0.796461 0.816169 0.179133
N11   N     N_1   0.553894 0.801429 0.857260 -0.223290
C80   C     C_1   0.635482 0.194638 0.812536 0.188240
N12   N     N_1   0.566361 0.197847 0.856230 -0.219770
C81   C     C_1   0.123742 0.296448 0.816171 0.179100
N13   N     N_1   0.053871 0.301420 0.857259 -0.223272
C82   C     C_1   0.135479 0.694629 0.812536 0.188266
N14   N     N_1   0.066358 0.697836 0.856232 -0.219770
C83   C     C_3   0.601182 0.738897 0.288100 -0.845102
H37   H     H_    0.535266 0.752914 0.327356 0.237172
H38   H     H_    0.614494 0.786940 0.205472 0.257598
H39   H     H_    0.597308 0.672325 0.245493 0.230127
C84   C     C_3   0.608522 0.263123 0.280692 -0.832325
H40   H     H_    0.541708 0.262516 0.322291 0.230627
H41   H     H_    0.613932 0.324918 0.219637 0.236580
H42   H     H_    0.614521 0.207882 0.211395 0.259067
C85   C     C_3   0.101137 0.238841 0.288154 -0.845214
H43   H     H_    0.035250 0.253122 0.327308 0.237262
H44   H     H_    0.114576 0.286676 0.205307 0.257505
H45   H     H_    0.097095 0.172176 0.245900 0.230160
C86   C     C_3   0.108520 0.763126 0.280697 -0.832340
H46   H     H_    0.041706 0.762522 0.322298 0.230622
H47   H     H_    0.113932 0.824920 0.219640 0.236585
H48   H     H_    0.114516 0.707884 0.211401 0.259071
C87   C     C_1   0.659941 0.995401 0.160270 0.224096
N15   N     N_1   0.726607 0.994372 0.225120 -0.197231
C88   C     C_1   0.159941 0.495385 0.160269 0.224182
N16   N     N_1   0.226608 0.494349 0.225117 -0.197224

loop_
_geom_bond_atom_site_label_1
_geom_bond_atom_site_label_2
_geom_bond_distance
_ccdc_geom_bond_type
C22   C80   1.439446 S    
C30   C34   1.397171 A    
C88   N16   1.157780 T    
C16   C74   1.443226 S    
C17   C75   1.515040 S    
C84   H40   1.110915 S    
C28   C48   1.428193 A    
C72   N8    1.156779 T    
C44   C86   1.511379 S    
C80   N12   1.153610 T    
O10   C6    1.288123 A    
O3    C3    1.300123 A    
C44   C48   1.414247 A    
C15   C73   1.443908 S    
C79   N11   1.154930 T    
C25   C31   1.394077 A    
C53   C65   1.498870 S    
C64   C70   1.439500 S    
C26   C32   1.388646 A    
O7    C3    1.281108 A    
C77   H32   1.102317 S    
C86   H46   1.110915 S    
Zn1   O10   2.023141 S    
C57   N3    1.376162 A    
C36   C40   1.397656 A    
C75   H25   1.109006 S    
C67   H20   1.105753 S    
C50   H10   1.065571 S    
C6    C45   1.461614 S    
C11   C31   1.408244 A    
C5    C46   1.456147 S    
C87   N15   1.157779 T    
C13   C71   1.443902 S    
C56   C68   1.507979 S    
O2    Zn1   1.974986 S    
C51   H11   1.083075 S    
O6    Zn3   2.023247 S    
C26   C46   1.428201 A    
C81   N13   1.154928 T    
Zn3   O14   1.974982 S    
C38   C44   1.384759 A    
C62   C88   1.441759 S    
C10   C14   1.402021 A    
C42   C46   1.414252 A    
C76   H30   1.109645 S    
C82   N14   1.153605 T    
C85   H44   1.110226 S    
C41   C45   1.415699 A    
O15   C7    1.308257 A    
O4    C4    1.291489 A    
C11   C15   1.398124 A    
H4    C40   1.084778 S    
C68   H24   1.113702 S    
C27   C47   1.423381 A    
C49   H9    1.065576 S    
C77   H31   1.108993 S    
O8    Zn4   2.023247 S    
C63   C69   1.439497 S    
C86   H47   1.110926 S    
C58   N4    1.376218 A    
C63   N3    1.366660 A    
C16   C18   1.403646 A    
C14   C72   1.443217 S    
C85   H43   1.111251 S    
C53   C55   1.399529 A    
C66   H18   1.104763 S    
C35   C39   1.394539 A    
C34   C38   1.397656 A    
C54   C56   1.399550 A    
C1    C34   1.434154 S    
C65   H13   1.105273 S    
Zn2   O12   2.023141 S    
C12   H8    1.083213 S    
O1    C1    1.300112 A    
C3    C36   1.434152 S    
C67   H21   1.113419 S    
C4    C35   1.442818 S    
C19   C23   1.415979 A    
O12   C8    1.288107 A    
C50   C60   1.409356 A    
C52   C54   1.399907 A    
C74   N10   1.156786 T    
C41   C83   1.510378 S    
C62   C64   1.427172 A    
C39   C41   1.386860 A    
Zn1   N3    2.021378 S    
C11   H7    1.083244 S    
C61   C87   1.441758 S    
O5    C1    1.281124 A    
C59   N1    1.370560 A    
C76   H28   1.110766 S    
C66   H17   1.110746 S    
C50   C52   1.400804 A    
C58   C60   1.422770 A    
C49   C51   1.400819 A    
O8    C4    1.294274 A    
C19   C77   1.515017 S    
C60   N2    1.370554 A    
C17   C21   1.415985 A    
C13   C19   1.402164 A    
C21   C79   1.443225 S    
Zn2   N4    2.021378 S    
C14   C20   1.403644 A    
C83   H39   1.111585 S    
N2    C62   1.370464 A    
C15   C17   1.402166 A    
C71   N7    1.157736 T    
H2    C38   1.084776 S    
O3    Zn2   1.994514 S    
H1    C37   1.082661 S    
C40   C42   1.384761 A    
O7    Zn4   2.011462 S    
C56   C58   1.407819 A    
Zn4   O15   1.994507 S    
C52   H12   1.083076 S    
C27   C29   1.394085 A    
C73   N9    1.157742 T    
C78   H36   1.109647 S    
C2    C33   1.442868 S    
C83   H38   1.110221 S    
C7    C48   1.456135 S    
O2    C2    1.291506 A    
C85   H45   1.111590 S    
O11   C7    1.282517 A    
C76   H29   1.106073 S    
C68   H22   1.109342 S    
C65   H14   1.112837 S    
O13   C5    1.308260 A    
C49   C59   1.409379 A    
C9    C29   1.408240 A    
C43   C85   1.510360 S    
C10   H6    1.083212 S    
C31   C35   1.405850 A    
Zn2   O11   2.011355 S    
C25   C45   1.423399 A    
O16   C8    1.305895 A    
C12   C32   1.408127 A    
Zn3   N1    2.019578 S    
C84   H41   1.110927 S    
C70   N6    1.157076 T    
C61   C63   1.427179 A    
C29   C33   1.405852 A    
C86   H48   1.109403 S    
C55   C67   1.507840 S    
C84   H42   1.109403 S    
C66   H16   1.112191 S    
C18   C22   1.417381 A    
Zn4   N2    2.019578 S    
Zn1   O9    2.011355 S    
C32   C36   1.397158 A    
C42   C84   1.511380 S    
C9    C13   1.398112 A    
C75   H27   1.109840 S    
C78   H35   1.106073 S    
O9    C5    1.282521 A    
C22   C26   1.423989 A    
C37   C43   1.386886 A    
C69   N5    1.157079 T    
C18   C76   1.517472 S    
C43   C47   1.415666 A    
N1    C61   1.370463 A    
Zn3   O13   1.994507 S    
C24   C82   1.439447 S    
C21   C25   1.428199 A    
C77   H33   1.109816 S    
C28   C30   1.388649 A    
C20   C78   1.517482 S    
C23   C27   1.428183 A    
O4    Zn2   1.974986 S    
C64   N4    1.366660 A    
C9    H5    1.083242 S    
O5    Zn3   2.011462 S    
C12   C16   1.402013 A    
O6    C2    1.294279 A    
H3    C39   1.082655 S    
C54   C66   1.498911 S    
C33   C37   1.394568 A    
C20   C24   1.417371 A    
O1    Zn1   1.994514 S    
C23   C81   1.443227 S    
Zn4   O16   1.974982 S    
C57   C59   1.422768 A    
O14   C6    1.305866 A    
C67   H19   1.109171 S    
C10   C30   1.408135 A    
C55   C57   1.407693 A    
C65   H15   1.111309 S    
C68   H23   1.105955 S    
C83   H37   1.111239 S    
C78   H34   1.110769 S    
C8    C47   1.461648 S    
C51   C53   1.399926 A    
C24   C28   1.423992 A    
C75   H26   1.102339 S    
