data_mof_unit_8498.cif
_audit_creation_date              2012-10-26T18:30:20-0400
_audit_creation_method            fapswitch 2.2
_symmetry_space_group_name_H-M    P1
_symmetry_Int_Tables_number       1
_space_group_crystal_system       triclinic
_cell_length_a                    10.658306
_cell_length_b                    13.026399
_cell_length_c                    11.703332
_cell_angle_alpha                 99.200181
_cell_angle_beta                  92.706007
_cell_angle_gamma                 90.560775
_cell_volume                      1601.94390206

loop_
_atom_site_label
_atom_site_type_symbol
_atom_type_description
_atom_site_fract_x
_atom_site_fract_y
_atom_site_fract_z
_atom_type_partial_charge
C1    C     C_R   0.498910 0.299645 0.479464 0.562033
C2    C     C_R   0.607887 0.587537 0.852854 0.016143
C3    C     C_R   0.551837 0.542256 0.155860 0.257272
C4    C     C_R   0.448180 0.457775 0.844163 0.258730
C5    C     C_R   0.543565 0.535360 0.032812 -0.005502
C6    C     C_R   0.456488 0.464646 0.967206 -0.005460
C7    C     C_R   0.260027 0.502135 0.501595 0.554225
C8    C     C_R   0.739978 0.498530 0.498389 0.550396
C9    C     C_3   0.042304 0.517401 0.611115 0.151245
C10   C     C_3   0.957494 0.483926 0.388250 0.135563
C11   C     C_3   0.960586 0.423720 0.553474 0.125268
C12   C     C_R   0.500853 0.700325 0.520583 0.567571
C13   C     C_3   0.039256 0.577615 0.445906 0.128215
C14   C     C_3   0.875581 0.498302 0.495517 -0.017200
C15   C     C_3   0.124371 0.503108 0.504067 -0.015784
C16   C     C_3   0.958980 0.591844 0.553013 0.132551
C17   C     C_3   0.040808 0.409340 0.446380 0.111167
C18   C     C_R   0.506238 0.812933 0.530895 0.042409
C19   C     C_R   0.492872 0.187017 0.469446 0.037831
C20   C     C_R   0.406557 0.023867 0.368568 -0.158720
C21   C     C_R   0.591659 0.976139 0.632244 -0.159509
C22   C     C_R   0.422069 0.130326 0.376585 -0.178085
C23   C     C_R   0.551918 0.136677 0.554658 0.082091
C24   C     C_R   0.576929 0.869622 0.623799 -0.179576
C25   C     C_3   0.002331 0.283410 0.666728 -0.302366
C26   C     C_3   0.992966 0.716955 0.332325 -0.306945
C27   C     C_3   0.997582 0.551177 0.817405 -0.306575
C28   C     C_3   0.000492 0.448169 0.181309 -0.309265
C29   C     C_3   0.997452 0.771644 0.650682 -0.305569
C30   C     C_3   0.003824 0.230085 0.344936 -0.319351
C31   C     C_R   0.446231 0.863305 0.446250 0.089964
C32   C     C_R   0.535920 0.028456 0.547412 0.034537
C33   C     C_R   0.462171 0.971546 0.453452 0.034994
C34   C     C_R   0.380526 0.403205 0.026211 -0.197673
C35   C     C_R   0.619498 0.596813 0.973796 -0.196946
C36   C     C_R   0.392121 0.412467 0.147143 0.010762
Cu1   Cu    Cu3+1 0.509400 0.507730 0.615930 0.984075
Cu2   Cu    Cu3+1 0.490600 0.492270 0.384070 0.967705
H1    H     H_    0.623673 0.830979 0.688964 0.124162
H2    H     H_    0.953266 0.223678 0.706899 0.120589
H3    H     H_    0.056335 0.335287 0.736466 0.178009
H4    H     H_    0.068246 0.243861 0.604242 0.142140
H5    H     H_    0.163726 0.642304 0.342978 0.274767
H6    H     H_    0.035826 0.789643 0.312426 0.121225
H7    H     H_    0.912406 0.738124 0.387428 0.162814
H8    H     H_    0.958305 0.669017 0.249731 0.157437
H9    H     H_    0.164007 0.588638 0.746480 0.260215
H10   H     H_    0.043300 0.547379 0.903813 0.117045
H11   H     H_    0.922650 0.490183 0.799752 0.194950
H12   H     H_    0.375746 0.168951 0.311190 0.125000
H13   H     H_    0.954542 0.628645 0.819785 0.161123
H14   H     H_    0.833692 0.414497 0.253646 0.261146
H15   H     H_    0.954497 0.452863 0.095234 0.122223
H16   H     H_    0.040901 0.369729 0.178564 0.163565
H17   H     H_    0.077483 0.507242 0.198088 0.164432
H18   H     H_    0.829382 0.712049 0.567151 0.242934
H19   H     H_    0.950231 0.835000 0.706831 0.122927
H20   H     H_    0.034775 0.803649 0.576542 0.170159
H21   H     H_    0.076480 0.744211 0.702235 0.155866
H22   H     H_    0.169448 0.288452 0.434357 0.247824
H23   H     H_    0.349959 0.983651 0.295611 0.107560
H24   H     H_    0.051146 0.170245 0.284183 0.131410
H25   H     H_    0.922987 0.259360 0.297291 0.154154
H26   H     H_    0.968945 0.192728 0.416291 0.137314
H27   H     H_    0.277067 0.833378 0.358774 0.221716
H28   H     H_    0.404248 0.810458 0.275459 0.222083
H29   H     H_    0.719862 0.166361 0.644367 0.212758
H30   H     H_    0.591418 0.189593 0.725768 0.226863
H31   H     H_    0.270860 0.403766 0.800979 0.214140
H32   H     H_    0.382759 0.311057 0.788097 0.202052
H33   H     H_    0.729077 0.596895 0.199229 0.217542
H34   H     H_    0.648046 0.016338 0.705349 0.108304
H35   H     H_    0.616653 0.689146 0.211997 0.201171
H36   H     H_    0.666838 0.635194 0.808830 0.129905
H37   H     H_    0.333151 0.364820 0.191161 0.131832
H38   H     H_    0.312084 0.347893 0.980194 0.085690
H39   H     H_    0.687922 0.652143 0.019811 0.085028
H40   H     H_    0.844655 0.295301 0.557613 0.254276
N1    N     N_R   0.523540 0.519360 0.790140 -0.198036
N2    N     N_3   0.629148 0.196129 0.646341 -0.612122
N3    N     N_3   0.361547 0.386500 0.774551 -0.551140
N4    N     N_3   0.638231 0.613762 0.225518 -0.551643
N5    N     N_R   0.476460 0.480640 0.209860 -0.200539
N6    N     N_2   0.910805 0.341582 0.609308 -0.495508
N7    N     N_2   0.086369 0.661455 0.390984 -0.513921
N8    N     N_2   0.090782 0.535291 0.730567 -0.512211
N9    N     N_2   0.908353 0.466470 0.268948 -0.509508
N10   N     N_2   0.907728 0.688273 0.610204 -0.515209
N11   N     N_2   0.092771 0.313019 0.389636 -0.513702
N12   N     N_3   0.367895 0.803855 0.355433 -0.618270
O1    O     O_R   0.506670 0.354460 0.582000 -0.436565
O2    O     O_R   0.493330 0.645540 0.418000 -0.441535
O3    O     O_R   0.490800 0.341410 0.386200 -0.532303
O4    O     O_R   0.509200 0.658590 0.613800 -0.533395
O5    O     O_R   0.324790 0.506500 0.597880 -0.480690
O6    O     O_R   0.675210 0.493500 0.402120 -0.485703
O7    O     O_R   0.308910 0.493440 0.402080 -0.512100
O8    O     O_R   0.691090 0.506560 0.597920 -0.490471

loop_
_geom_bond_atom_site_label_1
_geom_bond_atom_site_label_2
_ccdc_geom_bond_type
C2    C35   A    
H30   N2    S    
C30   H26   S    
Cu2   N5    S    
C8    O6    A    
C26   H6    S    
H28   N12   S    
H22   N11   S    
Cu1   N1    S    
C18   C24   A    
C9    C16   S    
Cu2   O7    S    
C25   H2    S    
C5    C6    A    
C11   C14   S    
H18   N10   S    
C10   C17   S    
Cu2   O2    S    
C24   H1    S    
Cu1   O5    S    
C20   H23   S    
H32   N3    S    
C8    O8    A    
C29   N10   S    
C2    N1    A    
C26   H7    S    
C4    N3    S    
C29   H21   S    
C25   N6    S    
C31   C33   A    
C23   N2    S    
C2    H36   S    
C22   H12   S    
H33   N4    S    
C7    C15   S    
C1    O1    A    
C30   H25   S    
C12   O4    A    
C28   N9    S    
C30   N11   S    
Cu1   O8    S    
C28   H17   S    
C27   H13   S    
H27   N12   S    
C21   C32   A    
C10   N9    S    
C1    C19   S    
Cu1   O1    S    
C21   H34   S    
H5    N7    S    
H9    N8    S    
C19   C22   A    
C17   N11   S    
C4    N1    A    
C4    C6    A    
C10   C14   S    
C25   H3    S    
C28   H16   S    
C13   N7    S    
C35   H39   S    
C6    C34   A    
C27   N8    S    
C19   C23   A    
Cu1   Cu2   S    
C36   H37   S    
C9    N8    S    
C31   N12   S    
C3    N4    S    
C9    C11   S    
C20   C33   A    
C29   H19   S    
C13   C15   S    
C3    N5    A    
C14   C16   S    
C21   C24   A    
Cu2   O6    S    
H35   N4    S    
C15   C17   S    
C11   C17   S    
C8    C14   S    
C7    O7    A    
C12   O2    A    
H14   N9    S    
H29   N2    S    
C20   C22   A    
C3    C5    A    
C10   C13   S    
C25   H4    S    
C28   H15   S    
C11   N6    S    
C7    O5    A    
C23   C32   A    
C30   H24   S    
C9    C15   S    
C32   C33   A    
C26   N7    S    
C5    C35   A    
Cu2   O3    S    
Cu1   O4    S    
C34   C36   A    
C27   H10   S    
H31   N3    S    
C26   H8    S    
H40   N6    S    
C29   H20   S    
C1    O3    A    
C13   C16   S    
C12   C18   S    
C16   N10   S    
C18   C31   A    
C36   N5    A    
C27   H11   S    
C34   H38   S    
