data_mof_unit_28147.cif
_audit_creation_date              2013-03-05T15:41:40-0500
_audit_creation_method            fapswitch 2.2
_symmetry_space_group_name_H-M    P1
_symmetry_Int_Tables_number       1
_space_group_crystal_system       triclinic
_cell_length_a                    17.383061
_cell_length_b                    8.666398
_cell_length_c                    7.517766
_cell_angle_alpha                 102.638555
_cell_angle_beta                  91.887743
_cell_angle_gamma                 93.637781
_cell_volume                      1101.5962963

loop_
_atom_site_label
_atom_site_type_symbol
_atom_site_description
_atom_site_fract_x
_atom_site_fract_y
_atom_site_fract_z
_atom_type_partial_charge
O1    O     O_R   0.505650 0.286040 0.618880 -0.527723
O2    O     O_R   0.494350 0.713960 0.381120 -0.527716
O3    O     O_R   0.490960 0.256910 0.309800 -0.598244
O4    O     O_R   0.509040 0.743090 0.690200 -0.598267
C1    C     C_R   0.497427 0.200046 0.453921 0.859875
C2    C     C_R   0.502573 0.799954 0.546079 0.859888
O5    O     O_R   0.394600 0.516230 0.672450 -0.572557
O6    O     O_R   0.605400 0.483770 0.327550 -0.572536
O7    O     O_R   0.379910 0.487100 0.363380 -0.632196
O8    O     O_R   0.620090 0.512900 0.636620 -0.632198
C3    C     C_R   0.351596 0.503272 0.523729 0.786689
C4    C     C_R   0.648404 0.496735 0.476271 0.786698
Cu1   Cu    Cu3+1 0.508700 0.517250 0.683000 1.023859
Cu2   Cu    Cu3+1 0.491300 0.482750 0.317000 1.023875
C5    C     C_R   0.268294 0.510341 0.535890 -0.100662
C6    C     C_R   0.731708 0.489707 0.464111 -0.100692
C7    C     C_R   0.221322 0.486756 0.375985 -0.157020
C8    C     C_R   0.778683 0.513321 0.624014 -0.157007
C9    C     C_R   0.142409 0.496029 0.385931 -0.125961
C10   C     C_R   0.857600 0.504114 0.614065 -0.125949
C11   C     C_R   0.108604 0.526587 0.555619 0.023195
C12   C     C_R   0.891404 0.473589 0.444375 0.023183
C13   C     C_R   0.155543 0.550122 0.717333 0.375783
C14   C     C_R   0.844462 0.450030 0.282665 0.375810
C15   C     C_R   0.235255 0.543284 0.706133 -0.261806
C16   C     C_R   0.764748 0.456802 0.293866 -0.261815
C17   C     C_2   0.025204 0.543391 0.563815 -0.121056
C18   C     C_2   0.974805 0.456815 0.436165 -0.121052
H1    H     H_    0.245383 0.462709 0.242576 0.168659
H2    H     H_    0.754623 0.537344 0.757424 0.168670
H3    H     H_    0.728944 0.438887 0.169431 0.179806
H4    H     H_    0.271057 0.561182 0.830569 0.179807
H5    H     H_    0.994813 0.371288 0.322227 0.187463
H6    H     H_    0.005196 0.628919 0.677753 0.187486
H7    H     H_    0.891877 0.517891 0.739678 0.230421
H8    H     H_    0.108137 0.482271 0.260313 0.230395
C19   C     C_2   0.495893 0.032040 0.428174 -0.357793
C20   C     C_2   0.504105 0.967960 0.571826 -0.357776
H9    H     H_    0.488003 0.960769 0.289673 0.209271
H10   H     H_    0.511995 0.039230 0.710327 0.209279
N1    N     N_2   0.478180 0.456750 0.041980 0.127661
N2    N     N_2   0.521820 0.543250 0.958020 0.127659
N3    N     N_R   0.122792 0.572584 0.892523 0.099330
O9    O     O_R   0.067034 0.474167 0.918955 -0.333116
O10   O     O_R   0.157118 0.671508 0.032167 -0.382768
N4    N     N_R   0.877214 0.427623 0.107481 0.099325
O11   O     O_R   0.932930 0.526142 0.081052 -0.333120
O12   O     O_R   0.842918 0.328641 0.967837 -0.382758
O13   O     O_3   0.449392 0.319185 0.933538 -0.478857
C21   C     C_3   0.373571 0.289145 0.983234 0.187466
H11   H     H_    0.341093 0.397959 0.004332 0.128978
H12   H     H_    0.373861 0.241321 0.108415 0.165845
C22   C     C_3   0.331385 0.165106 0.830592 -0.825078
H13   H     H_    0.360996 0.053039 0.808480 0.249247
H14   H     H_    0.271157 0.141152 0.867626 0.223242
H15   H     H_    0.330104 0.208319 0.701969 0.248003
O14   O     O_3   0.550615 0.680806 0.066469 -0.478859
C23   C     C_3   0.626431 0.710856 0.016739 0.187467
H16   H     H_    0.626126 0.758715 0.891582 0.165847
H17   H     H_    0.658907 0.602040 0.995584 0.128992
C24   C     C_3   0.668631 0.834862 0.169389 -0.825093
H18   H     H_    0.669967 0.791575 0.297960 0.247984
H19   H     H_    0.728840 0.858891 0.132281 0.223251
H20   H     H_    0.638997 0.946904 0.191637 0.249267

loop_
_geom_bond_atom_site_label_1
_geom_bond_atom_site_label_2
_geom_bond_distance
_ccdc_geom_bond_type
C24   H20   1.110968 S    
C21   H12   1.108184 S    
O7    Cu2   1.979960 S    
C2    C20   1.424620 S    
C19   C20   1.325671 D    
C8    H2    1.082348 S    
C1    C19   1.424619 S    
C7    H1    1.082351 S    
N1    N2    1.304715 D    
O6    C4    1.304143 A    
N3    O9    1.299363 A    
C14   N4    1.431023 S    
C23   C24   1.521461 S    
C22   H14   1.110688 S    
C21   H11   1.114080 S    
C11   C17   1.468163 S    
C16   H3    1.082776 S    
C19   H9    1.087596 S    
C12   C18   1.468153 S    
C22   H13   1.110978 S    
C20   H10   1.087595 S    
N3    O10   1.301192 A    
O7    C3    1.299593 A    
O14   C23   1.405694 S    
O2    C2    1.297733 A    
O3    Cu2   1.945720 S    
O8    C4    1.299596 A    
C15   H4    1.082776 S    
Cu2   N1    2.033725 S    
O1    C1    1.297733 A    
N2    O14   1.344797 S    
N1    O13   1.344792 S    
Cu1   N2    2.033725 S    
C9    C11   1.401463 A    
C14   C16   1.395171 A    
C18   H5    1.085621 S    
O5    C3    1.304146 A    
C8    C10   1.382703 A    
C9    H8    1.079636 S    
C11   C13   1.410811 A    
C17   H6    1.085621 S    
C6    C16   1.399539 A    
C24   H18   1.110775 S    
O2    Cu2   1.952531 S    
C12   C14   1.410794 A    
C5    C15   1.399536 A    
C21   C22   1.521458 S    
O1    Cu1   1.952531 S    
C23   H17   1.114082 S    
N4    O12   1.301210 A    
O3    C1    1.289209 A    
C3    C5    1.458253 S    
O5    Cu1   1.981759 S    
C13   C15   1.395181 A    
C13   N3    1.431034 S    
C6    C8    1.400076 A    
O13   C21   1.405692 S    
C22   H15   1.110792 S    
O4    Cu1   1.945720 S    
C5    C7    1.400074 A    
N4    O11   1.299405 A    
O6    Cu2   1.981763 S    
C7    C9    1.382693 A    
C23   H16   1.108185 S    
Cu1   Cu2   2.706537 S    
C10   H7    1.079630 S    
O4    C2    1.289209 A    
C24   H19   1.110671 S    
C4    C6    1.458253 S    
C10   C12   1.401460 A    
C17   C18   1.340718 D    
O8    Cu1   1.979960 S    
