data_mof_unit_13903.cif
_audit_creation_date              2012-12-10T17:36:35-0500
_audit_creation_method            fapswitch 2.2
_symmetry_space_group_name_H-M    P1
_symmetry_Int_Tables_number       1
_space_group_crystal_system       triclinic
_cell_length_a                    12.0004
_cell_length_b                    12.833657
_cell_length_c                    15.711264
_cell_angle_alpha                 90.702023
_cell_angle_beta                  85.82021
_cell_angle_gamma                 93.316061
_cell_volume                      2409.12148907

loop_
_atom_site_label
_atom_site_type_symbol
_atom_type_description
_atom_site_fract_x
_atom_site_fract_y
_atom_site_fract_z
_atom_type_partial_charge
C1    C     C_R   0.522006 0.699852 0.499195 0.897460
C2    C     C_R   0.534291 0.022644 0.533158 0.002730
C3    C     C_R   0.956890 0.409857 0.414352 -0.434220
C4    C     C_R   0.043202 0.591261 0.584787 -0.421431
C5    C     C_R   0.839321 0.416764 0.423374 0.610570
C6    C     C_R   0.160715 0.583862 0.576162 0.636831
C7    C     C_R   0.857300 0.538296 0.537585 -0.125100
C8    C     C_R   0.142732 0.461965 0.462202 -0.115300
C9    C     C_R   0.974921 0.532981 0.530868 0.059856
C10   C     C_R   0.025164 0.467846 0.468492 0.051843
C11   C     C_R   0.499790 0.500312 0.662119 0.909326
C12   C     C_R   0.478295 0.299765 0.502567 0.933230
C13   C     C_R   0.500285 0.500141 0.337886 0.879463
C14   C     C_3   0.430413 0.578153 0.033618 -0.334888
C15   C     C_3   0.570549 0.434976 0.966554 -0.316009
C16   C     C_3   0.534053 0.603149 0.970515 -0.328378
C17   C     C_3   0.466892 0.410029 0.029544 -0.315954
C18   C     C_1   0.499184 0.502497 0.751056 -0.162028
C19   C     C_1   0.501498 0.502731 0.248977 -0.183385
C20   C     C_3   0.397947 0.482092 0.979176 0.607723
C21   C     C_3   0.603109 0.531037 0.020938 0.600089
C22   C     C_3   0.499530 0.506538 0.917172 0.071825
C23   C     C_R   0.592860 0.960135 0.584843 -0.196277
C24   C     C_3   0.501500 0.506571 0.082953 0.069331
C25   C     C_1   0.498687 0.504652 0.826384 0.003211
C26   C     C_1   0.502283 0.505094 0.173694 -0.003817
C27   C     C_R   0.466585 0.188571 0.499091 -0.116370
C28   C     C_R   0.536027 0.810299 0.503185 -0.141892
C29   C     C_3   0.789418 0.573806 0.978267 0.075395
C30   C     C_3   0.870183 0.485607 0.972473 -0.350273
C31   C     C_3   0.954000 0.498158 0.894889 -0.950579
C32   C     C_3   0.212632 0.433994 0.021090 0.062524
C33   C     C_3   0.173382 0.318619 0.017459 -0.328804
C34   C     C_R   0.401566 0.036375 0.423130 -0.175765
C35   C     C_3   0.087369 0.289926 0.091015 -0.971915
C36   C     C_3   0.713094 0.189034 0.579901 0.086566
C37   C     C_3   0.773255 0.264317 0.639900 -0.313600
C38   C     C_3   0.900162 0.263601 0.623800 -0.966529
C39   C     C_3   0.480668 0.789323 0.318394 0.083577
C40   C     C_3   0.495167 0.872841 0.249156 -0.389750
C41   C     C_3   0.560369 0.833169 0.169339 -0.913911
C42   C     C_R   0.595246 0.854543 0.568842 -0.280479
C43   C     C_R   0.397972 0.141945 0.439824 -0.305298
C44   C     C_R   0.475981 0.870171 0.450523 0.433536
C45   C     C_R   0.536482 0.130528 0.545602 0.408593
C46   C     C_R   0.470905 0.976308 0.468088 0.029694
H1    H     H_    0.563001 0.680913 0.944538 0.157562
H2    H     H_    0.817444 0.588514 0.585055 0.143547
H3    H     H_    0.994408 0.359190 0.366001 0.145233
H4    H     H_    0.005666 0.642017 0.633064 0.142301
H5    H     H_    0.837875 0.648590 0.989121 0.161323
H6    H     H_    0.751828 0.581455 0.915825 0.121389
H7    H     H_    0.916241 0.485739 0.031312 0.224382
H8    H     H_    0.822463 0.409268 0.967702 0.221279
H9    H     H_    0.909620 0.497261 0.835215 0.262358
H10   H     H_    0.010571 0.432589 0.892040 0.276067
H11   H     H_    0.005218 0.572669 0.899407 0.267729
H12   H     H_    0.438618 0.332343 0.055945 0.154048
H13   H     H_    0.139589 0.482150 0.015597 0.172017
H14   H     H_    0.244477 0.452588 0.084911 0.124775
H15   H     H_    0.135531 0.301492 0.955968 0.232060
H16   H     H_    0.246315 0.269703 0.020802 0.217245
H17   H     H_    0.124214 0.304567 0.153204 0.262122
H18   H     H_    0.060796 0.205845 0.086491 0.268014
H19   H     H_    0.012530 0.336369 0.088131 0.265451
H20   H     H_    0.726827 0.219274 0.513617 0.172206
H21   H     H_    0.751763 0.112705 0.581068 0.133022
H22   H     H_    0.746405 0.344520 0.630748 0.243163
H23   H     H_    0.372086 0.634717 0.062926 0.156005
H24   H     H_    0.749961 0.241746 0.707229 0.228936
H25   H     H_    0.929538 0.186804 0.641448 0.266634
H26   H     H_    0.940705 0.325359 0.663106 0.272844
H27   H     H_    0.925590 0.278409 0.555603 0.271349
H28   H     H_    0.437813 0.718553 0.291733 0.174666
H29   H     H_    0.564386 0.766037 0.335273 0.112067
H30   H     H_    0.411547 0.895025 0.231959 0.230331
H31   H     H_    0.540932 0.943311 0.273838 0.219246
H32   H     H_    0.645033 0.812012 0.184756 0.272585
H33   H     H_    0.569616 0.895215 0.120288 0.260278
H34   H     H_    0.627629 0.377744 0.936732 0.154903
H35   H     H_    0.515246 0.763646 0.142626 0.268971
H36   H     H_    0.183476 0.683292 0.668376 0.310569
H37   H     H_    0.816514 0.317267 0.331223 0.307457
H38   H     H_    0.346293 0.188356 0.403115 0.167629
H39   H     H_    0.638034 0.806299 0.610720 0.163498
H40   H     H_    0.633833 0.991368 0.639491 0.180422
H41   H     H_    0.350446 0.002360 0.374775 0.191376
H42   H     H_    0.182550 0.411458 0.414930 0.143111
N1    N     N_R   0.207800 0.519340 0.515560 -0.113237
N2    N     N_R   0.792200 0.480660 0.484440 -0.116139
O1    O     O_R   0.421700 0.658830 0.504150 -0.536902
O2    O     O_3   0.290532 0.457500 0.950966 -0.637662
O3    O     O_3   0.597940 0.179343 0.607973 -0.654707
O4    O     O_3   0.411498 0.823629 0.388982 -0.646676
O5    O     O_3   0.229809 0.640782 0.628057 -0.731172
O6    O     O_3   0.770199 0.359796 0.371537 -0.749397
O7    O     O_R   0.578300 0.341170 0.495850 -0.579534
O8    O     O_R   0.609310 0.646410 0.494170 -0.646643
O9    O     O_R   0.390690 0.353590 0.505830 -0.638009
O10   O     O_R   0.406210 0.506220 0.628210 -0.557236
O11   O     O_R   0.593790 0.493780 0.371790 -0.552708
O12   O     O_R   0.593830 0.493800 0.618230 -0.650549
O13   O     O_R   0.406170 0.506200 0.381770 -0.637032
O14   O     O_3   0.710360 0.557321 0.048909 -0.638419
Zn1   Zn    Zn3+2 0.374730 0.508290 0.506660 1.012559
Zn2   Zn    Zn3+2 0.625270 0.491710 0.493340 0.981875

loop_
_geom_bond_atom_site_label_1
_geom_bond_atom_site_label_2
_ccdc_geom_bond_type
C11   C18   S    
C16   C21   S    
O1    Zn1   S    
C45   O3    S    
C3    H3    S    
C36   H21   S    
C2    C46   A    
C30   H8    S    
O10   Zn1   S    
C37   C38   S    
C23   C42   A    
C36   C37   S    
C24   C26   S    
C30   C31   S    
C36   H20   S    
C35   H19   S    
C37   H22   S    
C17   C20   S    
C22   C25   S    
C15   C17   S    
C39   H28   S    
C14   C24   S    
C19   C26   T    
C12   O9    A    
C21   O14   S    
C36   O3    S    
C15   C22   S    
C33   H16   S    
C23   H40   S    
C1    C28   S    
C35   H18   S    
C34   C46   A    
C39   H29   S    
C31   H10   S    
C13   O13   A    
C9    C10   A    
C5    N2    A    
C17   H12   S    
C27   C45   A    
C1    O1    A    
C37   H24   S    
C43   H38   S    
C18   C25   T    
C16   H1    S    
C44   C46   A    
C2    C45   A    
O9    Zn1   S    
C30   H7    S    
C38   H26   S    
C17   C24   S    
C13   C19   S    
C12   C27   S    
C14   C20   S    
N2    Zn2   S    
C4    C6    A    
C39   C40   S    
C7    N2    A    
C28   C44   A    
C40   H30   S    
C29   O14   S    
C4    H4    S    
C11   O10   A    
C8    H42   S    
C39   O4    S    
C29   C30   S    
C20   O2    S    
C15   H34   S    
C41   H35   S    
O13   Zn1   S    
C42   H39   S    
C12   O7    A    
O7    Zn2   S    
C8    C10   A    
C40   C41   S    
C20   C22   S    
C14   H23   S    
C14   C16   S    
C32   H14   S    
C13   O11   A    
C41   H32   S    
C5    O6    S    
C29   H5    S    
O11   Zn2   S    
C7    C9    A    
C38   H25   S    
C16   C22   S    
H36   O5    S    
C34   C43   A    
C3    C5    A    
C1    O8    A    
C41   H33   S    
C6    N1    A    
O8    Zn2   S    
C32   C33   S    
C31   H11   S    
C3    C10   A    
C7    H2    S    
C32   O2    S    
H37   O6    S    
C28   C42   A    
C33   C35   S    
O12   Zn2   S    
C11   O12   A    
C34   H41   S    
C44   O4    S    
C27   C43   A    
C15   C21   S    
C33   H15   S    
C6    O5    S    
C21   C24   S    
N1    Zn1   S    
C2    C23   A    
C40   H31   S    
C35   H17   S    
C8    N1    A    
C32   H13   S    
C31   H9    S    
C4    C9    A    
C29   H6    S    
C38   H27   S    
