data_mof_unit_31765.cif
_audit_creation_date              2012-12-10T17:47:11-0500
_audit_creation_method            fapswitch 2.2
_symmetry_space_group_name_H-M    P1
_symmetry_Int_Tables_number       1
_space_group_crystal_system       triclinic
_cell_length_a                    11.70216
_cell_length_b                    14.641012
_cell_length_c                    14.681367
_cell_angle_alpha                 65.22775
_cell_angle_beta                  103.131373
_cell_angle_gamma                 102.318008
_cell_volume                      2204.25309382

loop_
_atom_site_label
_atom_site_type_symbol
_atom_type_description
_atom_site_fract_x
_atom_site_fract_y
_atom_site_fract_z
_atom_type_partial_charge
C1    C     C_R   0.481568 0.119783 0.311994 0.875050
C2    C     C_R   0.523306 0.880239 0.688268 0.860033
C3    C     C_R   0.435451 0.325372 0.000508 0.076466
C4    C     C_R   0.551308 0.676506 0.001489 0.064767
C5    C     C_R   0.529040 0.465709 0.052199 0.089252
C6    C     C_R   0.515024 0.534086 0.948871 0.094458
C7    C     C_R   0.458509 0.495906 0.873776 -0.147335
C8    C     C_R   0.552575 0.505675 0.128043 -0.097336
C9    C     C_R   0.417015 0.393461 0.899657 -0.203085
C10   C     C_R   0.559612 0.609147 0.102831 -0.218042
C11   C     C_R   0.729512 0.305270 0.628067 -0.294453
C12   C     C_R   0.294870 0.717416 0.333469 -0.298030
C13   C     C_R   0.683266 0.214146 0.617476 0.100227
C14   C     C_R   0.328309 0.796548 0.366787 0.098342
C15   C     C_R   0.509417 0.282345 0.516781 0.122204
C16   C     C_R   0.489566 0.717137 0.480424 0.126893
C17   C     C_R   0.556515 0.381196 0.514735 -0.014373
C18   C     C_R   0.466247 0.638046 0.443665 -0.026954
C19   C     C_R   0.669076 0.390864 0.574403 0.026615
C20   C     C_R   0.362745 0.636553 0.371944 0.021199
C21   C     C_R   0.495286 0.469061 0.458941 -0.116132
C22   C     C_R   0.539533 0.559174 0.478870 -0.120136
C23   C     C_R   0.284137 0.000592 0.499915 0.807527
C24   C     C_R   0.715842 0.999494 0.499914 0.842998
C25   C     C_R   0.658693 0.569934 0.526928 0.357366
C26   C     C_R   0.396808 0.474214 0.379497 0.325166
C27   C     C_R   0.721032 0.486095 0.577180 0.208005
C28   C     C_R   0.331305 0.556671 0.337296 0.204103
C29   C     C_1   0.162686 0.001333 0.499955 -0.156158
C30   C     C_1   0.837224 0.998843 0.499559 -0.105298
C31   C     C_1   0.060005 0.000718 0.499769 0.025892
C32   C     C_1   0.939853 0.999459 0.499561 0.044513
C33   C     C_R   0.469336 0.187646 0.203539 -0.141522
C34   C     C_R   0.540496 0.813033 0.797417 -0.158183
C35   C     C_R   0.383147 0.224336 0.027009 -0.260062
C36   C     C_R   0.550169 0.779613 0.975897 -0.255047
C37   C     C_R   0.391965 0.157334 0.128923 0.210382
C38   C     C_R   0.539149 0.847502 0.874142 0.200486
C39   C     C_R   0.532866 0.286208 0.174308 0.274931
C40   C     C_R   0.554893 0.711068 0.825749 0.249991
C41   C     C_R   0.501731 0.359561 0.076388 0.028557
C42   C     C_R   0.541521 0.640067 0.924577 0.024660
Cu1   Cu    Cu3+1 0.469550 0.918260 0.475690 0.996989
Cu2   Cu    Cu3+1 0.530450 0.081740 0.524310 0.999044
H1    H     H_    0.367223 0.367917 0.840793 0.145197
H2    H     H_    0.569228 0.636239 0.162871 0.165188
H3    H     H_    0.327650 0.199476 0.969438 0.143785
H4    H     H_    0.553597 0.807150 0.034626 0.154044
H5    H     H_    0.434604 0.545787 0.795601 0.186305
H6    H     H_    0.553805 0.457464 0.207237 0.234854
H7    H     H_    0.558393 0.716680 0.542922 0.216424
H8    H     H_    0.419524 0.264674 0.485509 0.177979
H9    H     H_    0.277427 0.859325 0.334890 0.148152
H10   H     H_    0.734390 0.151261 0.652982 0.121986
H11   H     H_    0.814130 0.308094 0.675996 0.142505
H12   H     H_    0.216972 0.721779 0.276555 0.149511
N1    N     N_R   0.576230 0.204580 0.560790 -0.188230
N2    N     N_R   0.423770 0.795420 0.439210 -0.197833
O1    O     O_R   0.459870 0.022090 0.338120 -0.569250
O2    O     O_R   0.540130 0.977910 0.661880 -0.565615
O3    O     O_R   0.511290 0.160150 0.379180 -0.517888
O4    O     O_R   0.488710 0.839850 0.620820 -0.550812
O5    O     O_R   0.311490 0.930960 0.479480 -0.587457
O6    O     O_R   0.688510 0.069040 0.520520 -0.583690
O7    O     O_R   0.362910 0.069020 0.520540 -0.581372
O8    O     O_R   0.637090 0.930980 0.479460 -0.545139
Cl1   Cl    Cl    0.745265 0.690761 0.503368 -0.592078
Cl2   Cl    Cl    0.363009 0.391011 0.314399 -0.665544
Cl3   Cl    Cl    0.622870 0.678764 0.748790 -0.663496
Cl4   Cl    Cl    0.668453 0.309204 0.250415 -0.604245
N3    N     N_2   0.528018 0.950198 0.850247 -0.402843
H13   H     H_    0.466983 0.957126 0.887047 0.244175
C43   C     C_3   0.639681 0.012489 0.862378 -0.636537
H14   H     H_    0.679770 0.987498 0.943827 0.215012
H15   H     H_    0.624665 0.092842 0.834048 0.218399
H16   H     H_    0.702166 0.007669 0.818271 0.229480
N4    N     N_2   0.320836 0.060845 0.155440 -0.416536
H17   H     H_    0.308581 0.029794 0.101928 0.245758
C44   C     C_3   0.209973 0.059324 0.184407 -0.652351
H18   H     H_    0.155573 0.113403 0.120315 0.227320
H19   H     H_    0.226347 0.079818 0.251501 0.232076
H20   H     H_    0.159367 0.982048 0.204415 0.211050
N5    N     N_2   0.839300 0.500888 0.626491 -0.389013
H21   H     H_    0.900045 0.466174 0.615659 0.251590
C45   C     C_3   0.848617 0.490613 0.730174 -0.576319
H22   H     H_    0.816408 0.411489 0.778568 0.198936
H23   H     H_    0.795964 0.543570 0.733644 0.288365
H24   H     H_    0.942593 0.509482 0.760247 0.223551
N6    N     N_2   0.231467 0.556539 0.260570 -0.373497
H25   H     H_    0.154240 0.568942 0.273485 0.255339
C46   C     C_3   0.254651 0.613566 0.157392 -0.597449
H26   H     H_    0.281670 0.695310 0.142936 0.194510
H27   H     H_    0.173311 0.605585 0.103556 0.230537
H28   H     H_    0.325608 0.583964 0.143094 0.261198

loop_
_geom_bond_atom_site_label_1
_geom_bond_atom_site_label_2
_ccdc_geom_bond_type
C21   C26   A    
C4    C36   A    
C9    H1    S    
C43   H15   S    
C43   H14   S    
C25   Cl1   S    
C16   H7    S    
C35   H3    S    
Cu1   O5    S    
C39   C41   A    
N4    H17   S    
Cu2   O6    S    
C11   C19   A    
C33   C39   A    
C34   C40   A    
C23   C29   S    
C35   C37   A    
C1    O1    A    
C5    C6    A    
C2    O2    A    
C23   O5    A    
C13   N1    A    
C7    C9    A    
Cu1   N2    S    
C31   C32   S    
C22   C25   A    
C10   H2    S    
C28   N6    S    
N6    C46   S    
C19   C27   A    
Cu1   O1    S    
C2    C34   S    
C40   C42   A    
C24   O6    A    
C34   C38   A    
C21   C22   A    
C15   N1    A    
Cu2   O7    S    
N4    C44   S    
C14   N2    A    
C40   Cl3   S    
C45   H23   S    
C1    C33   S    
C7    H5    S    
C46   H26   S    
C44   H19   S    
C20   C28   A    
C45   H22   S    
C37   N4    S    
C46   H27   S    
C33   C37   A    
Cu1   Cu2   S    
C3    C9    A    
C5    C8    A    
N5    H21   S    
C3    C35   A    
Cu2   N1    S    
C12   C20   A    
C16   N2    A    
C15   H8    S    
C12   H12   S    
C16   C18   A    
N5    C45   S    
C12   C14   A    
C43   H16   S    
C4    C10   A    
C8    H6    S    
C11   H11   S    
N3    C43   S    
C13   H10   S    
C45   H24   S    
C15   C17   A    
C5    C41   A    
C38   N3    S    
C3    C41   A    
C18   C22   A    
C1    O3    A    
C44   H20   S    
C6    C7    A    
C24   O8    A    
Cu2   O3    S    
C25   C27   A    
C26   C28   A    
C26   Cl2   S    
C23   O7    A    
C36   C38   A    
N3    H13   S    
C29   C31   T    
C46   H28   S    
C30   C32   T    
C11   C13   A    
C4    C42   A    
Cu2   O2    S    
Cu1   O8    S    
C27   N5    S    
C17   C19   A    
C39   Cl4   S    
C36   H4    S    
C18   C20   A    
C24   C30   S    
C44   H18   S    
C14   H9    S    
C8    C10   A    
C6    C42   A    
N6    H25   S    
C2    O4    A    
Cu1   O4    S    
C17   C21   A    
