data_mof_unit_24987.cif
_audit_creation_date              2012-12-10T21:26:09-0500
_audit_creation_method            fapswitch 2.2
_symmetry_space_group_name_H-M    P1
_symmetry_Int_Tables_number       1
_space_group_crystal_system       triclinic
_cell_length_a                    8.575817
_cell_length_b                    16.116737
_cell_length_c                    16.935821
_cell_angle_alpha                 87.725353
_cell_angle_beta                  90.701186
_cell_angle_gamma                 101.084544
_cell_volume                      2295.26730775

loop_
_atom_site_label
_atom_site_type_symbol
_atom_type_description
_atom_site_fract_x
_atom_site_fract_y
_atom_site_fract_z
_atom_type_partial_charge
C1    C     C_R   0.495467 0.488515 0.652690 0.871063
C2    C     C_R   0.553231 0.165818 0.423233 0.349641
C3    C     C_R   0.646597 0.769987 0.541522 -0.152614
C4    C     C_R   0.553395 0.252567 0.429063 -0.113501
C5    C     C_R   0.800930 0.521949 0.500977 0.981888
C6    C     C_R   0.199069 0.478067 0.498960 0.976821
C7    C     C_2   0.966892 0.533913 0.501549 -0.392340
C8    C     C_2   0.033107 0.466146 0.498284 -0.366297
C9    C     C_R   0.476399 0.480034 0.737659 -0.032396
C10   C     C_R   0.500089 0.517652 0.261724 -0.042702
C11   C     C_R   0.443278 0.548456 0.778428 -0.223798
C12   C     C_R   0.501736 0.511218 0.347248 0.877078
C13   C     C_R   0.517196 0.447218 0.219278 -0.203919
C14   C     C_R   0.424722 0.541696 0.859338 -0.156242
C15   C     C_R   0.506863 0.450348 0.137965 -0.144458
C16   C     C_R   0.441566 0.466416 0.900770 0.326062
C17   C     C_R   0.478146 0.524223 0.097887 0.319007
C18   C     C_R   0.467156 0.396896 0.859706 -0.180620
C19   C     C_R   0.466509 0.595407 0.140064 -0.181520
C20   C     C_R   0.484911 0.403491 0.778215 -0.215010
C21   C     C_R   0.476963 0.592306 0.221954 -0.208209
C22   C     C_3   0.310838 0.082719 0.609271 -0.329002
C23   C     C_R   0.391779 0.750086 0.482645 -0.051827
C24   C     C_3   0.406016 0.085408 0.686136 -0.796157
C25   C     C_3   0.231288 0.863475 0.464179 -0.344597
C26   C     C_3   0.220228 0.875445 0.374609 -0.758593
C27   C     C_R   0.407288 0.227334 0.547809 -0.047074
C28   C     C_R   0.385136 0.836413 0.488327 -0.010504
C29   C     C_R   0.403101 0.139309 0.545589 0.001931
C30   C     C_R   0.518075 0.892176 0.520434 0.196717
C31   C     C_R   0.479534 0.107595 0.482269 0.176860
C32   C     C_R   0.649276 0.857228 0.547494 0.317325
H1    H     H_    0.034060 0.598259 0.504732 0.174147
H2    H     H_    0.464212 0.647450 0.253993 0.170626
H3    H     H_    0.350114 0.252521 0.595580 0.151837
H4    H     H_    0.291893 0.707464 0.457883 0.152830
H5    H     H_    0.746131 0.742956 0.562539 0.178020
H6    H     H_    0.612208 0.297429 0.384686 0.196936
H7    H     H_    0.336598 0.042660 0.731581 0.261471
H8    H     H_    0.519917 0.064186 0.676719 0.298358
H9    H     H_    0.431414 0.150623 0.708290 0.240837
H10   H     H_    0.197164 0.103853 0.620025 0.236634
H11   H     H_    0.277378 0.016381 0.591387 0.242097
H12   H     H_    0.965876 0.401804 0.495109 0.193420
H13   H     H_    0.107526 0.896435 0.358733 0.269859
H14   H     H_    0.321180 0.924111 0.352198 0.300564
H15   H     H_    0.221609 0.814925 0.345686 0.236258
H16   H     H_    0.129040 0.814345 0.484866 0.224748
H17   H     H_    0.216574 0.922124 0.492452 0.251868
H18   H     H_    0.910541 0.835446 0.667958 0.356809
H19   H     H_    0.783683 0.188691 0.240838 0.391166
H20   H     H_    0.537650 0.389350 0.248791 0.185915
H21   H     H_    0.432020 0.607427 0.747974 0.172746
H22   H     H_    0.521168 0.394954 0.106753 0.163063
H23   H     H_    0.400768 0.595917 0.889449 0.155892
H24   H     H_    0.478845 0.338627 0.891308 0.149673
H25   H     H_    0.447012 0.652809 0.109362 0.150391
H26   H     H_    0.507906 0.349531 0.747313 0.162612
N1    N     N_2   0.443797 0.460087 0.983796 -0.199567
N2    N     N_2   0.465516 0.529995 0.015090 -0.200529
N3    N     N_R   0.519180 0.718290 0.509780 -0.119394
N4    N     N_R   0.480820 0.281710 0.490220 -0.130023
N5    N     N_2   0.521224 0.980662 0.530902 -0.099667
N6    N     N_2   0.474211 0.019001 0.472366 -0.106738
O1    O     O_R   0.493140 0.422050 0.612640 -0.629545
O2    O     O_2   0.771443 0.968608 0.655715 -0.309362
O3    O     O_3   0.954340 0.864942 0.618318 -0.592825
O4    O     O_2   0.768661 0.081153 0.372033 -0.238170
O5    O     O_2   0.525097 0.075351 0.293681 -0.298433
O6    O     O_3   0.738127 0.214051 0.285339 -0.580837
O7    O     O_R   0.506860 0.577950 0.387360 -0.618389
O8    O     O_R   0.505450 0.562230 0.618920 -0.619085
O9    O     O_R   0.494550 0.437770 0.381080 -0.625395
O10   O     O_R   0.723530 0.446300 0.497600 -0.610117
O11   O     O_R   0.276470 0.553700 0.502400 -0.628421
O12   O     O_R   0.735850 0.586490 0.503880 -0.625455
O13   O     O_R   0.264150 0.413510 0.496120 -0.609532
O14   O     O_2   0.892907 0.986142 0.524935 -0.234643
S1    S     S_3+6 0.819234 0.922322 0.587432 0.012094
S2    S     S_3+6 0.647643 0.131121 0.342077 0.036578
Zn1   Zn    Zn3+2 0.491780 0.406400 0.495810 0.964849
Zn2   Zn    Zn3+2 0.508220 0.593600 0.504190 0.950817

loop_
_geom_bond_atom_site_label_1
_geom_bond_atom_site_label_2
_ccdc_geom_bond_type
O4    S2    D    
C22   C29   S    
C27   C29   A    
C7    C8    D    
C19   H25   S    
C25   C28   S    
O2    S1    D    
C22   C24   S    
C19   C21   A    
N3    Zn2   S    
C11   C14   A    
C4    N4    A    
C24   H7    S    
C5    O10   A    
C26   H13   S    
C17   C19   A    
C1    O1    A    
H19   O6    S    
H18   O3    S    
C11   H21   S    
C18   H24   S    
O7    Zn2   S    
C14   H23   S    
N1    N2    D    
C30   N5    S    
C24   H9    S    
C7    H1    S    
O9    Zn1   S    
C3    N3    A    
C10   C21   A    
C1    O8    A    
O6    S2    S    
C15   H22   S    
C6    O11   A    
O3    S1    S    
O12   Zn2   S    
C5    C7    S    
O14   S1    D    
C6    O13   A    
C6    C8    S    
C21   H2    S    
C27   H3    S    
C25   C26   S    
C2    C31   A    
C16   N1    S    
C2    C4    A    
C27   N4    A    
C13   H20   S    
C9    C20   A    
O1    Zn1   S    
C22   H11   S    
O13   Zn1   S    
C1    C9    S    
C23   C28   A    
C9    C11   A    
C25   H16   S    
C10   C12   S    
C26   H15   S    
C12   O7    A    
C4    H6    S    
C13   C15   A    
C14   C16   A    
O10   Zn1   S    
C20   H26   S    
C15   C17   A    
C31   N6    S    
N4    Zn1   S    
C8    H12   S    
C10   C13   A    
O11   Zn2   S    
C5    O12   A    
C28   C30   A    
C29   C31   A    
C32   S1    S    
C30   C32   A    
C22   H10   S    
C24   H8    S    
C18   C20   A    
C3    C32   A    
C25   H17   S    
C2    S2    S    
C26   H14   S    
C17   N2    S    
N5    N6    D    
C23   N3    A    
C3    H5    S    
C16   C18   A    
C23   H4    S    
O5    S2    D    
C12   O9    A    
O8    Zn2   S    
