data_mof_unit_13266.cif
_audit_creation_date              2012-12-10T20:37:25-0500
_audit_creation_method            fapswitch 2.2
_symmetry_space_group_name_H-M    P1
_symmetry_Int_Tables_number       1
_space_group_crystal_system       triclinic
_cell_length_a                    15.719376
_cell_length_b                    10.718279
_cell_length_c                    9.850541
_cell_angle_alpha                 89.633802
_cell_angle_beta                  90.209043
_cell_angle_gamma                 90.223035
_cell_volume                      1659.60765948

loop_
_atom_site_label
_atom_site_type_symbol
_atom_type_description
_atom_site_fract_x
_atom_site_fract_y
_atom_site_fract_z
_atom_type_partial_charge
C1    C     C_R   0.505600 0.260054 0.499630 0.937744
C2    C     C_R   0.523953 0.129256 0.495617 -0.229548
C3    C     C_R   0.532369 0.067000 0.370238 0.311494
C4    C     C_R   0.337865 0.499798 0.499792 0.881394
C5    C     C_R   0.520995 0.937262 0.368987 0.357658
C6    C     C_R   0.517868 0.871821 0.494407 -0.353102
C7    C     C_R   0.535641 0.934738 0.614391 0.148207
C8    C     C_3   0.495032 0.926266 0.751168 0.285996
C9    C     C_3   0.492003 0.067936 0.749570 -0.559863
C10   C     C_R   0.429303 0.464079 0.071098 0.199012
C11   C     C_R   0.564874 0.553003 0.072804 -0.227275
C12   C     C_3   0.082782 0.499237 0.500257 0.146554
C13   C     C_R   0.565990 0.552791 0.926800 0.540544
C14   C     C_R   0.429149 0.464444 0.928958 0.133485
C15   C     C_3   0.384837 0.341571 0.924384 -0.511147
C16   C     C_R   0.502254 0.740390 0.498914 0.929548
C17   C     C_3   0.384757 0.341567 0.078638 -0.488430
C18   C     C_R   0.662154 0.500428 0.500221 0.906180
C19   C     C_3   0.971339 0.387897 0.543188 -0.214068
C20   C     C_3   0.027499 0.409558 0.416093 -0.281119
C21   C     C_1   0.248932 0.499305 0.499563 -0.197699
C22   C     C_1   0.751102 0.501000 0.500608 -0.167674
C23   C     C_3   0.972847 0.589535 0.585431 -0.226401
C24   C     C_3   0.028633 0.476654 0.627332 -0.129820
C25   C     C_3   0.710309 0.610564 0.909390 0.087375
C26   C     C_3   0.733314 0.737645 0.968260 -0.777656
C27   C     C_3   0.002394 0.547140 0.149323 0.103190
C28   C     C_3   0.967617 0.596085 0.014989 -0.847530
C29   C     C_3   0.422254 0.901973 0.201637 0.107220
C30   C     C_3   0.387616 0.790148 0.124161 -0.824924
C31   C     C_3   0.917317 0.500820 0.501180 0.143012
C32   C     C_3   0.028953 0.612829 0.458599 -0.255624
C33   C     C_3   0.972714 0.522810 0.376772 0.549785
C34   C     C_1   0.173623 0.499031 0.499894 -0.070367
C35   C     C_1   0.826421 0.501220 0.500782 -0.031270
C36   C     C_R   0.535141 0.062051 0.615320 0.004768
H1    H     H_    0.052012 0.336368 0.347441 0.131939
H2    H     H_    0.054419 0.703987 0.422838 0.137215
H3    H     H_    0.948364 0.661956 0.655112 0.151875
H4    H     H_    0.054325 0.457127 0.730365 0.132879
H5    H     H_    0.431887 0.878867 0.752211 0.090854
H6    H     H_    0.528473 0.898931 0.937380 0.340557
H7    H     H_    0.756169 0.590626 0.826854 0.165680
H8    H     H_    0.719632 0.534511 0.985544 0.113837
H9    H     H_    0.685092 0.767894 0.042969 0.266244
H10   H     H_    0.796076 0.732688 0.019650 0.213509
H11   H     H_    0.736604 0.808359 0.885513 0.273439
H12   H     H_    0.425883 0.103382 0.740360 0.164046
H13   H     H_    0.024696 0.449926 0.133680 0.136936
H14   H     H_    0.057372 0.607175 0.178961 0.130382
H15   H     H_    0.948169 0.694938 0.025946 0.251737
H16   H     H_    0.017588 0.590875 0.935905 0.202233
H17   H     H_    0.911939 0.539424 0.982424 0.254930
H18   H     H_    0.562442 0.075724 0.178216 0.350827
H19   H     H_    0.423104 0.984051 0.132126 0.146838
H20   H     H_    0.376906 0.921169 0.286050 0.113342
H21   H     H_    0.378382 0.710012 0.194506 0.270491
H22   H     H_    0.325274 0.814009 0.077659 0.192044
H23   H     H_    0.532575 0.112757 0.828241 0.227177
H24   H     H_    0.432081 0.762494 0.042672 0.252234
H25   H     H_    0.615410 0.595702 0.130753 0.179934
H26   H     H_    0.320176 0.348568 0.879000 0.205058
H27   H     H_    0.425781 0.268332 0.881685 0.214265
H28   H     H_    0.320019 0.349966 0.122574 0.193685
H29   H     H_    0.424749 0.266944 0.124174 0.249159
H30   H     H_    0.945568 0.296799 0.578557 0.150829
N1    N     N_R   0.499430 0.499140 0.142800 -0.118931
N2    N     N_R   0.499430 0.499180 0.857150 -0.150780
O1    O     O_R   0.500010 0.316790 0.614690 -0.632728
O2    O     O_3   0.627920 0.614632 0.851113 -0.542319
O3    O     O_3   0.937437 0.549190 0.247809 -0.611268
O4    O     O_3   0.545072 0.133472 0.251117 -0.762812
O5    O     O_3   0.506242 0.876643 0.246968 -0.593915
O6    O     O_R   0.500000 0.316760 0.385350 -0.554629
O7    O     O_R   0.376780 0.500010 0.614650 -0.619413
O8    O     O_R   0.376770 0.499970 0.385310 -0.632082
O9    O     O_R   0.500000 0.683240 0.614650 -0.585061
O10   O     O_R   0.499990 0.683210 0.385310 -0.561564
O11   O     O_R   0.623230 0.500030 0.614690 -0.577845
O12   O     O_R   0.623220 0.499990 0.385350 -0.614373
O13   O     O_3   0.552723 0.879413 0.847299 -0.701633
Zn1   Zn    Zn3+2 0.500010 0.500020 0.653130 0.991082
Zn2   Zn    Zn3+2 0.499990 0.499980 0.346870 0.984447

loop_
_geom_bond_atom_site_label_1
_geom_bond_atom_site_label_2
_ccdc_geom_bond_type
N1    Zn2   S    
C4    C21   S    
C28   H16   S    
C7    C36   A    
C3    O4    S    
C19   C20   S    
O6    Zn2   S    
C19   C31   S    
C25   H7    S    
C7    C8    S    
C10   N1    A    
C22   C35   T    
C1    O6    A    
C16   O9    A    
C17   H28   S    
C5    C6    A    
C28   H15   S    
C29   O5    S    
C13   O2    S    
C10   C17   S    
C30   H21   S    
O8    Zn2   S    
C19   H30   S    
C1    C2    S    
C4    O7    A    
O1    Zn1   S    
C26   H9    S    
O10   Zn2   S    
C8    C9    S    
C30   H24   S    
C9    C36   S    
C23   C24   S    
C31   C33   S    
C32   H2    S    
C27   H14   S    
C12   C32   S    
H6    O13   S    
O12   Zn2   S    
C25   H8    S    
C11   N1    A    
C8    O13   S    
C8    H5    S    
C10   C14   A    
C33   O3    S    
C18   O11   A    
C21   C34   T    
C29   H19   S    
C11   H25   S    
C25   C26   S    
C1    O1    A    
C9    H23   S    
C23   C31   S    
C29   C30   S    
C12   C20   S    
C26   H11   S    
C20   C33   S    
C31   C35   S    
C12   C34   S    
C27   O3    S    
C2    C36   A    
C15   C17   S    
C14   N2    A    
C18   C22   S    
C3    C5    A    
O11   Zn1   S    
C28   H17   S    
O7    Zn1   S    
C6    C7    A    
C29   H20   S    
C12   C24   S    
C17   H29   S    
N2    Zn1   S    
C23   C32   S    
C19   C24   S    
C32   C33   S    
C20   H1    S    
C11   C13   A    
O9    Zn1   S    
C23   H3    S    
C30   H22   S    
C24   H4    S    
C15   H26   S    
C2    C3    A    
C16   O10   A    
C5    O5    S    
C4    O8    A    
C26   H10   S    
C6    C16   S    
H18   O4    S    
C9    H12   S    
C18   O12   A    
C27   C28   S    
C15   H27   S    
C14   C15   S    
C25   O2    S    
C27   H13   S    
C13   N2    A    
