data_mof_unit_31284.cif
_audit_creation_date              2012-12-10T17:17:25-0500
_audit_creation_method            fapswitch 2.2
_symmetry_space_group_name_H-M    P1
_symmetry_Int_Tables_number       1
_space_group_crystal_system       triclinic
_cell_length_a                    10.225941
_cell_length_b                    10.825169
_cell_length_c                    12.529539
_cell_angle_alpha                 91.095199
_cell_angle_beta                  110.658269
_cell_angle_gamma                 95.639299
_cell_volume                      1289.37043391

loop_
_atom_site_label
_atom_site_type_symbol
_atom_type_description
_atom_site_fract_x
_atom_site_fract_y
_atom_site_fract_z
_atom_type_partial_charge
C1    C     C_R   0.048953 0.731769 0.488897 0.957636
C2    C     C_R   0.437315 0.581056 0.990468 0.039290
C3    C     C_R   0.363894 0.592827 0.873906 -0.116469
C4    C     C_R   0.578756 0.558132 0.023842 0.003806
C5    C     C_R   0.649861 0.570179 0.945456 -0.101745
C6    C     C_R   0.584582 0.621497 0.840348 0.436679
C7    C     C_R   0.440969 0.634621 0.804681 0.427329
C8    C     C_R   0.648153 0.516382 0.130904 -0.281657
C9    C     C_R   0.853484 0.490601 0.082792 0.511637
C10   C     C_R   0.216813 0.564744 0.832487 -0.095537
C11   C     C_2   0.069699 0.862479 0.471716 -0.394239
C12   C     C_R   0.137957 0.524640 0.712296 0.899268
C13   C     C_2   0.966783 0.931179 0.467065 -0.156609
C14   C     C_2   0.910583 0.134962 0.497073 -0.384996
C15   C     C_2   0.988601 0.063135 0.462818 -0.153567
C16   C     C_2   0.431818 0.516288 0.502705 -0.103907
C17   C     C_2   0.568222 0.484326 0.494640 -0.137961
C18   C     C_R   0.946732 0.267681 0.504229 0.935086
C19   C     C_R   0.863463 0.486427 0.286324 0.881235
C20   C     C_R   0.784714 0.532320 0.974186 -0.253690
C21   C     C_R   0.788054 0.493392 0.164121 -0.164525
C22   C     C_R   0.145249 0.571496 0.909168 -0.200907
C23   C     C_R   0.220016 0.592372 0.025667 -0.120223
C24   C     C_R   0.364820 0.590048 0.067278 -0.157187
H1    H     H_    0.868493 0.891470 0.474326 0.189259
H2    H     H_    0.823420 0.096011 0.521065 0.147887
H3    H     H_    0.167710 0.902749 0.464509 0.148894
H4    H     H_    0.568120 0.400994 0.445068 0.155196
H5    H     H_    0.432824 0.600164 0.551086 0.236008
H6    H     H_    0.680194 0.636748 0.582833 0.222429
H7    H     H_    0.317675 0.366851 0.410287 0.159806
H8    H     H_    0.836283 0.535413 0.912600 0.180605
H9    H     H_    0.594266 0.501568 0.190397 0.177189
H10   H     H_    0.032108 0.561022 0.878721 0.164404
H11   H     H_    0.417952 0.599723 0.158811 0.131262
H12   H     H_    0.165961 0.605167 0.084373 0.201232
H13   H     H_    0.075930 0.101623 0.438700 0.186808
N1    N     N_2   0.313640 0.446500 0.454900 -0.197316
N2    N     N_2   0.686360 0.553430 0.545150 -0.178339
O1    O     O_R   0.936910 0.692950 0.509080 -0.626203
O2    O     O_R   0.138320 0.658600 0.480130 -0.578814
O3    O     O_R   0.002900 0.525670 0.675280 -0.617816
O4    O     O_R   0.204310 0.491320 0.646330 -0.566992
O5    O     O_R   0.861680 0.341400 0.519870 -0.611655
O6    O     O_R   0.063090 0.307050 0.490920 -0.616706
O7    O     O_R   0.795690 0.508680 0.353670 -0.629867
O8    O     O_R   0.997100 0.474330 0.324720 -0.556922
Zn1   Zn    Zn3+2 0.865520 0.522940 0.519330 0.937577
Zn2   Zn    Zn3+2 0.134480 0.477060 0.480670 0.986593
O9    O     O_3   0.987586 0.456035 0.112064 -0.616902
C25   C     C_3   0.979802 0.338363 0.058615 -0.338099
H14   H     H_    0.909521 0.267688 0.082294 0.159284
H15   H     H_    0.086542 0.307577 0.088419 0.195745
H16   H     H_    0.944908 0.342641 0.964171 0.162351
O10   O     O_3   0.658215 0.653710 0.769620 -0.616503
C26   C     C_3   0.733151 0.772548 0.806814 -0.359347
H17   H     H_    0.809444 0.774267 0.895972 0.165842
H18   H     H_    0.660467 0.844557 0.799209 0.176472
H19   H     H_    0.794374 0.797137 0.751200 0.185694
O11   O     O_3   0.380924 0.696378 0.706561 -0.588778
C27   C     C_3   0.345717 0.811874 0.736260 -0.328841
H20   H     H_    0.428345 0.860370 0.813536 0.138914
H21   H     H_    0.243194 0.799751 0.748983 0.165188
H22   H     H_    0.334850 0.873549 0.664769 0.185713

loop_
_geom_bond_atom_site_label_1
_geom_bond_atom_site_label_2
_ccdc_geom_bond_type
H6    N2    S    
C27   H22   S    
C2    C4    A    
C23   C24   A    
H7    N1    S    
C6    C7    A    
C18   O5    A    
C14   C18   S    
C9    C20   A    
C1    C11   S    
C26   H19   S    
O6    Zn2   S    
C6    O10   S    
C4    C8    A    
C25   H16   S    
C9    C21   A    
O10   C26   S    
O9    C25   S    
C19   O7    A    
C18   O6    A    
O8    Zn2   S    
N1    Zn2   S    
O3    Zn1   S    
C14   H2    S    
C11   C13   D    
C13   H1    S    
C5    C6    A    
C10   C12   S    
O2    Zn2   S    
C17   N2    D    
C19   C21   S    
C26   H18   S    
C11   H3    S    
C2    C3    A    
C12   O4    A    
C3    C7    A    
C8    H9    S    
C13   C15   S    
C2    C24   A    
C27   H20   S    
C22   H10   S    
C5    C20   A    
C24   H11   S    
C16   C17   S    
C25   H14   S    
O7    Zn1   S    
C7    O11   S    
C4    C5    A    
C26   H17   S    
C15   H13   S    
C27   H21   S    
C23   H12   S    
C20   H8    S    
C19   O8    A    
C1    O2    A    
C3    C10   A    
O1    Zn1   S    
C14   C15   D    
O4    Zn2   S    
C12   O3    A    
C1    O1    A    
C25   H15   S    
C16   H5    S    
C22   C23   A    
C17   H4    S    
C10   C22   A    
C9    O9    S    
O5    Zn1   S    
C16   N1    D    
O11   C27   S    
N2    Zn1   S    
C8    C21   A    
