data_mof_unit_20518.cif
_audit_creation_date              2012-12-11T14:41:10-0500
_audit_creation_method            fapswitch 2.2
_symmetry_space_group_name_H-M    P1
_symmetry_Int_Tables_number       1
_space_group_crystal_system       triclinic
_cell_length_a                    24.527877
_cell_length_b                    17.456472
_cell_length_c                    15.514312
_cell_angle_alpha                 89.561536
_cell_angle_beta                  129.126608
_cell_angle_gamma                 89.88755
_cell_volume                      5152.80021175

loop_
_atom_site_label
_atom_site_type_symbol
_atom_type_description
_atom_site_fract_x
_atom_site_fract_y
_atom_site_fract_z
_atom_type_partial_charge
Br1   Br    Br    0.627310 0.719015 0.256722 -0.613436
Br2   Br    Br    0.728718 0.393687 0.428020 -0.576271
Br3   Br    Br    0.185128 0.100552 0.284359 -0.500777
Br4   Br    Br    0.227819 0.892564 0.425635 -0.518941
Br5   Br    Br    0.304232 0.808417 0.255441 -0.535155
Br6   Br    Br    0.251324 0.239930 0.102908 -0.567970
Br7   Br    Br    0.804385 0.308364 0.255514 -0.557617
Br8   Br    Br    0.752732 0.739514 0.103977 -0.584055
C1    C     C_R   0.334762 0.390656 0.201212 -0.074899
C2    C     C_R   0.680890 0.624223 0.497208 0.029111
C3    C     C_R   0.143389 0.817876 0.500072 -0.007914
C4    C     C_R   0.183063 0.118859 0.498754 0.060735
C5    C     C_R   0.359701 0.318518 0.504194 0.030211
C6    C     C_R   0.318554 0.619980 0.499804 0.008802
C7    C     C_R   0.862565 0.814290 0.500576 0.028815
C8    C     C_R   0.818655 0.120331 0.499741 0.010751
C9    C     C_3   0.348171 0.237446 0.624628 -0.408900
C10   C     C_3   0.262773 0.642254 0.587773 -0.405985
C11   C     C_3   0.859396 0.702354 0.600568 -0.418443
C12   C     C_R   0.349405 0.640036 0.239186 -0.091738
C13   C     C_3   0.762715 0.142394 0.587422 -0.405561
C14   C     C_3   0.808033 0.643652 0.588853 -0.440506
C15   C     C_3   0.713677 0.198156 0.586892 -0.454776
C16   C     C_3   0.299088 0.182206 0.621528 -0.462635
C17   C     C_3   0.213993 0.698278 0.587533 -0.453090
C18   C     C_3   0.243327 0.299523 0.447659 -0.380665
C19   C     C_3   0.195510 0.668612 0.383807 -0.398369
C20   C     C_3   0.765991 0.806289 0.504934 -0.374592
C21   C     C_3   0.695673 0.169109 0.383589 -0.396148
C22   C     C_3   0.307690 0.188698 0.440805 -0.439368
C23   C     C_R   0.834678 0.891194 0.200695 -0.075621
C24   C     C_3   0.300256 0.750188 0.525930 -0.422849
C25   C     C_3   0.775957 0.707796 0.393601 -0.407695
C26   C     C_3   0.800401 0.250523 0.526086 -0.420197
C27   C     C_3   0.316254 0.261444 0.504743 0.318265
C28   C     C_3   0.269781 0.668352 0.499377 0.326504
C29   C     C_3   0.817536 0.758345 0.499816 0.318920
C30   C     C_3   0.769876 0.168693 0.499264 0.324574
C31   C     C_3   0.730328 0.670483 0.495464 0.261376
C32   C     C_3   0.687681 0.262507 0.498586 0.271291
C33   C     C_3   0.232621 0.166756 0.499288 0.239359
C34   C     C_R   0.849282 0.139923 0.238986 -0.087265
C35   C     C_3   0.187603 0.762295 0.498624 0.269183
C36   C     C_3   0.722780 0.753834 0.519680 -0.354463
C37   C     C_3   0.647015 0.223663 0.383432 -0.379254
C38   C     C_3   0.194540 0.244133 0.444473 -0.381815
C39   C     C_3   0.146766 0.722962 0.383769 -0.379965
C40   C     C_R   0.667911 0.393587 0.800840 -0.119783
C41   C     C_R   0.647577 0.640601 0.751178 -0.091319
C42   C     C_R   0.167880 0.893531 0.800818 -0.120667
C43   C     C_R   0.147224 0.140921 0.749934 -0.091126
C44   C     C_3   0.715476 0.667859 0.380962 0.163697
C45   C     C_R   0.648466 0.374086 0.864543 0.126633
C46   C     C_3   0.752647 0.306165 0.526740 0.207581
C47   C     C_3   0.258560 0.131165 0.438144 0.228843
C48   C     C_3   0.252319 0.805969 0.525914 0.208636
C49   C     C_2   0.695991 0.348058 0.980892 -0.162491
C50   C     C_2   0.639295 0.751101 0.846795 -0.135497
C51   C     C_2   0.195918 0.847843 0.980781 -0.155346
C52   C     C_2   0.138954 0.251638 0.845370 -0.140284
C53   C     C_2   0.765928 0.351224 0.040862 -0.163344
C54   C     C_2   0.699657 0.780448 0.879617 -0.232063
C55   C     C_2   0.265866 0.851099 0.040798 -0.156517
C56   C     C_R   0.612760 0.682993 0.779084 0.143540
C57   C     C_2   0.199706 0.280459 0.879182 -0.232020
C58   C     C_2   0.353419 0.752217 0.138861 -0.332785
C59   C     C_2   0.307506 0.341072 0.028091 -0.352063
C60   C     C_2   0.853139 0.252006 0.138388 -0.347593
C61   C     C_2   0.807458 0.841553 0.027721 -0.351051
C62   C     C_2   0.311524 0.802099 0.138899 0.391776
C63   C     C_2   0.253082 0.297388 0.996341 0.397932
C64   C     C_2   0.811499 0.302060 0.138780 0.395488
C65   C     C_2   0.753430 0.797402 0.996623 0.399853
C66   C     C_R   0.589296 0.358487 0.407197 -0.030991
C67   C     C_R   0.148385 0.873927 0.864441 0.123859
C68   C     C_R   0.614138 0.604131 0.406407 -0.072373
C69   C     C_R   0.089297 0.858459 0.407216 -0.020286
C70   C     C_R   0.114692 0.104071 0.407092 -0.082849
C71   C     C_R   0.412271 0.360069 0.595538 -0.139583
C72   C     C_R   0.386400 0.603081 0.592207 -0.147701
C73   C     C_R   0.913531 0.857101 0.593253 -0.144034
C74   C     C_R   0.886450 0.103284 0.592189 -0.149402
C75   C     C_R   0.666202 0.359560 0.593159 -0.124018
C76   C     C_R   0.688003 0.606198 0.590704 -0.142556
C77   C     C_R   0.166204 0.859552 0.593159 -0.127151
C78   C     C_R   0.112461 0.183395 0.777893 0.144519
C79   C     C_R   0.189509 0.099808 0.591156 -0.161022
C80   C     C_R   0.337939 0.358015 0.409393 -0.136010
C81   C     C_R   0.312435 0.603294 0.407710 -0.097298
C82   C     C_R   0.838600 0.857960 0.407725 -0.123199
C83   C     C_R   0.812481 0.103452 0.407662 -0.095603
C84   C     C_R   0.577956 0.393327 0.803188 -0.138435
C85   C     C_R   0.556202 0.640848 0.751868 -0.111220
C86   C     C_R   0.077850 0.893153 0.803029 -0.133715
C87   C     C_R   0.056087 0.141112 0.751307 -0.106813
C88   C     C_R   0.424851 0.389425 0.199158 -0.173804
C89   C     C_R   0.643419 0.317950 0.500050 0.000612
C90   C     C_R   0.441381 0.641873 0.239900 -0.149092
C91   C     C_R   0.924868 0.889710 0.199006 -0.174094
C92   C     C_R   0.941147 0.141760 0.239493 -0.157760
C93   C     C_R   0.355957 0.366967 0.141911 0.217917
C94   C     C_R   0.382042 0.682638 0.207589 0.197510
C95   C     C_R   0.855907 0.867560 0.141456 0.216012
C96   C     C_R   0.881800 0.182468 0.207173 0.202334
H1    H     H_    0.281184 0.396471 0.170279 0.114968
H2    H     H_    0.742824 0.222631 0.671274 0.154186
H3    H     H_    0.327738 0.127584 0.663920 0.166127
H4    H     H_    0.243471 0.723077 0.671790 0.155832
H5    H     H_    0.283975 0.208261 0.669192 0.174286
H6    H     H_    0.168554 0.666667 0.569677 0.183100
H7    H     H_    0.820527 0.637918 0.670917 0.165645
H8    H     H_    0.668060 0.166409 0.568211 0.185091
H9    H     H_    0.249249 0.352018 0.493230 0.157497
H10   H     H_    0.173427 0.609769 0.362318 0.155084
H11   H     H_    0.794864 0.847251 0.575180 0.147908
H12   H     H_    0.299629 0.651550 0.220306 0.129903
H13   H     H_    0.673448 0.110330 0.362023 0.159995
H14   H     H_    0.741957 0.758059 0.606451 0.150502
H15   H     H_    0.601046 0.191883 0.363449 0.163468
H16   H     H_    0.176784 0.269671 0.488760 0.162989
H17   H     H_    0.101142 0.690921 0.364645 0.161342
H18   H     H_    0.754358 0.739911 0.316392 0.223142
H19   H     H_    0.806718 0.268908 0.463991 0.241383
H20   H     H_    0.286399 0.204941 0.355172 0.230055
H21   H     H_    0.306834 0.768349 0.464056 0.240339
H22   H     H_    0.359930 0.161335 0.481855 0.160185
H23   H     H_    0.781031 0.897271 0.169365 0.120125
H24   H     H_    0.353460 0.751180 0.608954 0.141135
H25   H     H_    0.811827 0.663946 0.401147 0.171621
H26   H     H_    0.853710 0.251401 0.608939 0.138823
H27   H     H_    0.712876 0.607253 0.356972 0.138322
H28   H     H_    0.783250 0.330300 0.611722 0.084861
H29   H     H_    0.288917 0.077931 0.483359 0.135120
H30   H     H_    0.282887 0.830799 0.610485 0.083957
H31   H     H_    0.218148 0.317300 0.360752 0.167618
H32   H     H_    0.197879 0.688890 0.318072 0.184927
H33   H     H_    0.730121 0.840744 0.427116 0.196249
H34   H     H_    0.799500 0.151395 0.220108 0.130907
H35   H     H_    0.698160 0.189292 0.317945 0.184666
H36   H     H_    0.720514 0.395744 0.827425 0.084945
H37   H     H_    0.695395 0.654929 0.765439 0.090804
H38   H     H_    0.220491 0.895683 0.827439 0.087177
H39   H     H_    0.194545 0.155447 0.762597 0.091648
H40   H     H_    0.666937 0.773352 0.463988 0.198435
H41   H     H_    0.627088 0.266479 0.316025 0.191050
H42   H     H_    0.146886 0.236094 0.356519 0.181376
H43   H     H_    0.126285 0.765446 0.315800 0.191306
H44   H     H_    0.789156 0.378012 0.007700 0.114131
H45   H     H_    0.400633 0.209951 0.667767 0.163998
H46   H     H_    0.715878 0.775478 0.828901 0.121260
H47   H     H_    0.289085 0.877935 0.007652 0.116818
H48   H     H_    0.216461 0.275055 0.829249 0.121156
H49   H     H_    0.359764 0.757317 0.075705 0.130064
H50   H     H_    0.313172 0.362612 0.968192 0.125739
H51   H     H_    0.859356 0.257044 0.075082 0.123320
H52   H     H_    0.812669 0.863433 0.967453 0.126247
H53   H     H_    0.673333 0.319750 0.014252 0.163321
H54   H     H_    0.620630 0.762395 0.893121 0.175769
H55   H     H_    0.173270 0.819505 0.014136 0.163010
H56   H     H_    0.314874 0.641030 0.672152 0.157019
H57   H     H_    0.119876 0.263338 0.891010 0.169875
H58   H     H_    0.561366 0.346116 0.320805 0.096491
H59   H     H_    0.593188 0.599085 0.321343 0.147925
H60   H     H_    0.061367 0.846084 0.320827 0.096639
H61   H     H_    0.090889 0.108869 0.320538 0.144045
H62   H     H_    0.439917 0.348043 0.682450 0.094227
H63   H     H_    0.408085 0.604266 0.678182 0.093753
H64   H     H_    0.939801 0.843451 0.679366 0.095111
H65   H     H_    0.908114 0.104519 0.678153 0.093524
H66   H     H_    0.710681 0.347412 0.678753 0.085744
H67   H     H_    0.901065 0.672098 0.604942 0.171594
H68   H     H_    0.735141 0.607789 0.676347 0.089651
H69   H     H_    0.210677 0.847414 0.678757 0.088169
H70   H     H_    0.236820 0.096502 0.676818 0.099143
H71   H     H_    0.295598 0.343766 0.323974 0.130177
H72   H     H_    0.265448 0.602331 0.321835 0.085854
H73   H     H_    0.795121 0.847645 0.321804 0.131311
H74   H     H_    0.765492 0.102449 0.321795 0.088254
H75   H     H_    0.549467 0.395808 0.835010 0.101503
H76   H     H_    0.519723 0.656519 0.765793 0.104357
H77   H     H_    0.049166 0.895353 0.834543 0.104427
H78   H     H_    0.814754 0.141295 0.671895 0.155140
H79   H     H_    0.019644 0.156910 0.765256 0.101377
H80   H     H_    0.452719 0.392069 0.166276 0.107407
H81   H     H_    0.477297 0.657713 0.224799 0.143305
H82   H     H_    0.952854 0.892349 0.166324 0.111071
H83   H     H_    0.976772 0.157600 0.223855 0.108493
H84   H     H_    0.354925 0.288265 0.673396 0.162128
H85   H     H_    0.241076 0.583315 0.569462 0.166687
H86   H     H_    0.885413 0.734058 0.679435 0.164526
H87   H     H_    0.741180 0.083375 0.569071 0.169447
H88   H     H_    0.816704 0.586484 0.567887 0.195855
N1    N     N_R   0.389430 0.421450 0.294590 -0.054386
N2    N     N_R   0.581780 0.577610 0.443390 -0.045785
N3    N     N_R   0.081780 0.922390 0.443390 -0.034459
N4    N     N_R   0.081780 0.077610 0.443390 -0.046072
N5    N     N_R   0.419850 0.423100 0.556610 -0.038022
N6    N     N_R   0.419850 0.576900 0.556610 -0.034557
N7    N     N_R   0.919850 0.923100 0.556610 -0.039044
N8    N     N_R   0.919850 0.076900 0.556610 -0.035286
N9    N     N_R   0.627410 0.423100 0.556610 -0.035117
N10   N     N_R   0.627410 0.576900 0.556610 -0.039811
N11   N     N_R   0.127410 0.923100 0.556610 -0.034774
N12   N     N_R   0.389430 0.578550 0.294590 -0.058369
N13   N     N_R   0.127410 0.076900 0.556610 -0.041658
N14   N     N_R   0.374220 0.422390 0.443390 -0.043403
N15   N     N_R   0.374220 0.577610 0.443390 -0.034904
N16   N     N_R   0.874220 0.922390 0.443390 -0.045573
N17   N     N_R   0.874220 0.077610 0.443390 -0.036070
N18   N     N_R   0.555000 0.424040 0.705410 -0.042264
N19   N     N_R   0.555000 0.575960 0.705410 -0.045821
N20   N     N_R   0.055000 0.924040 0.705410 -0.042772
N21   N     N_R   0.055000 0.075960 0.705410 -0.045554
N22   N     N_R   0.446630 0.421450 0.294590 -0.049460
N23   N     N_R   0.889430 0.921450 0.294590 -0.055658
N24   N     N_R   0.446630 0.578550 0.294590 -0.052249
N25   N     N_R   0.946630 0.921450 0.294590 -0.049977
N26   N     N_R   0.946630 0.078550 0.294590 -0.049384
N27   N     N_R   0.889430 0.078550 0.294590 -0.059485
N28   N     N_R   0.612200 0.424040 0.705410 -0.044644
N29   N     N_R   0.612200 0.575960 0.705410 -0.049317
N30   N     N_R   0.112200 0.924040 0.705410 -0.044918
N31   N     N_R   0.112200 0.075960 0.705410 -0.049264
N32   N     N_R   0.581780 0.422390 0.443390 -0.037743
Ni1   Ni    Ni4+2 0.382890 0.500000 0.370170 0.207492
Ni2   Ni    Ni4+2 0.882890 0.000000 0.370170 0.209330
Ni3   Ni    Ni4+2 0.618740 0.500000 0.629830 0.222471
Ni4   Ni    Ni4+2 0.118740 0.000000 0.629830 0.222841
Ni5   Ni    Ni4+2 0.514090 0.500000 0.370170 0.231659
Ni6   Ni    Ni4+2 0.014090 0.000000 0.370170 0.240413
Ni7   Ni    Ni4+2 0.487550 0.500000 0.629830 0.219373
Ni8   Ni    Ni4+2 0.987550 0.000000 0.629830 0.220313

loop_
_geom_bond_atom_site_label_1
_geom_bond_atom_site_label_2
_ccdc_geom_bond_type
C50   C54   D    
C91   C95   A    
C22   H22   S    
C10   H85   S    
C86   N20   A    
C26   H19   S    
C71   N5    A    
C34   H34   S    
N29   Ni3   S    
C58   C94   S    
C84   N18   A    
C23   H23   S    
C83   N17   A    
C60   H51   S    
C87   H79   S    
C17   C35   S    
C5    C71   A    
C88   N22   A    
N1    N22   A    
C7    C73   A    
N20   N30   A    
C25   C44   S    
C15   H8    S    
Br5   C62   S    
C80   H71   S    
N19   Ni7   S    
C22   C27   S    
C59   H50   S    
C37   H41   S    
C19   H32   S    
C24   C28   S    
C9    C27   S    
C20   H11   S    
C53   H44   S    
C11   H67   S    
C56   C85   A    
C5    C27   S    
C90   H81   S    
N23   N25   A    
C6    C28   S    
N20   Ni8   S    
C1    N1    A    
C39   H17   S    
N3    N11   A    
C14   C31   S    
C9    H84   S    
C1    H1    S    
C15   C32   S    
N2    N10   A    
C83   H74   S    
C66   N32   A    
C92   C96   A    
N18   N28   A    
N13   Ni4   S    
N4    N13   A    
C79   N13   A    
C49   H53   S    
C18   H31   S    
C3    C69   A    
N16   Ni2   S    
Br3   C47   S    
N15   Ni1   S    
N26   Ni6   S    
C13   C30   S    
C91   N25   A    
C43   N31   A    
C4    C70   A    
C21   C30   S    
C85   N19   A    
C77   H69   S    
C33   C38   S    
C54   C65   S    
C61   C65   D    
C86   H77   S    
C6    C72   A    
C11   C29   S    
C32   C37   S    
C72   H63   S    
C75   N9    A    
C37   H15   S    
C69   H60   S    
C61   C95   S    
C31   C44   S    
C74   H65   S    
C92   N26   A    
C71   H62   S    
C41   C56   A    
C26   C30   S    
C88   C93   A    
Br4   C48   S    
C16   C33   S    
C75   C89   A    
N2    Ni5   S    
N5    N14   A    
C40   C45   A    
C10   C17   S    
C51   H55   S    
C88   H80   S    
C43   C78   A    
N11   Ni4   S    
C85   H76   S    
C52   H57   S    
C66   C89   A    
N5    Ni7   S    
C50   C56   S    
Br6   C63   S    
C21   H35   S    
C39   H43   S    
C9    C16   S    
C40   H36   S    
C61   H52   S    
C92   H83   S    
C76   N10   A    
C12   N12   A    
C34   N27   A    
C50   H54   S    
N22   Ni5   S    
C80   N14   A    
C32   C89   S    
C12   H12   S    
C45   C49   S    
N6    Ni7   S    
C26   H26   S    
C47   H29   S    
C15   H2    S    
C21   H13   S    
C20   C36   S    
C25   C29   S    
N3    Ni6   S    
C21   C37   S    
C2    C31   S    
C23   C95   A    
C24   H21   S    
N7    Ni8   S    
C6    C81   A    
C74   N8    A    
C4    C33   S    
C84   H75   S    
C90   C94   A    
N25   Ni6   S    
C35   C48   S    
C55   C62   S    
N30   Ni4   S    
C36   H40   S    
C72   N6    A    
C11   C14   S    
C45   C84   A    
C8    C74   A    
N24   Ni5   S    
C38   H16   S    
C16   H3    S    
C70   N4    A    
C3    C35   S    
C55   H47   S    
C31   C36   S    
N21   Ni8   S    
C68   N2    A    
C17   H6    S    
C82   N16   A    
C53   C64   S    
C67   C86   A    
C22   H20   S    
C52   C57   D    
C26   C46   S    
N18   Ni7   S    
C32   C46   S    
C13   C15   S    
Br2   C46   S    
C25   H18   S    
C87   N21   A    
N14   Ni1   S    
C25   H25   S    
C36   H14   S    
C14   H88   S    
C51   C67   S    
Br7   C64   S    
C59   C93   S    
C66   H58   S    
C40   N28   A    
C19   C39   S    
N9    Ni3   S    
C79   H70   S    
C90   N24   A    
C42   N30   A    
C70   H61   S    
C52   C78   S    
C38   H42   S    
C54   H46   S    
C4    C79   A    
C41   N29   A    
N6    N15   A    
N31   Ni4   S    
C44   H27   S    
C2    C68   A    
C60   C64   D    
C9    H45   S    
C20   H33   S    
C60   C96   S    
N4    Ni6   S    
C13   H78   S    
C76   H68   S    
C34   C96   A    
C73   N7    A    
C58   H49   S    
C48   H30   S    
C49   C53   D    
N10   Ni3   S    
C43   H39   S    
C75   H66   S    
C46   H28   S    
C22   C47   S    
N12   N24   A    
C51   C55   D    
N8    N17   A    
C81   H72   S    
C19   C28   S    
N23   Ni2   S    
C57   H48   S    
C69   N3    A    
C18   H9    S    
N1    Ni1   S    
C7    C29   S    
N32   Ni5   S    
C7    C82   A    
N21   N31   A    
C12   C94   A    
C24   H24   S    
N26   N27   A    
C81   N15   A    
N7    N16   A    
C10   C28   S    
C20   C29   S    
C3    C77   A    
C33   C47   S    
C16   H5    S    
C5    C80   A    
C2    C76   A    
Br8   C65   S    
C41   H37   S    
C73   H64   S    
C59   C63   D    
N27   Ni2   S    
Br1   C44   S    
C82   H73   S    
C10   H56   S    
C78   C87   A    
C77   N11   A    
C11   H86   S    
C19   H10   S    
C18   C27   S    
C57   C63   S    
C23   N23   A    
C58   C62   D    
N28   Ni3   S    
C8    C83   A    
C1    C93   A    
C14   H7    S    
N17   Ni2   S    
C68   H59   S    
N8    Ni8   S    
N9    N32   A    
N12   Ni1   S    
C42   C67   A    
C18   C38   S    
C35   C39   S    
C24   C48   S    
C91   H82   S    
C42   H38   S    
C17   H4    S    
C8    C30   S    
C13   H87   S    
N19   N29   A    
