data_mof_unit_61177.cif
_audit_creation_date              2012-12-10T18:49:04-0500
_audit_creation_method            fapswitch 2.2
_symmetry_space_group_name_H-M    P1
_symmetry_Int_Tables_number       1
_space_group_crystal_system       triclinic
_cell_length_a                    47.17492
_cell_length_b                    47.153297
_cell_length_c                    47.074975
_cell_angle_alpha                 90.159403
_cell_angle_beta                  89.688097
_cell_angle_gamma                 90.148579
_cell_volume                      104713.765176

loop_
_atom_site_label
_atom_site_type_symbol
_atom_type_description
_atom_site_fract_x
_atom_site_fract_y
_atom_site_fract_z
_atom_type_partial_charge
C1    C     C_R   0.999965 0.444441 0.500335 0.987725
C2    C     C_R   0.555565 0.000025 0.499671 0.991471
C3    C     C_R   0.476646 0.898660 0.014440 0.298296
C4    C     C_R   0.485160 0.023026 0.899525 0.279417
C5    C     C_R   0.522600 0.897290 0.989966 0.303590
C6    C     C_R   0.514713 0.979484 0.101402 0.290303
C7    C     C_R   0.524626 0.101585 0.012153 0.297093
C8    C     C_R   0.977603 0.100665 0.486192 0.302838
C9    C     C_R   0.101955 0.021089 0.488035 0.297259
C10   C     C_R   0.021669 0.899799 0.481788 0.308200
C11   C     C_R   0.899146 0.976244 0.489439 0.289704
C12   C     C_R   0.021168 0.101345 0.514116 0.298953
C13   C     C_R   0.499945 0.999967 0.444641 1.005574
C14   C     C_R   0.899071 0.023232 0.511495 0.299496
C15   C     C_R   0.982935 0.897292 0.516460 0.302484
C16   C     C_R   0.099800 0.974604 0.510817 0.294563
C17   C     C_R   0.102602 0.477587 0.010325 0.302095
C18   C     C_R   0.024464 0.485132 0.900199 0.290463
C19   C     C_R   0.898515 0.475543 0.987437 0.297623
C20   C     C_R   0.978224 0.516757 0.100943 0.280938
C21   C     C_R   0.101467 0.523128 0.985444 0.300756
C22   C     C_R   0.013667 0.479582 0.102381 0.285918
C23   C     C_R   0.897044 0.523551 0.007523 0.314041
C24   C     C_R   0.444399 0.999954 0.499405 0.995809
C25   C     C_R   0.981167 0.513372 0.897416 0.287370
C26   C     C_R   0.000754 0.502530 0.413496 -0.361242
C27   C     C_R   0.000352 0.586518 0.496686 -0.354669
C28   C     C_R   0.000068 0.496401 0.586586 -0.361269
C29   C     C_R   0.999799 0.413136 0.501384 -0.369184
C30   C     C_R   0.499485 0.586176 0.000088 -0.348636
C31   C     C_R   0.586158 0.499241 0.999790 -0.347934
C32   C     C_R   0.500824 0.413851 0.999839 -0.348108
C33   C     C_R   0.413816 0.500441 0.000268 -0.348222
C34   C     C_R   0.586879 0.000134 0.498647 -0.367973
C35   C     C_R   0.499963 0.944442 0.000380 0.991498
C36   C     C_R   0.499471 0.999926 0.413672 -0.348243
C37   C     C_R   0.413036 0.999628 0.497717 -0.368143
C38   C     C_R   0.498323 0.999697 0.586708 -0.371968
C39   C     C_R   0.500707 0.001763 0.913396 -0.369128
C40   C     C_R   0.500280 0.087016 0.001927 -0.369946
C41   C     C_R   0.499710 0.000355 0.086336 -0.348518
C42   C     C_R   0.499768 0.913138 0.001571 -0.368478
C43   C     C_R   0.999604 0.086205 0.500084 -0.350935
C44   C     C_R   0.086130 0.998606 0.499709 -0.345846
C45   C     C_R   0.001676 0.913484 0.499538 -0.345800
C46   C     C_R   0.500124 0.999971 0.944527 0.988555
C47   C     C_R   0.913866 0.999823 0.500332 -0.347230
C48   C     C_R   0.086872 0.500216 0.998484 -0.365682
C49   C     C_R   0.001994 0.499640 0.913654 -0.346364
C50   C     C_R   0.913017 0.499731 0.998187 -0.370888
C51   C     C_R   0.998343 0.499761 0.086720 -0.371910
C52   C     C_R   0.023623 0.493843 0.191246 0.675002
C53   C     C_R   0.987763 0.810392 0.476530 0.691786
C54   C     C_R   0.021926 0.514502 0.809401 0.695041
C55   C     C_R   0.992853 0.189530 0.525955 0.693119
C56   C     C_R   0.990168 0.529709 0.190767 0.678320
C57   C     C_R   0.500035 0.055613 0.000535 0.995503
C58   C     C_R   0.002587 0.189988 0.476236 0.693014
C59   C     C_R   0.991174 0.474329 0.810871 0.691457
C60   C     C_R   0.022497 0.809466 0.513096 0.694952
C61   C     C_R   0.493986 0.809474 0.977333 0.690176
C62   C     C_R   0.808974 0.498335 0.972361 0.696704
C63   C     C_R   0.504915 0.190421 0.976844 0.691092
C64   C     C_R   0.191253 0.499417 0.972765 0.696834
C65   C     C_R   0.500265 0.809029 0.027523 0.696691
C66   C     C_R   0.190288 0.506356 0.022916 0.689768
C67   C     C_R   0.502253 0.191361 0.027411 0.696983
C68   C     C_R   0.499924 0.000041 0.055358 1.003551
C69   C     C_R   0.809312 0.495198 0.022877 0.691072
C70   C     C_R   0.809832 0.998185 0.524420 0.693250
C71   C     C_R   0.517071 0.018367 0.189985 0.693298
C72   C     C_R   0.189305 0.990556 0.473320 0.693250
C73   C     C_R   0.473760 0.013660 0.809212 0.677850
C74   C     C_R   0.810855 0.002619 0.474018 0.692267
C75   C     C_R   0.507026 0.977594 0.808504 0.675066
C76   C     C_R   0.189792 0.997110 0.523524 0.692578
C77   C     C_R   0.479798 0.984143 0.189879 0.693206
C78   C     C_R   0.523441 0.993583 0.691105 0.675292
C79   C     C_R   0.944698 0.999967 0.500092 1.028252
C80   C     C_R   0.499060 0.309979 0.975866 0.693302
C81   C     C_R   0.515290 0.019587 0.310165 0.692689
C82   C     C_R   0.493202 0.689451 0.026255 0.693014
C83   C     C_R   0.488865 0.028380 0.691129 0.678068
C84   C     C_R   0.501148 0.689979 0.976229 0.692926
C85   C     C_R   0.481288 0.982108 0.310033 0.693772
C86   C     C_R   0.509322 0.310895 0.025374 0.693091
C87   C     C_R   0.995058 0.309430 0.476967 0.690416
C88   C     C_R   0.308875 0.998111 0.471849 0.697115
C89   C     C_R   0.987802 0.690422 0.472928 0.697497
C90   C     C_R   0.999976 0.055329 0.500026 1.030017
C91   C     C_R   0.691168 0.997481 0.472861 0.696488
C92   C     C_R   0.000095 0.309064 0.527306 0.696582
C93   C     C_R   0.690392 0.006316 0.522721 0.690367
C94   C     C_R   0.023066 0.689561 0.508982 0.689152
C95   C     C_R   0.309451 0.992540 0.522141 0.690482
C96   C     C_R   0.309751 0.499153 0.024314 0.693183
C97   C     C_R   0.021922 0.510508 0.689407 0.689821
C98   C     C_R   0.689423 0.491447 0.973937 0.693333
C99   C     C_R   0.974874 0.517175 0.309177 0.677575
C100  C     C_R   0.310793 0.506480 0.974261 0.692554
C101  C     C_R   0.055311 0.999902 0.499923 1.028730
C102  C     C_R   0.006480 0.479609 0.308742 0.673317
C103  C     C_R   0.689786 0.501375 0.023595 0.692895
C104  C     C_R   0.989721 0.471482 0.690798 0.697638
C105  C     C_R   0.985771 0.527971 0.220401 -0.171797
C106  C     C_R   0.024585 0.779615 0.511370 -0.173325
C107  C     C_R   0.991769 0.471724 0.780963 -0.170455
C108  C     C_R   0.999869 0.219713 0.475317 -0.171387
C109  C     C_R   0.020540 0.489577 0.220642 -0.170197
C110  C     C_R   0.994617 0.219350 0.527383 -0.171362
C111  C     C_R   0.024153 0.512812 0.779517 -0.172557
C112  C     C_R   0.000127 0.500112 0.444547 1.000876
C113  C     C_R   0.000245 0.944552 0.499929 1.027850
C114  C     C_R   0.988421 0.780538 0.473785 -0.171318
C115  C     C_R   0.497510 0.779269 0.028258 -0.173762
C116  C     C_R   0.779474 0.496551 0.024113 -0.170231
C117  C     C_R   0.505246 0.221097 0.027830 -0.173454
C118  C     C_R   0.220089 0.504714 0.024332 -0.169113
C119  C     C_R   0.495640 0.779654 0.975991 -0.169380
C120  C     C_R   0.221014 0.502168 0.972084 -0.174090
C121  C     C_R   0.503753 0.220263 0.975529 -0.170439
C122  C     C_R   0.779231 0.495507 0.971794 -0.173430
C123  C     C_R   0.781019 0.001118 0.472686 -0.171363
C124  C     C_R   0.999982 0.499991 0.055508 0.985884
C125  C     C_R   0.479271 0.983237 0.219860 -0.171896
C126  C     C_R   0.219547 0.994526 0.524178 -0.171640
C127  C     C_R   0.511992 0.980564 0.779184 -0.169979
C128  C     C_R   0.780083 0.000948 0.524994 -0.171354
C129  C     C_R   0.476494 0.018288 0.779732 -0.171945
C130  C     C_R   0.219180 0.991785 0.471927 -0.171176
C131  C     C_R   0.516721 0.019846 0.219938 -0.171822
C132  C     C_R   0.484355 0.025951 0.720669 -0.172167
C133  C     C_R   0.508005 0.281058 0.026899 -0.171301
C134  C     C_R   0.479754 0.982500 0.280096 -0.172068
C135  C     C_R   0.055563 0.500034 0.999626 0.994406
C136  C     C_R   0.498393 0.719711 0.975446 -0.171487
C137  C     C_R   0.520538 0.988874 0.720462 -0.169970
C138  C     C_R   0.494847 0.719288 0.027649 -0.171343
C139  C     C_R   0.516126 0.020182 0.280183 -0.171698
C140  C     C_R   0.501651 0.280233 0.974998 -0.171657
C141  C     C_R   0.997352 0.279309 0.528009 -0.173458
C142  C     C_R   0.279564 0.993073 0.523513 -0.170064
C143  C     C_R   0.024962 0.719475 0.509214 -0.169162
C144  C     C_R   0.720169 0.004297 0.524182 -0.169193
C145  C     C_R   0.996945 0.279631 0.475705 -0.169506
C146  C     C_R   0.000226 0.499946 0.944624 1.006350
C147  C     C_R   0.720999 0.999478 0.472076 -0.173969
C148  C     C_R   0.988611 0.720371 0.471825 -0.174644
C149  C     C_R   0.279162 0.994865 0.471226 -0.173704
C150  C     C_R   0.280976 0.504832 0.972812 -0.171118
C151  C     C_R   0.991225 0.470169 0.720730 -0.173583
C152  C     C_R   0.719520 0.498824 0.024504 -0.171470
C153  C     C_R   0.011668 0.482207 0.279430 -0.168044
C154  C     C_R   0.280017 0.501942 0.025020 -0.171738
C155  C     C_R   0.977854 0.521436 0.279641 -0.171488
C156  C     C_R   0.719265 0.492866 0.972509 -0.171531
C157  C     C_R   0.944394 0.499962 0.999521 0.994028
C158  C     C_R   0.024140 0.510829 0.719316 -0.169171
C159  C     C_R   0.000800 0.506828 0.235282 -0.091532
C160  C     C_R   0.006662 0.765036 0.491974 -0.080682
C161  C     C_R   0.008002 0.491733 0.765181 -0.081133
C162  C     C_R   0.997172 0.234526 0.501478 -0.085445
C163  C     C_R   0.496530 0.764462 0.001980 -0.085133
C164  C     C_R   0.764354 0.495919 0.998096 -0.084384
C165  C     C_R   0.504658 0.235679 0.001489 -0.084225
C166  C     C_R   0.235547 0.503484 0.998385 -0.085176
C167  C     C_R   0.765549 0.001277 0.498659 -0.084697
C168  C     C_R   0.021811 0.490085 0.368052 0.384480
C169  C     C_R   0.497956 0.001516 0.234969 -0.080648
C170  C     C_R   0.234374 0.993265 0.497878 -0.084114
C171  C     C_R   0.496571 0.001702 0.764750 -0.091241
C172  C     C_R   0.500138 0.005182 0.735286 -0.091265
C173  C     C_R   0.504822 0.265644 0.001128 -0.084411
C174  C     C_R   0.497929 0.001417 0.265070 -0.080622
C175  C     C_R   0.496553 0.734500 0.001694 -0.085196
C176  C     C_R   0.997125 0.264476 0.501729 -0.085433
C177  C     C_R   0.264356 0.993672 0.497542 -0.083969
C178  C     C_R   0.006804 0.734973 0.490946 -0.080886
C179  C     C_R   0.983751 0.633049 0.511720 0.369857
C180  C     C_R   0.735585 0.001705 0.498305 -0.084610
C181  C     C_R   0.265500 0.503457 0.998736 -0.085252
C182  C     C_R   0.007864 0.490850 0.735085 -0.081242
C183  C     C_R   0.734393 0.495828 0.998369 -0.084520
C184  C     C_R   0.997161 0.503844 0.264803 -0.091191
C185  C     C_R   0.966711 0.545896 0.235309 0.369875
C186  C     C_R   0.043970 0.764013 0.528137 0.368775
C187  C     C_R   0.976909 0.449889 0.766440 0.369345
C188  C     C_R   0.999995 0.234947 0.449390 0.370159
C189  C     C_R   0.035754 0.468481 0.235458 0.369228
C190  C     C_R   0.982753 0.510410 0.633343 0.368913
C191  C     C_R   0.993741 0.234340 0.553544 0.369961
C192  C     C_R   0.041915 0.531301 0.763642 0.369385
C193  C     C_R   0.971725 0.765812 0.453493 0.368822
C194  C     C_R   0.496008 0.763983 0.054125 0.369726
C195  C     C_R   0.764410 0.498345 0.050229 0.369693
C196  C     C_R   0.508525 0.236569 0.053480 0.369690
C197  C     C_R   0.234793 0.504389 0.050545 0.370126
C198  C     C_R   0.496298 0.764680 0.949810 0.370008
C199  C     C_R   0.236565 0.503345 0.946246 0.369678
C200  C     C_R   0.501892 0.235048 0.949392 0.369547
C201  C     C_R   0.975709 0.368905 0.513420 0.373869
C202  C     C_R   0.764032 0.492573 0.946039 0.369718
C203  C     C_R   0.766291 0.999753 0.446515 0.369915
C204  C     C_R   0.460740 0.964920 0.235073 0.368787
C205  C     C_R   0.234806 0.993508 0.550021 0.370140
C206  C     C_R   0.532036 0.963830 0.764244 0.369429
C207  C     C_R   0.764557 0.003223 0.550782 0.370170
C208  C     C_R   0.460526 0.038981 0.765087 0.369438
C209  C     C_R   0.234220 0.991519 0.445728 0.369781
C210  C     C_R   0.534446 0.038821 0.235190 0.368935
C211  C     C_R   0.464487 0.042842 0.735710 0.369259
C212  C     C_R   0.987380 0.527469 0.370458 0.389400
C213  C     C_R   0.509866 0.266275 0.053036 0.369734
C214  C     C_R   0.460866 0.964682 0.264855 0.368932
C215  C     C_R   0.497674 0.734976 0.949552 0.370136
C216  C     C_R   0.536536 0.968198 0.735058 0.369766
C217  C     C_R   0.494674 0.734264 0.053834 0.369908
C218  C     C_R   0.534286 0.038868 0.264973 0.368805
C219  C     C_R   0.500896 0.264761 0.949143 0.369862
C220  C     C_R   0.995135 0.264055 0.553848 0.369808
C221  C     C_R   0.264527 0.992858 0.549714 0.369723
C222  C     C_R   0.044194 0.734277 0.527031 0.369266
C223  C     C_R   0.000048 0.555459 0.499416 1.006574
C224  C     C_R   0.022473 0.367758 0.491345 0.368802
C225  C     C_R   0.734882 0.004865 0.550388 0.370175
C226  C     C_R   0.998510 0.264644 0.449571 0.370040
C227  C     C_R   0.736567 0.998995 0.446217 0.369543
C228  C     C_R   0.971878 0.736066 0.452482 0.368349
C229  C     C_R   0.263921 0.993015 0.445401 0.369786
C230  C     C_R   0.266271 0.504682 0.946596 0.369995
C231  C     C_R   0.976691 0.449098 0.736645 0.369038
C232  C     C_R   0.734709 0.499430 0.050410 0.369996
C233  C     C_R   0.031061 0.464564 0.264674 0.370054
C234  C     C_R   0.264484 0.503000 0.050874 0.370156
C235  C     C_R   0.020502 0.475534 0.629069 0.378267
C236  C     C_R   0.962770 0.542633 0.264773 0.368893
C237  C     C_R   0.734327 0.491293 0.946379 0.369779
C238  C     C_R   0.041926 0.530314 0.733858 0.369423
C239  C     C_R   0.000670 0.506002 0.353887 -0.102584
C240  C     C_R   0.002655 0.645777 0.492496 -0.045072
C241  C     C_R   0.002557 0.492294 0.645900 -0.045461
C242  C     C_R   0.998719 0.353603 0.502416 -0.053160
C243  C     C_R   0.498157 0.645359 0.000787 -0.059237
C244  C     C_R   0.645299 0.497561 0.999112 -0.058109
C245  C     C_R   0.502761 0.354724 0.000237 -0.058247
C246  C     C_R   0.019879 0.629106 0.474808 0.379200
C247  C     C_R   0.354630 0.501748 0.999811 -0.059042
C248  C     C_R   0.646425 0.001032 0.497545 -0.051360
C249  C     C_R   0.498703 0.000231 0.354387 -0.049744
C250  C     C_R   0.353468 0.997513 0.496520 -0.050658
C251  C     C_R   0.496930 0.001016 0.646481 -0.098316
C252  C     C_R   0.500315 0.003869 0.853684 -0.098697
C253  C     C_R   0.501942 0.146603 0.002721 -0.051867
C254  C     C_R   0.499047 0.000877 0.145635 -0.049591
C255  C     C_R   0.498483 0.853604 0.002722 -0.052469
C256  C     C_R   0.998520 0.145402 0.500707 -0.059615
C257  C     C_R   0.475797 0.630127 0.988291 0.383452
C258  C     C_R   0.145242 0.995721 0.498862 -0.057672
C259  C     C_R   0.003773 0.854156 0.497440 -0.047730
C260  C     C_R   0.854694 0.999960 0.499859 -0.058539
C261  C     C_R   0.146413 0.501510 0.997455 -0.052195
C262  C     C_R   0.004787 0.497308 0.854384 -0.048959
C263  C     C_R   0.853448 0.498233 0.997214 -0.051516
C264  C     C_R   0.997332 0.501491 0.146498 -0.098278
C265  C     C_R   0.631158 0.520515 0.986598 0.381384
C266  C     C_R   0.524726 0.370130 0.987146 0.384246
C267  C     C_R   0.369016 0.478534 0.987759 0.382157
C268  C     C_R   0.521243 0.631036 0.012829 0.382288
C269  C     C_R   0.369811 0.524214 0.012263 0.383463
C270  C     C_R   0.479769 0.368808 0.013032 0.381111
C271  C     C_R   0.999944 0.499338 0.555484 0.993602
C272  C     C_R   0.629929 0.475472 0.012002 0.383722
C273  C     C_R   0.632123 0.977864 0.509568 0.368407
C274  C     C_R   0.519794 0.984991 0.368614 0.381385
C275  C     C_R   0.369202 0.974459 0.486341 0.372400
C276  C     C_R   0.475962 0.015540 0.630652 0.383414
C277  C     C_R   0.631259 0.023527 0.485621 0.374230
C278  C     C_R   0.510846 0.978576 0.631910 0.378587
C279  C     C_R   0.367153 0.021944 0.506534 0.367259
C280  C     C_R   0.477933 0.015227 0.369623 0.381005
C281  C     C_R   0.521766 0.988604 0.868103 0.380117
C282  C     C_R   0.444678 0.500021 0.000081 1.029883
C283  C     C_R   0.477192 0.132617 0.994166 0.366712
C284  C     C_R   0.484013 0.021621 0.130688 0.381048
C285  C     C_R   0.475712 0.869013 0.014074 0.373506
C286  C     C_R   0.486687 0.025412 0.869851 0.385003
C287  C     C_R   0.522134 0.867656 0.991298 0.369221
C288  C     C_R   0.514450 0.979898 0.131113 0.381049
C289  C     C_R   0.525611 0.131216 0.011573 0.372880
C290  C     C_R   0.976677 0.130269 0.487223 0.382391
C291  C     C_R   0.131573 0.019877 0.488180 0.380426
C292  C     C_R   0.022595 0.870159 0.480783 0.374487
C293  C     C_R   0.499969 0.555319 0.000026 1.030032
C294  C     C_R   0.869496 0.976127 0.489701 0.385683
C295  C     C_R   0.020969 0.130986 0.513780 0.381706
C296  C     C_R   0.869461 0.023578 0.510570 0.382145
C297  C     C_R   0.984075 0.867606 0.515360 0.379363
C298  C     C_R   0.129385 0.972975 0.509896 0.386591
C299  C     C_R   0.132243 0.478037 0.009052 0.369829
C300  C     C_R   0.025726 0.483907 0.870535 0.379569
C301  C     C_R   0.868879 0.474625 0.987907 0.372864
C302  C     C_R   0.976349 0.516035 0.130701 0.383494
C303  C     C_R   0.131104 0.524088 0.985866 0.372904
C304  C     C_R   0.555315 0.499940 0.999936 1.030074
C305  C     C_R   0.011001 0.478857 0.131982 0.378695
C306  C     C_R   0.867411 0.522823 0.006382 0.366912
C307  C     C_R   0.982654 0.512206 0.867710 0.382711
C308  C     C_R   0.020148 0.486374 0.397466 0.285658
C309  C     C_R   0.982463 0.603450 0.513824 0.291138
C310  C     C_R   0.981376 0.512493 0.603710 0.294846
C311  C     C_R   0.976544 0.398549 0.513889 0.295168
C312  C     C_R   0.985729 0.524473 0.400095 0.292978
C313  C     C_R   0.022818 0.397387 0.490006 0.305385
C314  C     C_R   0.019167 0.477297 0.599434 0.289276
C315  C     C_R   0.500062 0.444688 0.999954 1.029939
C316  C     C_R   0.018678 0.599488 0.476685 0.302777
C317  C     C_R   0.476794 0.600522 0.987252 0.300996
C318  C     C_R   0.601532 0.521089 0.986382 0.298467
C319  C     C_R   0.523484 0.399722 0.986369 0.300616
C320  C     C_R   0.398655 0.478176 0.987364 0.297172
C321  C     C_R   0.521610 0.601392 0.013098 0.297391
C322  C     C_R   0.399409 0.523227 0.013185 0.300614
C323  C     C_R   0.479060 0.398438 0.013376 0.298866
C324  C     C_R   0.600336 0.476590 0.012931 0.300844
C325  C     C_R   0.602484 0.977584 0.510802 0.301450
C326  C     C_R   0.500000 0.999985 0.555505 0.986525
C327  C     C_R   0.520325 0.984902 0.398319 0.290314
C328  C     C_R   0.398834 0.975711 0.486029 0.297755
C329  C     C_R   0.478087 0.016552 0.600925 0.280233
C330  C     C_R   0.601602 0.022806 0.485337 0.298208
C331  C     C_R   0.513627 0.979466 0.602328 0.286636
C332  C     C_R   0.396798 0.022993 0.507673 0.313943
C333  C     C_R   0.478156 0.014993 0.399321 0.289054
C334  C     C_R   0.520295 0.985562 0.897623 0.284201
C335  C     C_R   0.476353 0.102963 0.993140 0.318517
C336  C     C_R   0.484421 0.021519 0.100986 0.288297
Cl1   Cl    Cl    0.945629 0.571284 0.217501 -0.264858
Cl2   Cl    Cl    0.781792 0.500949 0.083551 -0.275298
Cl3   Cl    Cl    0.948728 0.416592 0.531737 -0.362141
Cl4   Cl    Cl    0.967236 0.550154 0.420470 -0.382733
Cl5   Cl    Cl    0.052004 0.413854 0.472849 -0.307488
Cl6   Cl    Cl    0.040594 0.454280 0.578754 -0.383146
Cl7   Cl    Cl    0.039251 0.578920 0.452791 -0.380155
Cl8   Cl    Cl    0.449153 0.581551 0.970407 -0.376188
Cl9   Cl    Cl    0.583825 0.549717 0.970047 -0.369611
Cl10  Cl    Cl    0.550859 0.418949 0.969177 -0.378006
Cl11  Cl    Cl    0.416667 0.449323 0.971419 -0.371547
Cl12  Cl    Cl    0.550325 0.583452 0.028979 -0.371246
Cl13  Cl    Cl    0.512985 0.219580 0.086821 -0.270902
Cl14  Cl    Cl    0.418306 0.551004 0.029966 -0.376800
Cl15  Cl    Cl    0.450391 0.416093 0.030065 -0.368923
Cl16  Cl    Cl    0.581168 0.449093 0.029932 -0.377716
Cl17  Cl    Cl    0.585761 0.949097 0.528748 -0.311749
Cl18  Cl    Cl    0.547893 0.966942 0.416108 -0.381979
Cl19  Cl    Cl    0.417289 0.947512 0.469249 -0.357476
Cl20  Cl    Cl    0.453334 0.036913 0.581681 -0.350846
Cl21  Cl    Cl    0.583650 0.049916 0.466719 -0.359614
Cl22  Cl    Cl    0.536571 0.954939 0.585476 -0.326737
Cl23  Cl    Cl    0.412586 0.053763 0.522387 -0.301055
Cl24  Cl    Cl    0.216921 0.503895 0.083880 -0.277236
Cl25  Cl    Cl    0.450976 0.032683 0.418369 -0.388036
Cl26  Cl    Cl    0.543325 0.961262 0.914306 -0.331844
Cl27  Cl    Cl    0.445033 0.086890 0.980067 -0.299730
Cl28  Cl    Cl    0.466687 0.048684 0.082319 -0.387580
Cl29  Cl    Cl    0.449160 0.916868 0.032626 -0.359207
Cl30  Cl    Cl    0.465958 0.048620 0.919243 -0.358105
Cl31  Cl    Cl    0.551692 0.913658 0.972576 -0.309622
Cl32  Cl    Cl    0.532882 0.952041 0.083245 -0.383203
Cl33  Cl    Cl    0.553836 0.083719 0.027401 -0.355608
Cl34  Cl    Cl    0.950688 0.081881 0.468012 -0.368904
Cl35  Cl    Cl    0.497237 0.782216 0.916439 -0.276447
Cl36  Cl    Cl    0.084787 0.051088 0.473728 -0.372401
Cl37  Cl    Cl    0.046407 0.919481 0.461366 -0.369122
Cl38  Cl    Cl    0.917800 0.946370 0.476414 -0.382900
Cl39  Cl    Cl    0.049045 0.083351 0.531370 -0.365671
Cl40  Cl    Cl    0.917518 0.052374 0.526325 -0.380268
Cl41  Cl    Cl    0.957014 0.913899 0.538055 -0.357305
Cl42  Cl    Cl    0.079917 0.946071 0.525053 -0.390321
Cl43  Cl    Cl    0.086043 0.448813 0.027971 -0.310985
Cl44  Cl    Cl    0.051689 0.469249 0.920362 -0.393205
Cl45  Cl    Cl    0.916527 0.446484 0.971684 -0.355170
Cl46  Cl    Cl    0.219681 0.505181 0.912639 -0.270488
Cl47  Cl    Cl    0.953360 0.536989 0.081690 -0.351736
Cl48  Cl    Cl    0.083409 0.550288 0.966989 -0.358637
Cl49  Cl    Cl    0.036483 0.454909 0.085558 -0.327704
Cl50  Cl    Cl    0.913093 0.554540 0.021519 -0.302464
Cl51  Cl    Cl    0.952491 0.530957 0.914146 -0.383807
Cl52  Cl    Cl    0.499143 0.217311 0.916143 -0.273956
Cl53  Cl    Cl    0.781355 0.488491 0.912650 -0.271580
Cl54  Cl    Cl    0.784148 0.997179 0.413260 -0.274392
Cl55  Cl    Cl    0.436991 0.941166 0.217856 -0.272213
Cl56  Cl    Cl    0.217542 0.991084 0.583597 -0.275806
Cl57  Cl    Cl    0.069334 0.780748 0.550468 -0.275004
Cl58  Cl    Cl    0.553758 0.938839 0.781852 -0.261297
Cl59  Cl    Cl    0.781436 0.006015 0.584352 -0.276099
Cl60  Cl    Cl    0.436936 0.062118 0.783195 -0.264149
Cl61  Cl    Cl    0.216816 0.990774 0.412333 -0.274580
Cl62  Cl    Cl    0.556816 0.063969 0.217984 -0.272536
Cl63  Cl    Cl    0.442433 0.067538 0.718111 -0.264465
Cl64  Cl    Cl    0.512315 0.284030 0.086299 -0.274378
Cl65  Cl    Cl    0.435933 0.942080 0.282086 -0.271939
Cl66  Cl    Cl    0.496431 0.717716 0.915960 -0.275473
Cl67  Cl    Cl    0.560678 0.945565 0.717035 -0.260946
Cl68  Cl    Cl    0.958402 0.422404 0.784575 -0.274422
Cl69  Cl    Cl    0.494602 0.716712 0.087201 -0.274317
Cl70  Cl    Cl    0.557933 0.062728 0.282188 -0.272568
Cl71  Cl    Cl    0.500637 0.281747 0.915475 -0.275529
Cl72  Cl    Cl    0.992008 0.281330 0.587322 -0.270417
Cl73  Cl    Cl    0.281916 0.993200 0.583124 -0.275939
Cl74  Cl    Cl    0.069804 0.716570 0.548104 -0.281240
Cl75  Cl    Cl    0.717020 0.005889 0.583725 -0.277648
Cl76  Cl    Cl    0.000560 0.282176 0.416243 -0.275656
Cl77  Cl    Cl    0.719748 0.999285 0.412518 -0.270772
Cl78  Cl    Cl    0.951134 0.719479 0.425695 -0.270419
Cl79  Cl    Cl    0.999943 0.217651 0.415791 -0.275215
Cl80  Cl    Cl    0.281220 0.990610 0.411835 -0.270619
Cl81  Cl    Cl    0.284157 0.504336 0.913267 -0.274534
Cl82  Cl    Cl    0.958532 0.420346 0.720246 -0.271504
Cl83  Cl    Cl    0.717375 0.499610 0.084040 -0.275826
Cl84  Cl    Cl    0.051793 0.438915 0.282535 -0.260549
Cl85  Cl    Cl    0.281391 0.504660 0.084495 -0.275566
Cl86  Cl    Cl    0.940373 0.567070 0.282685 -0.266276
Cl87  Cl    Cl    0.716926 0.489336 0.913027 -0.274546
Cl88  Cl    Cl    0.065371 0.553792 0.715762 -0.279606
Cl89  Cl    Cl    0.054418 0.481576 0.351161 -0.314759
Cl90  Cl    Cl    0.059018 0.444777 0.217661 -0.260694
Cl91  Cl    Cl    0.961994 0.654611 0.533430 -0.351227
Cl92  Cl    Cl    0.959987 0.530787 0.655169 -0.350135
Cl93  Cl    Cl    0.945540 0.350588 0.526340 -0.349775
Cl94  Cl    Cl    0.981675 0.561857 0.356489 -0.303451
Cl95  Cl    Cl    0.051953 0.347961 0.479164 -0.341722
Cl96  Cl    Cl    0.044804 0.452451 0.645521 -0.348195
Cl97  Cl    Cl    0.043019 0.645720 0.450348 -0.348732
Cl98  Cl    Cl    0.446248 0.648330 0.974469 -0.341955
Cl99  Cl    Cl    0.650796 0.548811 0.971712 -0.342727
Cl100 Cl    Cl    0.554084 0.352137 0.972252 -0.341882
Cl101 Cl    Cl    0.992767 0.216795 0.586905 -0.274070
Cl102 Cl    Cl    0.349690 0.449658 0.973648 -0.341550
Cl103 Cl    Cl    0.549969 0.650447 0.027039 -0.341506
Cl104 Cl    Cl    0.351568 0.553912 0.026119 -0.341567
Cl105 Cl    Cl    0.451631 0.349087 0.028164 -0.343427
Cl106 Cl    Cl    0.647974 0.446132 0.026495 -0.342294
Cl107 Cl    Cl    0.651764 0.949034 0.523075 -0.343839
Cl108 Cl    Cl    0.545545 0.966140 0.348881 -0.346930
Cl109 Cl    Cl    0.351386 0.943695 0.474255 -0.349575
Cl110 Cl    Cl    0.442646 0.024160 0.645999 -0.315570
Cl111 Cl    Cl    0.649773 0.052870 0.471265 -0.348578
Cl112 Cl    Cl    0.065649 0.555587 0.780101 -0.273746
Cl113 Cl    Cl    0.517407 0.945622 0.648712 -0.323060
Cl114 Cl    Cl    0.346676 0.051342 0.517695 -0.341574
Cl115 Cl    Cl    0.451709 0.034316 0.351157 -0.347946
Cl116 Cl    Cl    0.554610 0.980617 0.851422 -0.321281
Cl117 Cl    Cl    0.447097 0.152748 0.984734 -0.341456
Cl118 Cl    Cl    0.464700 0.047688 0.149525 -0.348195
Cl119 Cl    Cl    0.445713 0.850824 0.027554 -0.349312
Cl120 Cl    Cl    0.479937 0.059281 0.855085 -0.315992
Cl121 Cl    Cl    0.551315 0.847715 0.978643 -0.342660
Cl122 Cl    Cl    0.533329 0.954166 0.150485 -0.347613
Cl123 Cl    Cl    0.950437 0.783651 0.428141 -0.274143
Cl124 Cl    Cl    0.556785 0.149489 0.021676 -0.350351
Cl125 Cl    Cl    0.947828 0.148599 0.472145 -0.341495
Cl126 Cl    Cl    0.151789 0.048810 0.475469 -0.344587
Cl127 Cl    Cl    0.047306 0.852661 0.458570 -0.350920
Cl128 Cl    Cl    0.850678 0.945956 0.477808 -0.338811
Cl129 Cl    Cl    0.049152 0.150275 0.529200 -0.340682
Cl130 Cl    Cl    0.850671 0.053837 0.522269 -0.344244
Cl131 Cl    Cl    0.960655 0.846903 0.536116 -0.345062
Cl132 Cl    Cl    0.146802 0.942223 0.522038 -0.338382
Cl133 Cl    Cl    0.152035 0.449051 0.021995 -0.342344
Cl134 Cl    Cl    0.493758 0.781222 0.087688 -0.270601
Cl135 Cl    Cl    0.053425 0.465440 0.853249 -0.347695
Cl136 Cl    Cl    0.850667 0.443618 0.977086 -0.350032
Cl137 Cl    Cl    0.943365 0.525374 0.146344 -0.317153
Cl138 Cl    Cl    0.149393 0.553892 0.972169 -0.349284
Cl139 Cl    Cl    0.017056 0.445823 0.148814 -0.321627
Cl140 Cl    Cl    0.847294 0.552868 0.016430 -0.342396
Cl141 Cl    Cl    0.956714 0.529078 0.846867 -0.347403
Cl142 Cl    Cl    0.042668 0.461310 0.413721 -0.329226
Cl143 Cl    Cl    0.958997 0.588049 0.538749 -0.324730
Cl144 Cl    Cl    0.956725 0.536082 0.588579 -0.320337
N1    N     N_R   0.002870 0.507682 0.176607 -0.330625
N2    N     N_R   0.498641 0.001120 0.176044 -0.330967
N3    N     N_R   0.175601 0.994332 0.498570 -0.331471
N4    N     N_R   0.494441 0.999176 0.823384 -0.330654
N5    N     N_R   0.502268 0.006993 0.676659 -0.330592
N6    N     N_R   0.503779 0.324374 0.000492 -0.331642
N7    N     N_R   0.498447 0.000622 0.323983 -0.331018
N8    N     N_R   0.497483 0.675744 0.001105 -0.331665
N9    N     N_R   0.997884 0.323218 0.502251 -0.330923
N10   N     N_R   0.323100 0.996039 0.496830 -0.330520
N11   N     N_R   0.004682 0.676105 0.491282 -0.329939
N12   N     N_R   0.004536 0.823789 0.495810 -0.330237
N13   N     N_R   0.676817 0.001761 0.497665 -0.330683
N14   N     N_R   0.324247 0.502489 0.999453 -0.331587
N15   N     N_R   0.004846 0.491321 0.676228 -0.329911
N16   N     N_R   0.675659 0.496752 0.998873 -0.331571
N17   N     N_R   0.994781 0.501774 0.323510 -0.330282
N18   N     N_R   0.005883 0.495423 0.824008 -0.330681
N19   N     N_R   0.997976 0.175785 0.500980 -0.331692
N20   N     N_R   0.497499 0.823218 0.002550 -0.330905
N21   N     N_R   0.823084 0.497200 0.997472 -0.330657
N22   N     N_R   0.503075 0.176960 0.002330 -0.330732
N23   N     N_R   0.176799 0.502510 0.997689 -0.330878
N24   N     N_R   0.824307 0.000171 0.499407 -0.331575
O1    O     O_R   0.976310 0.458050 0.500000 -0.585438
O2    O     O_R   0.500000 0.541950 0.023690 -0.581110
O3    O     O_R   0.541950 0.500000 0.023690 -0.580297
O4    O     O_R   0.500000 0.458050 0.023690 -0.580099
O5    O     O_R   0.541950 0.500000 0.976310 -0.580681
O6    O     O_R   0.500000 0.541950 0.976310 -0.580654
O7    O     O_R   0.458050 0.500000 0.976310 -0.580365
O8    O     O_R   0.500000 0.458050 0.976310 -0.580967
O9    O     O_R   0.500000 0.976310 0.541950 -0.575109
O10   O     O_R   0.541950 0.976310 0.500000 -0.557866
O11   O     O_R   0.500000 0.976310 0.458050 -0.576428
O12   O     O_R   0.976310 0.500000 0.458050 -0.591279
O13   O     O_R   0.458050 0.976310 0.500000 -0.583686
O14   O     O_R   0.500000 0.023690 0.458050 -0.575189
O15   O     O_R   0.541950 0.023690 0.500000 -0.585288
O16   O     O_R   0.500000 0.023690 0.541950 -0.579582
O17   O     O_R   0.458050 0.023690 0.500000 -0.554265
O18   O     O_R   0.476310 0.958050 0.000000 -0.585225
O19   O     O_R   0.476310 1.000000 0.958050 -0.579468
O20   O     O_R   0.476310 0.041950 0.000000 -0.554165
O21   O     O_R   0.476310 1.000000 0.041950 -0.575216
O22   O     O_R   0.523690 0.041950 0.000000 -0.582375
O23   O     O_R   0.976310 0.541950 0.500000 -0.558989
O24   O     O_R   0.523690 1.000000 0.958050 -0.576789
O25   O     O_R   0.523690 0.958050 0.000000 -0.557202
O26   O     O_R   0.523690 1.000000 0.041950 -0.576457
O27   O     O_R   0.958050 1.000000 0.523690 -0.583243
O28   O     O_R   0.000000 0.041950 0.523690 -0.580904
O29   O     O_R   0.041950 1.000000 0.523690 -0.581191
O30   O     O_R   0.000000 0.958050 0.523690 -0.575868
O31   O     O_R   0.041950 1.000000 0.476310 -0.581278
O32   O     O_R   0.000000 0.041950 0.476310 -0.580563
O33   O     O_R   0.958050 1.000000 0.476310 -0.580986
O34   O     O_R   0.976310 0.500000 0.541950 -0.563144
O35   O     O_R   1.000000 0.958050 0.476310 -0.579219
O36   O     O_R   1.000000 0.476310 0.041950 -0.574840
O37   O     O_R   0.041950 0.476310 0.000000 -0.555622
O38   O     O_R   0.000000 0.476310 0.958050 -0.578211
O39   O     O_R   0.958050 0.476310 0.000000 -0.582053
O40   O     O_R   0.000000 0.523690 0.958050 -0.574950
O41   O     O_R   0.041950 0.523690 0.000000 -0.586352
O42   O     O_R   1.000000 0.523690 0.041950 -0.579752
O43   O     O_R   0.958050 0.523690 0.000000 -0.556339
O44   O     O_2   0.047939 0.486681 0.177945 -0.401338
O45   O     O_R   0.023690 0.541950 0.500000 -0.589843
O46   O     O_2   0.970428 0.826306 0.460486 -0.410479
O47   O     O_2   0.035132 0.535162 0.824129 -0.410778
O48   O     O_2   0.985993 0.174037 0.549016 -0.410223
O49   O     O_2   0.984484 0.553909 0.176822 -0.401086
O50   O     O_2   0.010037 0.175057 0.452918 -0.410929
O51   O     O_2   0.975854 0.456390 0.827093 -0.413509
O52   O     O_2   0.037841 0.824455 0.531989 -0.408056
O53   O     O_2   0.488883 0.824994 0.953922 -0.417857
O54   O     O_2   0.824024 0.502525 0.948312 -0.406266
O55   O     O_2   0.507876 0.174586 0.953142 -0.414372
O56   O     O_R   0.023690 0.500000 0.458050 -0.560702
O57   O     O_2   0.176541 0.493376 0.949032 -0.403997
O58   O     O_2   0.505980 0.824002 0.051250 -0.405217
O59   O     O_2   0.174540 0.511776 0.046270 -0.418584
O60   O     O_2   0.498201 0.176601 0.051579 -0.406137
O61   O     O_2   0.824836 0.491877 0.046579 -0.415318
O62   O     O_2   0.824542 0.993338 0.548377 -0.411289
O63   O     O_2   0.535671 0.033662 0.174478 -0.412366
O64   O     O_2   0.173681 0.985721 0.449915 -0.410153
O65   O     O_2   0.449679 0.020846 0.822892 -0.400778
O66   O     O_2   0.826655 0.006701 0.450439 -0.411315
O67   O     O_R   0.023690 0.458050 0.500000 -0.555366
O68   O     O_2   0.512231 0.952723 0.821466 -0.402449
O69   O     O_2   0.174825 0.002819 0.547323 -0.411969
O70   O     O_2   0.461829 0.968367 0.174226 -0.411484
O71   O     O_2   0.547874 0.987170 0.677631 -0.402121
O72   O     O_2   0.491532 0.324750 0.952636 -0.411120
O73   O     O_2   0.530995 0.037620 0.325837 -0.411934
O74   O     O_2   0.487302 0.673897 0.049532 -0.410246
O75   O     O_2   0.482669 0.052714 0.677649 -0.400386
O76   O     O_2   0.507734 0.675072 0.952639 -0.411080
O77   O     O_2   0.466124 0.963398 0.325512 -0.411455
O78   O     O_R   0.023690 0.500000 0.541950 -0.585242
O79   O     O_2   0.516057 0.326698 0.048271 -0.410232
O80   O     O_2   0.990385 0.324881 0.453416 -0.417447
O81   O     O_2   0.323776 0.003662 0.447987 -0.405360
O82   O     O_2   0.970026 0.675338 0.456401 -0.404291
O83   O     O_2   0.676270 0.991000 0.449364 -0.405307
O84   O     O_2   0.005236 0.324068 0.551148 -0.406363
O85   O     O_2   0.674740 0.012794 0.545868 -0.418513
O86   O     O_2   0.038863 0.673644 0.526548 -0.420196
O87   O     O_2   0.325145 0.988587 0.545625 -0.415859
O88   O     O_2   0.324398 0.492849 0.047965 -0.410760
O89   O     O_R   0.458050 0.500000 0.023690 -0.581538
O90   O     O_2   0.036109 0.529387 0.673227 -0.419698
O91   O     O_2   0.673902 0.484799 0.950899 -0.410004
O92   O     O_2   0.951068 0.525482 0.322679 -0.403158
O93   O     O_2   0.326574 0.512097 0.950990 -0.410484
O94   O     O_2   0.010679 0.454616 0.321853 -0.406333
O95   O     O_2   0.674761 0.508736 0.046897 -0.411315
O96   O     O_2   0.972960 0.453668 0.675998 -0.408548
Zn1   Zn    Zn3+2 0.968380 0.500000 0.500000 1.222563
Zn2   Zn    Zn3+2 0.000000 1.000000 0.468380 1.214603
Zn3   Zn    Zn3+2 1.000000 0.468380 0.000000 1.231300
Zn4   Zn    Zn3+2 1.000000 0.531620 0.000000 1.224850
Zn5   Zn    Zn3+2 0.031620 0.500000 0.500000 1.229846
Zn6   Zn    Zn3+2 0.500000 0.500000 0.031620 1.213770
Zn7   Zn    Zn3+2 0.500000 0.500000 0.968380 1.213938
Zn8   Zn    Zn3+2 0.500000 0.968380 0.500000 1.230336
Zn9   Zn    Zn3+2 0.500000 0.031620 0.500000 1.226121
Zn10  Zn    Zn3+2 0.468380 0.000000 0.000000 1.226339
Zn11  Zn    Zn3+2 0.531620 0.000000 0.000000 1.230529
Zn12  Zn    Zn3+2 0.000000 0.000000 0.531620 1.214009

loop_
_geom_bond_atom_site_label_1
_geom_bond_atom_site_label_2
_ccdc_geom_bond_type
C258  C291  A    
C321  Cl12  S    
C73   O65   S    
C69   C116  A    
C223  O23   A    
C205  Cl56  S    
C198  Cl35  S    
C11   C294  A    
C12   Cl39  S    
C74   N24   A    
C48   C135  S    
C2    O15   A    
C283  Cl117 S    
C17   C48   A    
O37   Zn3   S    
C202  C237  A    
C203  C227  A    
C40   C335  A    
C120  C166  A    
C21   Cl48  S    
C261  C303  A    
C324  Cl16  S    
C294  Cl128 S    
C87   O80   S    
C34   C330  A    
C32   C323  A    
C59   O51   S    
C263  C301  A    
C142  C177  A    
C71   O63   S    
C195  Cl2   S    
C3    C285  A    
C143  C178  A    
C161  C182  A    
C35   C42   S    
C82   N8    A    
C260  N24   S    
C79   O27   A    
C112  O56   A    
C116  C195  A    
C96   N14   A    
C96   C154  A    
C196  Cl13  S    
C111  C161  A    
C169  C174  A    
C56   O49   S    
C80   O72   S    
C125  C169  A    
C16   C44   A    
O20   Zn10  S    
C322  Cl14  S    
C21   C48   A    
C187  C231  A    
C2    C34   S    
C74   C123  A    
C13   O11   A    
C290  Cl125 S    
C243  N8    S    
C267  Cl102 S    
C278  C331  A    
C3    Cl29  S    
C223  O45   A    
C209  Cl61  S    
C156  C183  A    
C108  C188  A    
C258  N3    S    
C150  C181  A    
C227  Cl77  S    
C58   N19   A    
C327  Cl18  S    
C98   C156  A    
C30   C321  A    
O30   Zn12  S    
C65   O58   S    
O14   Zn9   S    
C68   O26   A    
C106  C186  A    
C35   O25   A    
O41   Zn4   S    
C9    C291  A    
C246  C316  A    
O6    Zn7   S    
C231  Cl82  S    
C10   C292  A    
C263  N21   S    
C100  C150  A    
C277  C330  A    
C102  O94   S    
C20   C302  A    
C257  C317  A    
C21   C303  A    
C38   C326  S    
C199  Cl46  S    
C179  C240  A    
C52   O44   S    
C259  N12   S    
C190  Cl92  S    
C192  C238  A    
C60   N12   A    
C86   O79   S    
C44   C101  S    
C88   N10   A    
C154  C234  A    
C41   C336  A    
C1    C29   S    
O31   Zn2   S    
C102  C153  A    
C160  C178  A    
C55   N19   A    
C103  C152  A    
C158  C238  A    
C135  O37   A    
C55   O48   S    
C75   N4    A    
C305  Cl139 S    
C95   O87   S    
C201  C311  A    
C212  Cl94  S    
C98   N16   A    
C119  C163  A    
C228  Cl78  S    
C190  C241  A    
C241  N15   S    
O13   Zn8   S    
C77   C125  A    
C151  C182  A    
C90   O32   A    
O12   Zn1   S    
O29   Zn12  S    
C256  N19   S    
C255  C285  A    
C131  C169  A    
O17   Zn9   S    
C189  Cl90  S    
C134  C174  A    
C315  O8    A    
C244  C272  A    
C224  C313  A    
C17   Cl43  S    
O4    Zn6   S    
C46   O19   A    
O32   Zn2   S    
C24   O13   A    
C256  C295  A    
C207  Cl59  S    
C264  N1    S    
C150  C230  A    
O7    Zn7   S    
C156  C237  A    
C13   O14   A    
C289  Cl124 S    
C27   C223  S    
C75   O68   S    
C64   C120  A    
C123  C203  A    
C210  Cl62  S    
C266  Cl100 S    
C61   N20   A    
C333  Cl25  S    
C251  C278  A    
C248  C273  A    
C82   C138  A    
C252  C281  A    
C139  C218  A    
C273  Cl107 S    
C27   C316  A    
C319  Cl10  S    
C306  Cl140 S    
C58   O50   S    
C49   C146  S    
C66   N23   A    
C115  C163  A    
C31   C324  A    
O42   Zn4   S    
C287  Cl121 S    
C212  C239  A    
C201  C242  A    
C297  Cl131 S    
C15   C297  A    
C95   C142  A    
C23   C306  A    
C76   O69   S    
C132  C172  A    
C133  C173  A    
C264  C305  A    
C78   O71   S    
C253  C283  A    
C30   C293  S    
C254  C284  A    
C220  Cl72  S    
C25   C307  A    
C125  C204  A    
C26   C308  A    
C88   O81   S    
C300  Cl135 S    
C88   C149  A    
C148  C228  A    
C163  C175  A    
C187  Cl68  S    
C91   C147  A    
C89   O82   S    
C110  C162  A    
O22   Zn11  S    
C102  N17   A    
O40   Zn4   S    
C205  C221  A    
C104  O96   S    
C206  Cl58  S    
C2    O10   A    
C37   C332  A    
C29   C313  A    
C200  Cl52  S    
C282  O89   A    
C188  C226  A    
C22   Cl49  S    
C83   O75   S    
C71   N2    A    
C82   O74   S    
C97   O90   S    
C126  C205  A    
C127  C171  A    
C25   Cl51  S    
C16   C298  A    
C53   O46   S    
C120  C199  A    
C122  C164  A    
C295  Cl129 S    
C244  C265  A    
C274  Cl108 S    
C271  O78   A    
C4    Cl30  S    
C235  C241  A    
C46   O24   A    
C282  O7    A    
C6    Cl32  S    
C242  N9    S    
C91   O83   S    
C144  C180  A    
C69   O61   S    
C285  Cl119 S    
C194  Cl134 S    
C331  Cl22  S    
C272  C324  A    
C189  C233  A    
C94   O86   S    
C85   C134  A    
C222  Cl74  S    
C247  C267  A    
C12   C295  A    
C261  C299  A    
C233  Cl84  S    
C302  Cl137 S    
C262  C300  A    
C65   C115  A    
C275  C328  A    
C132  C211  A    
C33   C320  A    
C186  Cl57  S    
C250  N10   S    
C316  Cl7   S    
C194  C217  A    
C146  O40   A    
C335  Cl27  S    
C265  C318  A    
C107  C161  A    
C52   N1    A    
C237  Cl87  S    
C251  C276  A    
C32   C319  A    
C267  C320  A    
C37   C328  A    
C129  C208  A    
C147  C227  A    
C59   C107  A    
C255  N20   S    
C18   Cl44  S    
C292  Cl127 S    
C104  N15   A    
C63   O55   S    
C126  C170  A    
C317  Cl8   S    
C103  O95   S    
O23   Zn1   S    
C240  N11   S    
C153  C184  A    
C307  Cl141 S    
C269  Cl104 S    
C10   C45   A    
C179  Cl91  S    
C24   C37   S    
C152  C183  A    
C92   C141  A    
C235  C314  A    
C114  C160  A    
C93   C144  A    
C84   O76   S    
C330  Cl21  S    
C101  O29   A    
C115  C194  A    
C260  C294  A    
O15   Zn9   S    
O39   Zn3   S    
C19   C50   A    
C59   N18   A    
C262  C307  A    
C67   N22   A    
C144  C225  A    
C311  Cl3   S    
C299  Cl133 S    
C78   C137  A    
C62   C122  A    
C61   O53   S    
C16   Cl42  S    
C33   C282  S    
C259  C297  A    
C148  C178  A    
O38   Zn3   S    
C179  C309  A    
C191  C220  A    
O24   Zn11  S    
C191  Cl101 S    
C215  Cl66  S    
C121  C165  A    
C36   C327  A    
C8    Cl34  S    
C54   O47   S    
C36   C333  A    
C149  C229  A    
C97   C158  A    
C245  C270  A    
C77   N2    A    
C164  C183  A    
C272  Cl106 S    
O89   Zn6   S    
C89   N11   A    
C238  Cl88  S    
C259  C292  A    
C279  Cl114 S    
C313  Cl5   S    
C195  C232  A    
C167  C180  A    
O36   Zn3   S    
C75   C127  A    
C38   C331  A    
C284  C336  A    
C71   C131  A    
C202  Cl53  S    
C245  N6    S    
C18   C49   A    
C293  O6    A    
C315  O4    A    
C28   C310  A    
C249  C274  A    
C271  O34   A    
C5    Cl31  S    
C320  Cl11  S    
C304  O5    A    
C19   Cl45  S    
C152  C232  A    
C109  C159  A    
C99   N17   A    
C286  Cl120 S    
C5    C42   A    
C17   C299  A    
C3    C42   A    
C308  Cl142 S    
C146  O38   A    
C18   C300  A    
C76   C126  A    
C11   C47   A    
C266  C319  A    
C8    C43   A    
C279  C332  A    
C143  C222  A    
C33   C322  A    
C60   C106  A    
C326  O16   A    
C34   C325  A    
C253  N22   S    
C254  N2    S    
C113  O35   A    
O19   Zn10  S    
C213  Cl64  S    
C69   N21   A    
C252  N4    S    
C261  N23   S    
C20   C51   A    
C26   C312  A    
C100  O93   S    
C268  Cl103 S    
C198  C215  A    
C70   C128  A    
C119  C198  A    
C154  C181  A    
C255  C287  A    
C110  C191  A    
C72   O64   S    
O35   Zn2   S    
C98   O91   S    
C63   N22   A    
C137  C172  A    
C15   Cl41  S    
C9    Cl36  S    
C101  O31   A    
C326  O9    A    
C260  C296  A    
C138  C217  A    
C117  C165  A    
C140  C173  A    
C99   C155  A    
C141  C176  A    
C270  C323  A    
C27   C309  A    
C28   C314  A    
C159  C184  A    
C168  C239  A    
C142  C221  A    
C251  N5    S    
C136  C215  A    
O43   Zn4   S    
C7    Cl33  S    
C332  Cl23  S    
C186  C222  A    
C111  C192  A    
C112  O12   A    
C240  C246  A    
C51   C124  S    
C64   N23   A    
C77   O70   S    
C217  Cl69  S    
C116  C164  A    
C41   C68   S    
C269  C322  A    
C84   N8    A    
C73   C129  A    
C43   C90   S    
C170  C177  A    
C14   C296  A    
C214  Cl65  S    
C212  C312  A    
O78   Zn5   S    
C243  C268  A    
O56   Zn5   S    
C270  Cl105 S    
C23   C50   A    
C280  Cl115 S    
C80   C140  A    
C248  N13   S    
C4    C286  A    
C252  C286  A    
C5    C287  A    
C38   C329  A    
C6    C288  A    
C121  C200  A    
C190  C310  A    
C244  N16   S    
C86   C133  A    
C85   N7    A    
C145  C176  A    
C221  Cl73  S    
C153  C233  A    
C157  O39   A    
C128  C167  A    
C250  C275  A    
C78   N5    A    
C219  Cl71  S    
O25   Zn11  S    
C14   Cl40  S    
C230  Cl81  S    
C54   N18   A    
C224  Cl95  S    
C124  O42   A    
C137  C216  A    
C201  Cl93  S    
C1    O1    A    
C81   O73   S    
C26   C112  S    
C83   N5    A    
C53   C114  A    
C274  C327  A    
C81   C139  A    
C84   C136  A    
C296  Cl130 S    
C40   C57   S    
C87   C145  A    
C304  O3    A    
O1    Zn1   S    
C246  Cl97  S    
C199  C230  A    
C263  C306  A    
C93   N13   A    
C103  N16   A    
O27   Zn12  S    
C188  Cl79  S    
C100  N14   A    
C249  N7    S    
C309  Cl143 S    
C145  C226  A    
C336  Cl28  S    
C283  C335  A    
C134  C214  A    
C334  Cl26  S    
C93   O85   S    
C122  C202  A    
O10   Zn8   S    
C203  Cl54  S    
C83   C132  A    
C141  C220  A    
C7    C289  A    
C31   C318  A    
C224  C242  A    
C105  C159  A    
C52   C109  A    
C130  C170  A    
C208  C211  A    
C106  C160  A    
C85   O77   S    
C92   O84   S    
C70   O62   S    
C54   C111  A    
C58   C108  A    
C67   O60   S    
C288  Cl122 S    
C65   N20   A    
C25   C49   A    
C56   C105  A    
C62   O54   S    
C45   C113  S    
C280  C333  A    
C185  C236  A    
O3    Zn6   S    
C197  Cl24  S    
C200  C219  A    
C262  N18   S    
C62   N21   A    
C29   C311  A    
C23   Cl50  S    
C328  Cl19  S    
C89   C148  A    
C329  Cl20  S    
C171  C172  A    
C318  Cl9   S    
C273  C325  A    
C114  C193  A    
C204  C214  A    
C61   C119  A    
C66   O59   S    
C245  C266  A    
C47   C79   S    
C91   N13   A    
C256  C290  A    
C239  N17   S    
C8    C290  A    
O34   Zn1   S    
C64   O57   S    
C135  O41   A    
C53   N12   A    
O33   Zn2   S    
C22   C305  A    
C94   C143  A    
C155  C236  A    
C104  C151  A    
C168  Cl89  S    
C192  Cl112 S    
C127  C206  A    
C12   C43   A    
C31   C304  S    
C1    O67   A    
C276  Cl110 S    
C247  C269  A    
C226  Cl76  S    
C277  Cl111 S    
C162  C176  A    
C165  C173  A    
C293  O2    A    
C234  Cl85  S    
C107  C187  A    
O8    Zn7   S    
C243  C257  A    
C105  C185  A    
O21   Zn10  S    
O18   Zn10  S    
C140  C219  A    
C208  Cl60  S    
C147  C180  A    
C207  C225  A    
C80   N6    A    
C74   O66   S    
C6    C41   A    
O28   Zn12  S    
C276  C329  A    
C7    C40   A    
C19   C301  A    
C278  Cl113 S    
O11   Zn8   S    
C128  C207  A    
C79   O33   A    
C193  Cl123 S    
C123  C167  A    
C136  C175  A    
C68   O21   A    
C10   Cl37  S    
C323  Cl15  S    
C166  C181  A    
C57   O22   A    
C131  C210  A    
C314  Cl6   S    
C63   C121  A    
C284  Cl118 S    
C312  Cl4   S    
C185  Cl1   S    
O5    Zn7   S    
C35   O18   A    
C303  Cl138 S    
C151  C231  A    
C281  C334  A    
C13   C36   S    
C81   N7    A    
C30   C317  A    
C109  C189  A    
C236  Cl86  S    
C155  C184  A    
C90   O28   A    
C32   C315  S    
C87   N9    A    
C11   Cl38  S    
C108  C162  A    
C113  O30   A    
C118  C166  A    
C70   N24   A    
O16   Zn9   S    
C24   O17   A    
C73   N4    A    
C67   C117  A    
C257  Cl98  S    
C157  O43   A    
C291  Cl126 S    
C310  Cl144 S    
C4    C39   A    
C149  C177  A    
C247  N14   S    
O45   Zn5   S    
C209  C229  A    
C211  Cl63  S    
C158  C182  A    
C248  C277  A    
C281  Cl116 S    
C275  Cl109 S    
C39   C46   S    
C56   N1    A    
C216  Cl67  S    
C99   O92   S    
C225  Cl75  S    
C55   C110  A    
C66   C118  A    
C94   N11   A    
O26   Zn11  S    
C15   C45   A    
C60   O52   S    
C92   N9    A    
C138  C175  A    
C298  Cl132 S    
C206  C216  A    
C301  Cl136 S    
C9    C44   A    
C168  C308  A    
C129  C171  A    
C253  C289  A    
C193  C228  A    
C130  C209  A    
C72   N3    A    
C265  Cl99  S    
C197  C234  A    
C72   C130  A    
C14   C47   A    
C95   N10   A    
C254  C288  A    
O67   Zn5   S    
C268  C321  A    
C210  C218  A    
C249  C280  A    
C218  Cl70  S    
C133  C213  A    
C250  C279  A    
C232  Cl83  S    
C117  C196  A    
C76   N3    A    
C196  C213  A    
C258  C298  A    
O9    Zn8   S    
C204  Cl55  S    
C229  Cl80  S    
C124  O36   A    
C97   N15   A    
C264  C302  A    
C96   O88   S    
C235  Cl96  S    
C86   N6    A    
C39   C334  A    
C28   C271  S    
C20   Cl47  S    
O2    Zn6   S    
C139  C174  A    
C50   C157  S    
C118  C197  A    
C22   C51   A    
C57   O20   A    
C325  Cl17  S    
