data_mof_unit_49684.cif
_audit_creation_date              2012-12-10T17:12:42-0500
_audit_creation_method            fapswitch 2.2
_symmetry_space_group_name_H-M    P1
_symmetry_Int_Tables_number       1
_space_group_crystal_system       triclinic
_cell_length_a                    23.408448
_cell_length_b                    10.729686
_cell_length_c                    10.131183
_cell_angle_alpha                 88.761428
_cell_angle_beta                  89.870174
_cell_angle_gamma                 91.355927
_cell_volume                      2543.28488736

loop_
_atom_site_label
_atom_site_type_symbol
_atom_type_description
_atom_site_fract_x
_atom_site_fract_y
_atom_site_fract_z
_atom_type_partial_charge
C1    C     C_R   0.503599 0.263231 0.500676 0.901656
C2    C     C_R   0.970545 0.270880 0.507403 -0.264048
C3    C     C_R   0.030038 0.272922 0.501275 0.493608
C4    C     C_R   0.060593 0.388402 0.502886 -0.109397
C5    C     C_R   0.030406 0.501047 0.499684 -0.134996
C6    C     C_R   0.060111 0.617456 0.497125 -0.108452
C7    C     C_R   0.028995 0.729012 0.498401 0.494189
C8    C     C_R   0.969525 0.723590 0.491062 -0.263855
C9    C     C_R   0.120401 0.395354 0.508050 0.507619
C10   C     C_R   0.120003 0.618021 0.492298 0.506325
C11   C     C_R   0.239560 0.562687 0.602929 -0.106907
C12   C     C_R   0.389695 0.501204 0.499964 0.841609
C13   C     C_R   0.298824 0.560674 0.603209 -0.228879
C14   C     C_R   0.327784 0.506071 0.498821 -0.032645
C15   C     C_R   0.297259 0.457084 0.392194 -0.227659
C16   C     C_R   0.238095 0.460189 0.391448 -0.107483
C17   C     C_R   0.209204 0.511587 0.497495 0.317117
C18   C     C_R   0.761340 0.439758 0.391812 -0.186130
C19   C     C_R   0.701850 0.436339 0.392285 0.478473
C20   C     C_R   0.672444 0.488019 0.499790 -0.171714
C21   C     C_R   0.703098 0.531510 0.609039 -0.233467
C22   C     C_R   0.762247 0.530009 0.609271 -0.100980
C23   C     C_R   0.497464 0.736396 0.498611 0.865071
C24   C     C_R   0.791338 0.485975 0.500018 0.225979
C25   C     C_2   0.521385 0.934548 0.413380 -0.337427
C26   C     C_2   0.486847 0.866078 0.491696 0.340951
C27   C     C_2   0.509185 0.065015 0.395666 0.498500
C28   C     C_2   0.521319 0.136217 0.499802 -0.070482
C29   C     C_2   0.536758 0.563196 0.924425 0.357366
C30   C     C_2   0.543096 0.537292 0.071378 0.000589
C31   C     C_R   0.610375 0.497361 0.499795 0.892913
C32   C     C_R   0.880228 0.602778 0.491989 0.542380
C33   C     C_R   0.880746 0.380213 0.504907 0.539246
C34   C     C_R   0.940424 0.381811 0.504178 -0.066568
C35   C     C_R   0.970261 0.497243 0.499068 -0.027700
C36   C     C_R   0.939907 0.608848 0.493426 -0.072419
H1    H     H_    0.948058 0.181464 0.511138 0.194226
H2    H     H_    0.681456 0.569264 0.693214 0.224339
H3    H     H_    0.785654 0.565013 0.693344 0.162285
H4    H     H_    0.560783 0.898630 0.373491 0.123384
H5    H     H_    0.584557 0.554665 0.115750 0.132784
H6    H     H_    0.946652 0.810189 0.487097 0.194343
H7    H     H_    0.217151 0.602465 0.685007 0.133195
H8    H     H_    0.321945 0.600547 0.685188 0.154744
H9    H     H_    0.319048 0.414564 0.310808 0.164399
H10   H     H_    0.214534 0.421090 0.309655 0.133633
H11   H     H_    0.784353 0.405494 0.307632 0.164763
N1    N     N_R   0.852160 0.489663 0.498460 -0.342875
N2    N     N_R   0.148336 0.508411 0.499681 -0.361254
N3    N     N_2   0.500610 0.501330 0.852150 0.058979
N4    N     N_2   0.500630 0.501360 0.147810 0.103708
O1    O     O_R   0.499990 0.319060 0.613040 -0.616612
O2    O     O_2   0.851398 0.270484 0.512726 -0.576702
O3    O     O_2   0.150815 0.290699 0.522934 -0.532835
O4    O     O_2   0.150051 0.726402 0.478245 -0.537159
O5    O     O_R   0.500010 0.319100 0.386900 -0.573674
O6    O     O_R   0.416150 0.499940 0.613100 -0.656486
O7    O     O_R   0.416160 0.499980 0.386960 -0.594942
O8    O     O_R   0.499990 0.680900 0.613100 -0.600487
O9    O     O_R   0.500010 0.680940 0.386960 -0.663291
O10   O     O_R   0.583840 0.500020 0.613040 -0.574198
O11   O     O_R   0.583850 0.500060 0.386900 -0.612983
O12   O     O_2   0.850339 0.708756 0.484039 -0.554149
Zn1   Zn    Zn3+2 0.499990 0.499970 0.650990 1.006575
Zn2   Zn    Zn3+2 0.500010 0.500030 0.349010 1.009608
O13   O     O_3   0.673756 0.391296 0.282369 -0.629742
C37   C     C_3   0.648622 0.272167 0.310823 0.126847
H12   H     H_    0.610205 0.262986 0.247262 0.153430
H13   H     H_    0.632352 0.260597 0.413998 0.131945
C38   C     C_3   0.689269 0.167299 0.275728 -0.425036
H14   H     H_    0.664453 0.090433 0.229158 0.195687
H15   H     H_    0.721784 0.202075 0.202846 0.256229
C39   C     C_3   0.719103 0.113419 0.397348 -0.758347
H16   H     H_    0.743346 0.187193 0.449640 0.291416
H17   H     H_    0.749316 0.041150 0.366779 0.268741
H18   H     H_    0.687159 0.069487 0.466131 0.276019
O14   O     O_3   0.432519 0.905823 0.522109 -0.649140
C40   C     C_3   0.428882 0.932465 0.657519 0.087309
H19   H     H_    0.445723 0.028643 0.672820 0.182055
H20   H     H_    0.453073 0.866687 0.721869 0.159988
C41   C     C_3   0.366137 0.925221 0.699505 -0.312818
H21   H     H_    0.339142 0.968719 0.621825 0.260142
H22   H     H_    0.352399 0.825850 0.712258 0.205373
C42   C     C_3   0.357002 0.992982 0.828100 -1.012368
H23   H     H_    0.387493 0.960472 0.904262 0.261921
H24   H     H_    0.312599 0.975872 0.863979 0.285553
H25   H     H_    0.363958 0.094443 0.810760 0.265822
O15   O     O_3   0.473322 0.109157 0.295370 -0.609379
C43   C     C_3   0.472954 0.035598 0.181186 0.119551
H26   H     H_    0.437065 0.067362 0.118293 0.163653
H27   H     H_    0.463715 0.935428 0.204327 0.137763
C44   C     C_3   0.528473 0.054094 0.101908 -0.423924
H28   H     H_    0.535829 0.154980 0.078820 0.260479
H29   H     H_    0.565169 0.020252 0.160628 0.205797
C45   C     C_3   0.525599 0.982782 0.973632 -0.824237
H30   H     H_    0.514361 0.883055 0.993805 0.247612
H31   H     H_    0.567908 0.988673 0.924062 0.324651
H32   H     H_    0.493158 0.023770 0.906926 0.259144
Br1   Br    Br    0.570303 0.082524 0.642764 -0.587444
Br2   Br    Br    0.585807 0.689385 0.846615 -0.551477
O16   O     O_3   0.483215 0.392586 0.913656 -0.549672
C46   C     C_3   0.430969 0.343886 0.863245 0.271850
H33   H     H_    0.426922 0.246367 0.901538 0.107582
H34   H     H_    0.430304 0.335477 0.756985 0.181081
C47   C     C_3   0.377612 0.411771 0.908537 -0.370062
H35   H     H_    0.372819 0.401586 0.017080 0.261929
H36   H     H_    0.381227 0.512012 0.879275 0.232630
C48   C     C_3   0.323196 0.354944 0.849531 -0.991773
H37   H     H_    0.327706 0.343370 0.741478 0.284495
H38   H     H_    0.286728 0.416509 0.868409 0.276682
H39   H     H_    0.313420 0.262557 0.896698 0.271248
O17   O     O_3   0.057480 0.160318 0.499088 -0.623624
C49   C     C_3   0.069354 0.129017 0.366874 0.179433
H40   H     H_    0.103954 0.059907 0.370105 0.219183
H41   H     H_    0.086227 0.210129 0.306656 0.107653
C50   C     C_3   0.016708 0.070359 0.299933 -0.387984
H42   H     H_    0.994427 0.003946 0.369219 0.259753
H43   H     H_    0.986465 0.144566 0.271802 0.207191
C51   C     C_3   0.033322 0.001590 0.176066 -0.911794
H44   H     H_    0.055897 0.066521 0.105607 0.259669
H45   H     H_    0.994256 0.963510 0.128053 0.271061
H46   H     H_    0.061534 0.922911 0.201771 0.288283
O18   O     O_3   0.447581 0.523051 0.101635 -0.542270
C52   C     C_3   0.435814 0.652305 0.104722 0.129583
H47   H     H_    0.436907 0.688869 0.001219 0.121664
H48   H     H_    0.467791 0.708444 0.160170 0.130916
C53   C     C_3   0.376090 0.670292 0.163667 -0.316531
H49   H     H_    0.348780 0.585760 0.148594 0.229921
H50   H     H_    0.379739 0.685870 0.271232 0.238334
C54   C     C_3   0.345971 0.781331 0.101872 -0.980264
H51   H     H_    0.371347 0.868276 0.117334 0.260480
H52   H     H_    0.303483 0.790856 0.149065 0.285970
H53   H     H_    0.339521 0.766829 0.994685 0.270405
O19   O     O_3   0.055912 0.844964 0.501365 -0.624227
C55   C     C_3   0.067188 0.877020 0.633824 0.177517
H54   H     H_    0.101968 0.949317 0.631350 0.219420
H55   H     H_    0.083531 0.797360 0.694249 0.107428
C56   C     C_3   0.014316 0.930753 0.699861 -0.385760
H56   H     H_    0.993031 0.996417 0.630769 0.258772
H57   H     H_    0.983416 0.853913 0.725891 0.208963
C57   C     C_3   0.030313 0.999066 0.825299 -0.912997
H58   H     H_    0.052055 0.934904 0.895324 0.259443
H59   H     H_    0.991076 0.033327 0.872886 0.272076
H60   H     H_    0.059107 0.080320 0.801632 0.287425

loop_
_geom_bond_atom_site_label_1
_geom_bond_atom_site_label_2
_ccdc_geom_bond_type
C55   C56   S    
C30   N4    D    
O16   C46   S    
C39   H17   S    
C39   H16   S    
C31   O10   A    
C45   H30   S    
C2    H1    S    
C42   H25   S    
C18   H11   S    
C41   H21   S    
C45   H32   S    
C7    C8    A    
O14   C40   S    
C50   H42   S    
C23   O8    A    
C47   H36   S    
O8    Zn1   S    
C46   C47   S    
C18   C24   A    
C32   C36   A    
C1    O5    A    
C8    H6    S    
C18   C19   A    
C57   H59   S    
C25   H4    S    
N4    Zn2   S    
C5    C6    A    
C40   H20   S    
O5    Zn2   S    
N3    Zn1   S    
C48   H37   S    
C19   O13   S    
C34   C35   A    
C8    C36   A    
C23   C26   S    
C21   H2    S    
C19   C20   A    
C50   H43   S    
C16   C17   A    
C1    C28   S    
C30   H5    S    
C11   H7    S    
C38   H14   S    
C43   H27   S    
O11   Zn2   S    
C49   C50   S    
C12   O7    A    
C2    C34   A    
O13   C37   S    
C21   C22   A    
C32   N1    A    
C31   O11   A    
C27   O15   S    
O17   C49   S    
C41   H22   S    
C29   N3    D    
C51   H45   S    
C33   O2    S    
C23   O9    A    
C47   C48   S    
C26   O14   S    
C37   H12   S    
C24   N1    S    
C50   C51   S    
C55   H54   S    
C9    N2    A    
C42   H23   S    
C7    O19   S    
O1    Zn1   S    
C57   H60   S    
C16   H10   S    
C40   H19   S    
C25   C26   D    
C44   C45   S    
C3    C4    A    
C37   H13   S    
C35   C36   A    
O10   Zn1   S    
C54   H52   S    
C53   H50   S    
C29   C30   S    
O7    Zn2   S    
C3    O17   S    
N4    O18   S    
C38   C39   S    
C44   H29   S    
C33   C34   A    
C20   C21   A    
C43   C44   S    
C46   H34   S    
C10   O4    S    
C6    C7    A    
C56   H57   S    
C52   C53   S    
C12   O6    A    
C28   Br1   S    
C12   C14   S    
O9    Zn2   S    
O18   C52   S    
C39   H18   S    
C22   C24   A    
C54   H53   S    
C15   H9    S    
C17   N2    S    
C53   H49   S    
C41   C42   S    
O6    Zn1   S    
C52   H48   S    
C49   H40   S    
C51   H46   S    
C55   H55   S    
C11   C17   A    
C29   Br2   S    
C32   O12   S    
C42   H24   S    
C4    C5    A    
C56   C57   S    
C6    C10   A    
C51   H44   S    
C45   H31   S    
O19   C55   S    
C25   C27   S    
C47   H35   S    
C48   H39   S    
C37   C38   S    
C54   H51   S    
C4    C9    A    
C53   C54   S    
C57   H58   S    
C11   C13   A    
C40   C41   S    
C22   H3    S    
C5    C35   A    
C44   H28   S    
C48   H38   S    
C2    C3    A    
C46   H33   S    
C1    O1    A    
C56   H56   S    
O15   C43   S    
N3    O16   S    
C27   C28   D    
C33   N1    A    
C14   C15   A    
C38   H15   S    
C9    O3    S    
C43   H26   S    
C13   C14   A    
C10   N2    A    
C13   H8    S    
C15   C16   A    
C52   H47   S    
C49   H41   S    
C20   C31   S    
