data_mof_unit_44281.cif
_audit_creation_date              2012-10-26T18:30:22-0400
_audit_creation_method            fapswitch 2.2
_symmetry_space_group_name_H-M    P1
_symmetry_Int_Tables_number       1
_space_group_crystal_system       triclinic
_cell_length_a                    10.668898
_cell_length_b                    13.012456
_cell_length_c                    11.835221
_cell_angle_alpha                 100.334694
_cell_angle_beta                  93.385527
_cell_angle_gamma                 93.913046
_cell_volume                      1608.38192136

loop_
_atom_site_label
_atom_site_type_symbol
_atom_type_description
_atom_site_fract_x
_atom_site_fract_y
_atom_site_fract_z
_atom_type_partial_charge
C1    C     C_R   0.498204 0.299006 0.477767 0.580812
C2    C     C_R   0.623167 0.580368 0.853443 0.392975
C3    C     C_R   0.547195 0.549557 0.157331 0.098627
C4    C     C_R   0.443580 0.459481 0.845750 0.108668
C5    C     C_R   0.548251 0.535781 0.034120 -0.108384
C6    C     C_R   0.464550 0.458444 0.966417 -0.137289
C7    C     C_R   0.259939 0.501844 0.500767 0.591262
C8    C     C_R   0.739808 0.498910 0.499004 0.581519
C9    C     C_3   0.046374 0.526009 0.608038 0.013143
C10   C     C_3   0.951897 0.476171 0.389642 0.000556
C11   C     C_3   0.956867 0.429066 0.557672 -0.018153
C12   C     C_R   0.497159 0.700637 0.522431 0.569403
C13   C     C_3   0.042024 0.572719 0.439956 -0.010091
C14   C     C_3   0.875671 0.498086 0.496298 0.018305
C15   C     C_3   0.123447 0.503746 0.501852 0.028427
C16   C     C_3   0.964417 0.595884 0.546500 -0.142866
C17   C     C_3   0.034107 0.405902 0.450666 -0.155601
C18   C     C_R   0.489912 0.814508 0.537501 -0.037565
C19   C     C_R   0.493473 0.184432 0.464033 -0.036187
C20   C     C_R   0.444631 0.010025 0.349888 0.256090
C21   C     C_R   0.520705 0.989049 0.655397 0.274423
C22   C     C_R   0.468405 0.118121 0.355416 0.261900
C23   C     C_R   0.509881 0.140721 0.563092 -0.143442
C24   C     C_R   0.504820 0.880243 0.647128 0.237763
C25   C     C_2   0.915222 0.345496 0.622846 0.208090
C26   C     C_2   0.084312 0.655767 0.374353 0.202205
C27   C     C_2   0.091927 0.556820 0.732097 0.230496
C28   C     C_2   0.899095 0.451899 0.266796 0.217205
C29   C     C_3   0.388519 0.839020 0.788935 0.025090
C30   C     C_3   0.389889 0.786919 0.893967 -0.334421
C31   C     C_3   0.557112 0.133670 0.186724 0.022082
C32   C     C_3   0.666760 0.217569 0.217379 -0.351752
C33   C     C_3   0.262420 0.936433 0.252602 0.002193
C34   C     C_R   0.467440 0.858515 0.439789 -0.148287
C35   C     C_3   0.202759 0.873817 0.139326 -0.366445
C36   C     C_3   0.682127 0.065451 0.782133 -0.001762
C37   C     C_3   0.716239 0.123788 0.904360 -0.358660
C38   C     C_2   0.323182 0.406898 0.787952 0.263188
C39   C     C_2   0.606859 0.648078 0.226477 0.314866
C40   C     C_3   0.734136 0.727189 0.810365 0.023815
C41   C     C_3   0.871683 0.769215 0.839139 -0.368302
C42   C     C_3   0.213421 0.322771 0.178649 0.060848
C43   C     C_3   0.155539 0.220824 0.206788 -0.325107
C44   C     C_2   0.382424 0.270566 0.951983 0.207140
C45   C     C_R   0.501571 0.032573 0.556007 -0.055373
C46   C     C_2   0.755481 0.641335 0.036642 0.219680
C47   C     C_R   0.470384 0.966671 0.448267 -0.058260
C48   C     C_R   0.408705 0.379207 0.020570 -0.058392
C49   C     C_R   0.635696 0.591300 0.975710 -0.027143
C50   C     C_R   0.405254 0.397773 0.142992 0.411523
Cu1   Cu    Cu3+1 0.509400 0.507730 0.615930 1.098189
Cu2   Cu    Cu3+1 0.490600 0.492270 0.384070 1.060953
H1    H     H_    0.933378 0.674188 0.580634 0.113146
H2    H     H_    0.360862 0.920420 0.815142 0.172965
H3    H     H_    0.456037 0.832507 0.963978 0.161482
H4    H     H_    0.293890 0.782431 0.924448 0.132490
H5    H     H_    0.418952 0.706130 0.871146 0.176531
H6    H     H_    0.523558 0.130722 0.095692 0.199986
H7    H     H_    0.591410 0.055314 0.190967 0.140172
H8    H     H_    0.702152 0.224125 0.308712 0.160238
H9    H     H_    0.744773 0.196126 0.161988 0.128679
H10   H     H_    0.636508 0.294473 0.203176 0.200911
H11   H     H_    0.222188 0.014110 0.267321 0.134276
H12   H     H_    0.062541 0.327470 0.413319 0.120814
H13   H     H_    0.236306 0.893756 0.322481 0.160297
H14   H     H_    0.240194 0.795360 0.122603 0.165739
H15   H     H_    0.099021 0.863482 0.143371 0.121381
H16   H     H_    0.223599 0.916287 0.068318 0.162511
H17   H     H_    0.723855 0.112267 0.721567 0.151356
H18   H     H_    0.724552 0.988607 0.772520 0.137926
H19   H     H_    0.683970 0.074603 0.966172 0.146144
H20   H     H_    0.820000 0.140446 0.918725 0.114465
H21   H     H_    0.671030 0.199013 0.919391 0.165850
H22   H     H_    0.237351 0.419490 0.831336 0.070725
H23   H     H_    0.448380 0.808317 0.356295 0.191285
H24   H     H_    0.573457 0.721807 0.211801 0.121147
H25   H     H_    0.675670 0.767801 0.876915 0.183338
H26   H     H_    0.705531 0.748648 0.726795 0.187191
H27   H     H_    0.928552 0.743684 0.765727 0.151393
H28   H     H_    0.878270 0.856221 0.858022 0.102698
H29   H     H_    0.913531 0.740719 0.914424 0.197605
H30   H     H_    0.181082 0.326832 0.088464 0.139889
H31   H     H_    0.177866 0.389794 0.236003 0.164468
H32   H     H_    0.186853 0.214027 0.296115 0.143553
H33   H     H_    0.051341 0.217854 0.198155 0.141081
H34   H     H_    0.529767 0.191297 0.646404 0.208138
H35   H     H_    0.185814 0.152796 0.146933 0.202724
H36   H     H_    0.416162 0.251306 0.866726 0.161305
H37   H     H_    0.833041 0.593828 0.049004 0.114692
H38   H     H_    0.985443 0.306962 0.666362 0.106590
H39   H     H_    0.014518 0.695543 0.331906 0.122981
H40   H     H_    0.054092 0.514378 0.795035 0.098043
H41   H     H_    0.849129 0.509592 0.230981 0.152162
H42   H     H_    0.316828 0.794162 0.722788 0.178513
N1    N     N_R   0.523540 0.519360 0.790140 -0.224857
N2    N     N_R   0.476460 0.480640 0.209860 -0.250906
O1    O     O_R   0.506670 0.354460 0.582000 -0.455224
O2    O     O_2   0.196024 0.679465 0.368598 -0.523749
O3    O     O_2   0.168150 0.632060 0.763572 -0.556655
O4    O     O_2   0.912883 0.368001 0.206080 -0.582716
O5    O     O_3   0.509491 0.839335 0.746903 -0.578643
O6    O     O_3   0.455457 0.159090 0.255709 -0.479733
O7    O     O_3   0.394700 0.947803 0.247726 -0.564830
O8    O     O_3   0.549641 0.052154 0.762180 -0.553710
O9    O     O_2   0.318843 0.341693 0.699814 -0.516655
O10   O     O_2   0.698279 0.649159 0.293587 -0.521606
O11   O     O_3   0.722809 0.616491 0.796667 -0.537893
O12   O     O_R   0.493330 0.645540 0.418000 -0.487497
O13   O     O_3   0.345745 0.324506 0.196998 -0.459893
O14   O     O_2   0.329273 0.199746 0.990310 -0.502819
O15   O     O_2   0.767385 0.735471 0.074272 -0.547066
O16   O     O_R   0.490800 0.341410 0.386200 -0.440804
O17   O     O_R   0.509200 0.658590 0.613800 -0.479092
O18   O     O_R   0.324790 0.506500 0.597880 -0.462033
O19   O     O_R   0.675210 0.493500 0.402120 -0.496895
O20   O     O_R   0.308910 0.493440 0.402080 -0.484702
O21   O     O_R   0.691090 0.506560 0.597920 -0.425304
O22   O     O_2   0.803702 0.319834 0.626869 -0.511550

loop_
_geom_bond_atom_site_label_1
_geom_bond_atom_site_label_2
_ccdc_geom_bond_type
Cu1   O1    S    
C39   O10   D    
C23   C45   A    
C42   H30   S    
C25   O22   D    
C41   H28   S    
C33   H13   S    
C46   H37   S    
C46   C49   S    
C27   O3    D    
C25   H38   S    
Cu1   O17   S    
C6    C48   A    
C18   C24   A    
C31   H6    S    
C36   C37   S    
C9    C16   S    
C32   H9    S    
Cu2   O20   S    
C1    O16   A    
C29   H42   S    
C11   C14   S    
C29   H2    S    
Cu2   O16   S    
C10   C17   S    
C30   H5    S    
C2    O11   S    
C24   O5    S    
C31   H7    S    
C16   H1    S    
C8    O19   A    
C33   C35   S    
C21   O8    S    
C23   H34   S    
C3    N2    A    
C34   H23   S    
C28   O4    D    
C7    C15   S    
C3    C39   S    
C46   O15   D    
C43   H32   S    
C5    C49   A    
C36   H18   S    
C8    O21   A    
C21   C45   A    
C45   C47   A    
C1    C19   S    
Cu1   O18   S    
Cu1   Cu2   S    
C43   H33   S    
C31   O6    S    
C19   C22   A    
C4    C6    A    
C10   C14   S    
C1    O1    A    
C20   O7    S    
C35   H14   S    
C26   H39   S    
C30   H4    S    
C50   O13   S    
C28   H41   S    
C7    O20   A    
C19   C23   A    
C29   C30   S    
C2    C49   A    
C4    N1    A    
C9    C11   S    
C31   C32   S    
C35   H15   S    
C33   H11   S    
C41   H29   S    
C21   C24   A    
C29   O5    S    
C27   H40   S    
C39   H24   S    
C18   C34   A    
C26   O2    D    
C40   O11   S    
C40   C41   S    
C20   C22   A    
C13   C15   S    
C40   H26   S    
C13   C26   S    
C13   C16   S    
C42   C43   S    
C32   H8    S    
C36   H17   S    
C9    C27   S    
C12   O12   A    
C12   O17   A    
C38   H22   S    
Cu2   O19   S    
C10   C28   S    
C15   C17   S    
C37   H21   S    
C11   C17   S    
C8    C14   S    
C33   O7    S    
C42   O13   S    
C42   H31   S    
C4    C38   S    
C3    C5    A    
C10   C13   S    
C2    N1    A    
C41   H27   S    
C30   H3    S    
C22   O6    S    
C36   O8    S    
C43   H35   S    
C38   O9    D    
C37   H19   S    
C9    C15   S    
C32   H10   S    
C17   H12   S    
C50   N2    A    
C5    C6    A    
C35   H16   S    
C48   C50   A    
Cu1   O21   S    
Cu2   N2    S    
C14   C16   S    
C20   C47   A    
Cu2   O12   S    
C37   H20   S    
C12   C18   S    
C11   C25   S    
C40   H25   S    
C34   C47   A    
C44   H36   S    
C7    O18   A    
C44   C48   S    
Cu1   N1    S    
C44   O14   D    
