data_mof_unit_23510.cif
_audit_creation_date              2012-12-11T17:08:34-0500
_audit_creation_method            fapswitch 2.2
_symmetry_space_group_name_H-M    P1
_symmetry_Int_Tables_number       1
_space_group_crystal_system       triclinic
_cell_length_a                    6.974355
_cell_length_b                    14.428061
_cell_length_c                    16.249364
_cell_angle_alpha                 90.010383
_cell_angle_beta                  89.965002
_cell_angle_gamma                 90.35337
_cell_volume                      1635.08388777

loop_
_atom_site_label
_atom_site_type_symbol
_atom_type_description
_atom_site_fract_x
_atom_site_fract_y
_atom_site_fract_z
_atom_type_partial_charge
O1    O     O_R   0.505700 0.583890 0.413310 -0.531619
O2    O     O_R   0.175960 0.594920 0.586080 -0.543019
O3    O     O_R   0.005660 0.416110 0.586690 -0.530107
C1    C     C_R   0.345200 0.615292 0.616098 0.739445
O4    O     O_R   0.175980 0.594920 0.413930 -0.520390
O5    O     O_R   0.005680 0.416110 0.413310 -0.523775
C2    C     C_R   0.344869 0.614511 0.383446 0.749573
O6    O     O_R   0.505680 0.583890 0.586690 -0.543982
O7    O     O_3   0.339200 0.441330 0.500000 -0.333947
V1    V     V_3+5 0.064350 0.510880 0.500000 1.628962
O8    O     O_R   0.675960 0.405080 0.413920 -0.521507
C3    C     C_R   0.844709 0.381842 0.386054 0.814960
O9    O     O_R   0.675940 0.405080 0.586070 -0.522601
C4    C     C_R   0.844852 0.384615 0.616152 0.715744
V2    V     V_3+5 0.564340 0.489120 0.500000 1.646443
O10   O     O_3   0.839360 0.558670 0.500000 -0.368102
C5    C     C_R   0.004934 0.252874 0.690971 -0.070743
C6    C     C_R   0.855823 0.318463 0.686819 -0.195645
C7    C     C_R   0.725673 0.321709 0.754526 0.420149
C8    C     C_R   0.731598 0.252908 0.816282 -0.043903
H1    H     H_    0.632653 0.256991 0.867390 0.211659
C9    C     C_R   0.877400 0.186315 0.818514 -0.176502
C10   C     C_R   0.016354 0.189923 0.757011 -0.119586
C11   C     C_3   0.228114 0.204854 0.768765 0.600509
C12   C     C_3   0.217866 0.272551 0.696357 0.499272
C13   C     C_R   0.725734 0.240951 0.195022 -0.134906
C14   C     C_R   0.879359 0.179778 0.186880 -0.152602
C15   C     C_R   0.010865 0.175834 0.253107 0.241414
C16   C     C_R   0.999570 0.240300 0.319240 0.257870
C17   C     C_R   0.853998 0.308923 0.321124 -0.145758
C18   C     C_R   0.712441 0.303106 0.260166 0.007228
C19   C     C_3   0.621670 0.376181 0.207939 0.444349
C20   C     C_3   0.637774 0.307886 0.135304 0.530596
C21   C     C_R   0.503433 0.747346 0.691232 -0.012479
C22   C     C_R   0.356655 0.679878 0.687828 -0.232636
C23   C     C_R   0.237918 0.669589 0.758977 0.420283
C24   C     C_R   0.255811 0.732099 0.825784 0.448041
C25   C     C_R   0.379422 0.810110 0.820514 -0.254552
C26   C     C_R   0.515852 0.809770 0.757708 -0.049844
C27   C     C_3   0.723724 0.789889 0.770992 0.417090
C28   C     C_3   0.714831 0.728284 0.694970 0.452205
C29   C     C_R   0.515864 0.733825 0.297779 -0.093423
C30   C     C_R   0.356449 0.675488 0.309445 -0.176249
C31   C     C_R   0.216058 0.674451 0.245237 0.405029
C32   C     C_R   0.225834 0.740420 0.180309 0.223077
C33   C     C_R   0.377157 0.806932 0.176498 -0.162815
C34   C     C_R   0.524740 0.797487 0.233734 -0.069031
C35   C     C_3   0.629173 0.867924 0.285109 0.645892
C36   C     C_3   0.622785 0.796909 0.355465 0.471808
O11   O     O_R   0.229000 0.916070 0.913330 -0.526557
O12   O     O_R   0.558770 0.905070 0.086080 -0.533335
O13   O     O_R   0.729000 0.083900 0.086690 -0.537221
C37   C     C_R   0.388842 0.880772 0.112817 0.793364
O14   O     O_R   0.558720 0.905070 0.913930 -0.521682
O15   O     O_R   0.728960 0.083900 0.913310 -0.530819
C38   C     C_R   0.389751 0.881888 0.886281 0.759771
O16   O     O_R   0.229050 0.916070 0.086710 -0.527132
O17   O     O_3   0.395460 0.058650 0.000020 -0.363014
V3    V     V_3+5 0.670340 0.989120 0.000000 1.670047
O18   O     O_R   0.058670 0.094960 0.913900 -0.522916
C39   C     C_R   0.889674 0.118199 0.886465 0.791621
O19   O     O_R   0.058720 0.094960 0.086050 -0.530542
C40   C     C_R   0.890125 0.116073 0.115260 0.797992
V4    V     V_3+5 0.170330 0.010930 0.999970 1.673642
O20   O     O_3   0.895340 0.941350 0.999980 -0.350701
O21   O     O_3   0.605394 0.395597 0.768190 -0.577199
H2    H     H_    0.644328 0.448403 0.733065 0.319182
Br1   Br    Br    0.363697 0.405495 0.245069 -0.506878
Br2   Br    Br    0.812016 0.345512 0.047191 -0.410070
O22   O     O_3   0.460019 0.277639 0.103590 -0.592846
H3    H     H_    0.393783 0.238993 0.145573 0.323860
O23   O     O_3   0.118201 0.594109 0.770702 -0.572237
H4    H     H_    0.142595 0.546768 0.728254 0.290994
O24   O     O_3   0.171635 0.706771 0.899234 -0.543688
H5    H     H_    0.236123 0.739605 0.944992 0.309054
Br3   Br    Br    0.762539 0.721609 0.874031 -0.323916
Br4   Br    Br    0.879511 0.902354 0.765406 -0.452777
O25   O     O_3   0.752936 0.634845 0.712875 -0.613970
H6    H     H_    0.819158 0.607826 0.664715 0.315872
Br5   Br    Br    0.848801 0.775520 0.597992 -0.413145
O26   O     O_3   0.065716 0.611675 0.243483 -0.575200
H7    H     H_    0.099173 0.556530 0.276243 0.336907
Br6   Br    Br    0.029916 0.733681 0.096948 -0.395183
O27   O     O_3   0.518831 0.946786 0.300167 -0.574165
H8    H     H_    0.593883 0.985629 0.339115 0.365203
O28   O     O_3   0.813290 0.891260 0.255520 -0.615539
H9    H     H_    0.871286 0.835181 0.231049 0.318812
O29   O     O_3   0.510103 0.825904 0.422216 -0.582717
H10   H     H_    0.508672 0.773939 0.462151 0.319322
Br7   Br    Br    0.870654 0.748631 0.387552 -0.413087
O30   O     O_3   0.338492 0.124934 0.754155 -0.597834
H11   H     H_    0.268930 0.083736 0.715161 0.323874
O31   O     O_3   0.279658 0.246068 0.844441 -0.600712
H12   H     H_    0.175526 0.287304 0.863662 0.295579
Br8   Br    Br    0.360714 0.233219 0.600310 -0.355808
O32   O     O_3   0.260186 0.365477 0.715978 -0.608818
H13   H     H_    0.170649 0.387197 0.759198 0.288104
Br9   Br    Br    0.202673 0.080738 0.255688 -0.393163
Br10  Br    Br    0.184360 0.231927 0.406191 -0.352965
O33   O     O_3   0.739978 0.454714 0.200789 -0.600564
H14   H     H_    0.671269 0.498068 0.163941 0.361326

loop_
_geom_bond_atom_site_label_1
_geom_bond_atom_site_label_2
_ccdc_geom_bond_type
C24   O24   S    
O31   H12   S    
O15   V3    S    
O11   V4    S    
C4    C6    S    
C7    C8    A    
C36   Br7   S    
C1    O6    A    
C28   Br5   S    
O26   H7    S    
C32   C33   A    
C15   C16   A    
C13   C14   A    
C16   C17   A    
C23   C24   A    
C21   C22   A    
O5    C3    A    
C17   C18   A    
V2    O10   S    
C7    O21   S    
C6    C7    A    
O19   V4    S    
O8    V2    S    
C18   C19   S    
C27   Br3   S    
C10   C11   S    
O22   H3    S    
O1    V2    S    
C2    C30   S    
O7    V1    S    
C20   Br2   S    
C19   Br1   S    
O21   H2    S    
C1    C22   S    
C13   C18   A    
O9    C4    A    
C36   O29   S    
C32   Br6   S    
C21   C28   S    
O14   V3    S    
O17   V4    S    
O14   C38   A    
O24   H5    S    
C16   Br10  S    
C21   C26   A    
C11   C12   S    
C31   O26   S    
O30   H11   S    
O4    C2    A    
C37   O16   A    
O28   H9    S    
O17   V3    S    
O11   C38   A    
C35   O27   S    
O18   C39   A    
O12   C37   A    
C22   C23   A    
O2    C1    A    
C30   C31   A    
C24   C25   A    
O13   V3    S    
C13   C20   S    
C34   C35   S    
O32   H13   S    
C8    H1    S    
O19   C40   A    
C5    C6    A    
C5    C10   A    
O27   H8    S    
O3    C4    A    
C14   C40   S    
C20   O22   S    
C35   C36   S    
C8    C9    A    
C12   Br8   S    
O6    V2    S    
O9    V2    S    
C35   O28   S    
O12   V3    S    
C29   C30   A    
O2    V1    S    
C11   O30   S    
C28   O25   S    
C31   C32   A    
O16   V4    S    
C15   Br9   S    
C33   C34   A    
C27   C28   S    
C3    C17   S    
O1    C2    A    
O23   H4    S    
O13   C40   A    
O5    V1    S    
O8    C3    A    
O18   V4    S    
C5    C12   S    
V4    O20   S    
O7    V2    S    
O4    V1    S    
O3    V1    S    
V1    O10   S    
C11   O31   S    
C19   C20   S    
C9    C39   S    
O25   H6    S    
C25   C26   A    
O15   C39   A    
C33   C37   S    
O33   H14   S    
C29   C34   A    
C27   Br4   S    
C29   C36   S    
C26   C27   S    
C19   O33   S    
C25   C38   S    
O29   H10   S    
C12   O32   S    
C14   C15   A    
C9    C10   A    
V3    O20   S    
C23   O23   S    
