data_mof_unit_52659.cif
_audit_creation_date              2012-12-10T17:15:10-0500
_audit_creation_method            fapswitch 2.2
_symmetry_space_group_name_H-M    P1
_symmetry_Int_Tables_number       1
_space_group_crystal_system       triclinic
_cell_length_a                    15.873691
_cell_length_b                    12.929337
_cell_length_c                    11.867742
_cell_angle_alpha                 99.428782
_cell_angle_beta                  93.741228
_cell_angle_gamma                 92.617842
_cell_volume                      2393.7312439

loop_
_atom_site_label
_atom_site_type_symbol
_atom_type_description
_atom_site_fract_x
_atom_site_fract_y
_atom_site_fract_z
_atom_type_partial_charge
C1    C     C_R   0.502935 0.300164 0.478961 0.811055
C2    C     C_R   0.497065 0.699836 0.521039 0.811056
C3    C     C_R   0.575400 0.025523 0.389642 0.196012
C4    C     C_R   0.424602 0.974477 0.610358 0.196013
C5    C     C_R   0.571191 0.135536 0.397267 0.156203
C6    C     C_R   0.428811 0.864464 0.602732 0.156202
C7    C     C_R   0.463455 0.133774 0.534494 -0.316729
C8    C     C_R   0.536547 0.866226 0.465506 -0.316729
C9    C     C_R   0.471918 0.027292 0.536775 0.076856
C10   C     C_R   0.528083 0.972708 0.463225 0.076856
C11   C     C_R   0.432242 0.387696 0.021401 -0.293472
C12   C     C_R   0.567760 0.612302 0.978599 -0.293472
C13   C     C_R   0.436383 0.398705 0.141684 0.334255
C14   C     C_R   0.563618 0.601294 0.858316 0.334254
C15   C     C_R   0.527408 0.552371 0.155674 0.294727
C16   C     C_R   0.472592 0.447628 0.844326 0.294727
C17   C     C_R   0.524050 0.541313 0.033906 -0.002357
C18   C     C_R   0.475951 0.458686 0.966093 -0.002356
C19   C     C_R   0.340224 0.499413 0.500063 0.798046
C20   C     C_R   0.659776 0.500586 0.499937 0.798048
C21   C     C_3   0.966842 0.401030 0.477087 0.141336
C22   C     C_3   0.033158 0.598969 0.522912 0.141336
C23   C     C_3   0.021301 0.454121 0.397031 0.138125
C24   C     C_3   0.978698 0.545877 0.602968 0.138125
C25   C     C_1   0.250720 0.499323 0.500353 -0.179907
C26   C     C_1   0.749280 0.500676 0.499647 -0.179908
C27   C     C_3   0.029594 0.446454 0.580257 0.137519
C28   C     C_3   0.970406 0.553544 0.419743 0.137520
C29   C     C_3   0.083695 0.499545 0.500203 0.044094
C30   C     C_3   0.916305 0.500453 0.499796 0.044094
C31   C     C_1   0.175302 0.499328 0.500378 -0.008075
C32   C     C_1   0.824697 0.500671 0.499621 -0.008075
C33   C     C_R   0.487440 0.812302 0.532046 -0.091802
C34   C     C_R   0.512561 0.187698 0.467954 -0.091800
Cu1   Cu    Cu3+1 0.506200 0.507730 0.615930 0.926897
Cu2   Cu    Cu3+1 0.493800 0.492270 0.384070 0.926896
H1    H     H_    0.581873 0.822935 0.415336 0.164297
H2    H     H_    0.418128 0.177065 0.584664 0.164298
H3    H     H_    0.394858 0.321895 0.971057 0.181265
H4    H     H_    0.605145 0.678102 0.028943 0.181265
N1    N     N_R   0.515540 0.519350 0.790140 -0.187686
N2    N     N_R   0.484460 0.480650 0.209860 -0.187687
O1    O     O_R   0.504400 0.354460 0.582000 -0.593897
O2    O     O_R   0.495600 0.645540 0.418000 -0.593897
O3    O     O_R   0.493920 0.341410 0.386200 -0.578167
O4    O     O_R   0.506080 0.658590 0.613800 -0.578164
O5    O     O_R   0.384320 0.506520 0.597880 -0.591586
O6    O     O_R   0.615680 0.493480 0.402120 -0.591587
O7    O     O_R   0.373840 0.493460 0.402080 -0.576064
O8    O     O_R   0.626160 0.506540 0.597920 -0.576064
C35   C     C_3   0.046141 0.402119 0.280409 -0.845793
H5    H     H_    0.988386 0.376872 0.222870 0.237460
H6    H     H_    0.085604 0.458702 0.242594 0.236945
H7    H     H_    0.082704 0.332571 0.290091 0.232949
C36   C     C_3   0.953859 0.597880 0.719590 -0.845793
H8    H     H_    0.011614 0.623127 0.777130 0.237460
H9    H     H_    0.917296 0.667427 0.709909 0.232948
H10   H     H_    0.914396 0.541296 0.757405 0.236944
C37   C     C_3   0.928415 0.288976 0.451097 -0.851514
H11   H     H_    0.979468 0.233314 0.438327 0.236751
H12   H     H_    0.892240 0.272421 0.523688 0.236015
H13   H     H_    0.885236 0.278864 0.372194 0.234358
C38   C     C_3   0.071585 0.711023 0.548902 -0.851514
H14   H     H_    0.020532 0.766684 0.561672 0.236751
H15   H     H_    0.114764 0.721135 0.627805 0.234358
H16   H     H_    0.107759 0.727578 0.476312 0.236016
C39   C     C_3   0.936159 0.614174 0.328832 -0.846281
H17   H     H_    0.989280 0.643595 0.284202 0.237774
H18   H     H_    0.892074 0.561799 0.265712 0.236912
H19   H     H_    0.901937 0.681656 0.369789 0.232624
C40   C     C_3   0.063841 0.385824 0.671168 -0.846281
H20   H     H_    0.010720 0.356404 0.715798 0.237775
H21   H     H_    0.098062 0.318342 0.630210 0.232624
H22   H     H_    0.107926 0.438199 0.734287 0.236912
C41   C     C_3   0.367418 0.803463 0.663707 -0.845035
H23   H     H_    0.302376 0.829457 0.649892 0.228048
H24   H     H_    0.362606 0.718209 0.630628 0.239570
H25   H     H_    0.386672 0.815757 0.756769 0.234155
C42   C     C_3   0.632584 0.196537 0.336293 -0.845039
H26   H     H_    0.697626 0.170547 0.350114 0.228049
H27   H     H_    0.613332 0.184238 0.243230 0.234154
H28   H     H_    0.637392 0.281792 0.369367 0.239573
C43   C     C_3   0.629525 0.964058 0.303979 -0.890861
H29   H     H_    0.655319 0.010160 0.242045 0.243126
H30   H     H_    0.683514 0.933377 0.350124 0.230351
H31   H     H_    0.590677 0.897667 0.251322 0.231641
C44   C     C_3   0.370479 0.035943 0.696024 -0.890861
H32   H     H_    0.344684 0.989840 0.757957 0.243126
H33   H     H_    0.409328 0.102332 0.748681 0.231641
H34   H     H_    0.316490 0.066626 0.649880 0.230351
N3    N     N_3   0.425463 0.357585 0.780479 -0.627369
H35   H     H_    0.386713 0.377286 0.714194 0.262562
H36   H     H_    0.467412 0.300912 0.752012 0.234792
N4    N     N_3   0.574537 0.642415 0.219521 -0.627370
H37   H     H_    0.613287 0.622715 0.285805 0.262561
H38   H     H_    0.532587 0.699088 0.247989 0.234793
C45   C     C_3   0.611363 0.686210 0.811175 -0.768115
H39   H     H_    0.663687 0.724107 0.873090 0.178793
H40   H     H_    0.642175 0.656418 0.733129 0.257418
H41   H     H_    0.568464 0.748900 0.796745 0.231776
C46   C     C_3   0.388639 0.313787 0.188824 -0.768118
H42   H     H_    0.357834 0.343576 0.266876 0.257424
H43   H     H_    0.336312 0.275896 0.126913 0.178796
H44   H     H_    0.431538 0.251095 0.203245 0.231771

loop_
_geom_bond_atom_site_label_1
_geom_bond_atom_site_label_2
_ccdc_geom_bond_type
C25   C31   T    
C36   H8    S    
C38   H15   S    
C11   C18   A    
C26   C32   T    
C46   H42   S    
C22   C29   S    
C27   C29   S    
Cu2   N2    S    
Cu1   Cu2   S    
C24   C27   S    
C44   H32   S    
Cu1   O5    S    
C15   N4    S    
C45   H39   S    
C6    C41   S    
C4    C44   S    
C2    O4    A    
C24   C36   S    
C23   C29   S    
C21   C37   S    
C19   O5    A    
C42   H28   S    
C15   C17   A    
C20   O8    A    
C22   C38   S    
C1    O1    A    
C2    O2    A    
C12   C17   A    
C5    C42   S    
Cu1   O1    S    
C9    C10   A    
C21   C27   S    
C38   H16   S    
C37   H11   S    
C46   H43   S    
C22   C28   S    
C19   C25   S    
C13   N2    A    
C45   H40   S    
C1    C34   S    
C37   H12   S    
C39   H17   S    
C28   C39   S    
C4    C6    A    
N3    H35   S    
C42   H27   S    
C35   H5    S    
C39   H18   S    
C12   H4    S    
C11   H3    S    
C41   H23   S    
N3    H36   S    
C19   O7    A    
C23   C35   S    
C43   H29   S    
C5    C34   A    
Cu1   O8    S    
C17   C18   A    
Cu2   O3    S    
C23   C28   S    
N4    H38   S    
C41   H24   S    
C20   O6    A    
C14   N1    A    
C2    C33   S    
C16   C18   A    
C43   H30   S    
C12   C14   A    
C46   H44   S    
C36   H9    S    
C3    C43   S    
C7    C34   A    
C22   C24   S    
Cu2   O2    S    
C8    H1    S    
C13   C46   S    
C45   H41   S    
C27   C40   S    
C14   C45   S    
C40   H21   S    
C7    C9    A    
C37   H13   S    
C15   N2    A    
C38   H14   S    
C3    C5    A    
C40   H22   S    
C21   C30   S    
C6    C33   A    
C39   H19   S    
C35   H7    S    
C21   C23   S    
C40   H20   S    
C29   C31   S    
C3    C10   A    
C30   C32   S    
C11   C13   A    
C1    O3    A    
C36   H10   S    
C20   C26   S    
C28   C30   S    
C7    H2    S    
Cu2   O6    S    
C8    C33   A    
N4    H37   S    
Cu1   N1    S    
C41   H25   S    
C24   C30   S    
C42   H26   S    
C43   H31   S    
C16   N3    S    
C8    C10   A    
C44   H34   S    
C44   H33   S    
C35   H6    S    
C4    C9    A    
Cu1   O4    S    
C16   N1    A    
Cu2   O7    S    
