data_mof_unit_12506.cif
_audit_creation_date              2012-12-10T18:57:11-0500
_audit_creation_method            fapswitch 2.2
_symmetry_space_group_name_H-M    P1
_symmetry_Int_Tables_number       1
_space_group_crystal_system       triclinic
_cell_length_a                    10.675028
_cell_length_b                    9.830774
_cell_length_c                    10.593639
_cell_angle_alpha                 88.77627
_cell_angle_beta                  89.890253
_cell_angle_gamma                 90.642327
_cell_volume                      1111.41061506

loop_
_atom_site_label
_atom_site_type_symbol
_atom_type_description
_atom_site_fract_x
_atom_site_fract_y
_atom_site_fract_z
_atom_type_partial_charge
C1    C     C_R   0.260261 0.499075 0.500763 0.839890
C2    C     C_R   0.461377 0.620171 0.933528 0.115250
C3    C     C_R   0.443905 0.505714 0.132279 -0.207015
C4    C     C_R   0.462719 0.494727 0.874236 -0.205672
C5    C     C_R   0.393413 0.389943 0.073589 0.139911
C6    C     C_R   0.419417 0.375692 0.943334 0.130339
C7    C     C_3   0.550446 0.738944 0.924811 -0.463968
C8    C     C_3   0.546179 0.742509 0.067648 -0.442625
C9    C     C_R   0.063670 0.441254 0.607606 0.161171
C10   C     C_R   0.933048 0.450491 0.611153 0.155739
C11   C     C_R   0.871699 0.501730 0.502582 -0.191438
C12   C     C_R   0.739408 0.500600 0.501024 0.882357
C13   C     C_R   0.127425 0.496924 0.501064 -0.187924
C14   C     C_R   0.935116 0.547819 0.393005 -0.061755
C15   C     C_R   0.065419 0.553846 0.395584 -0.073654
C16   C     C_3   0.310113 0.289275 0.147376 -0.418491
C17   C     C_3   0.176319 0.287986 0.095906 -0.865675
C18   C     C_3   0.419529 0.232970 0.889125 -0.373010
C19   C     C_3   0.550958 0.173177 0.893469 -0.838222
C20   C     C_3   0.133957 0.370478 0.715463 -0.399559
C21   C     C_3   0.129858 0.216032 0.699728 -0.859352
C22   C     C_3   0.859558 0.414298 0.731996 -0.452509
C23   C     C_R   0.590471 0.071643 0.563041 -0.063585
C24   C     C_3   0.851189 0.537483 0.816515 -0.822475
C25   C     C_2   0.864151 0.581449 0.275020 0.470155
C26   C     C_2   0.137963 0.619586 0.289719 0.498111
C27   C     C_R   0.409053 0.072183 0.437772 -0.088568
C28   C     C_R   0.590254 0.927670 0.563380 -0.078364
C29   C     C_R   0.409414 0.928320 0.437170 -0.063979
C30   C     C_R   0.485615 0.501408 0.260787 0.869730
C31   C     C_R   0.493916 0.497821 0.741542 0.885848
C32   C     C_R   0.456618 0.625154 0.061481 0.118222
H1    H     H_    0.643808 0.712201 0.887343 0.203840
H2    H     H_    0.172940 0.254247 0.997016 0.255124
H3    H     H_    0.117275 0.217292 0.154295 0.266079
H4    H     H_    0.350534 0.185745 0.148372 0.210349
H5    H     H_    0.299887 0.318819 0.247047 0.223184
H6    H     H_    0.619879 0.241076 0.844546 0.262282
H7    H     H_    0.580927 0.158164 0.993117 0.257580
H8    H     H_    0.550641 0.073160 0.846927 0.233867
H9    H     H_    0.357785 0.161060 0.942014 0.203095
H10   H     H_    0.380613 0.230605 0.792786 0.236691
H11   H     H_    0.032747 0.178891 0.683714 0.254497
H12   H     H_    0.501269 0.835451 0.103887 0.206544
H13   H     H_    0.188446 0.187144 0.618096 0.277442
H14   H     H_    0.165952 0.164033 0.785846 0.233661
H15   H     H_    0.232748 0.404751 0.721374 0.200192
H16   H     H_    0.095400 0.397426 0.808660 0.212133
H17   H     H_    0.945786 0.570177 0.847865 0.275403
H18   H     H_    0.806853 0.623254 0.764151 0.246569
H19   H     H_    0.793579 0.511136 0.901168 0.268442
H20   H     H_    0.763360 0.378220 0.712294 0.213689
H21   H     H_    0.900416 0.327847 0.785661 0.221522
H22   H     H_    0.773305 0.628996 0.279708 0.058079
H23   H     H_    0.506826 0.829045 0.878413 0.205854
H24   H     H_    0.227815 0.579711 0.262416 0.026289
H25   H     H_    0.636781 0.715239 0.112389 0.212060
H26   H     H_    0.662728 0.125921 0.613514 0.127140
H27   H     H_    0.335769 0.126649 0.388873 0.127493
H28   H     H_    0.662205 0.872797 0.614299 0.130050
H29   H     H_    0.337094 0.874049 0.386761 0.149546
H30   H     H_    0.135885 0.391427 0.100078 0.283591
N1    N     N_R   0.500000 0.857200 0.500000 -0.081837
N2    N     N_R   0.500000 0.142810 0.500000 -0.077732
O1    O     O_R   0.316770 0.614620 0.499990 -0.623550
O2    O     O_2   0.100134 0.722046 0.235643 -0.557331
O3    O     O_R   0.683230 0.614620 0.500010 -0.628575
O4    O     O_R   0.316800 0.385290 0.500000 -0.630043
O5    O     O_R   0.683200 0.385290 0.500000 -0.616116
O6    O     O_R   0.500000 0.614690 0.316780 -0.622049
O7    O     O_R   0.500000 0.614690 0.683220 -0.605749
O8    O     O_R   0.500020 0.385360 0.316780 -0.615835
O9    O     O_R   0.499980 0.385360 0.683220 -0.624257
O10   O     O_2   0.904386 0.550842 0.171551 -0.577135
Zn1   Zn    Zn3+2 0.500000 0.653120 0.500000 0.941247
Zn2   Zn    Zn3+2 0.500000 0.346880 0.500000 0.927789

loop_
_geom_bond_atom_site_label_1
_geom_bond_atom_site_label_2
_ccdc_geom_bond_type
C23   H26   S    
C2    C4    A    
C12   O5    A    
C29   N1    A    
C16   H4    S    
C19   H6    S    
C8    H25   S    
C27   C29   A    
C9    C10   A    
C9    C20   S    
C1    O1    A    
C2    C7    S    
O1    Zn1   S    
C13   C15   A    
C7    H23   S    
C16   H5    S    
O8    Zn2   S    
C3    C5    A    
C24   H19   S    
C31   O7    A    
N2    Zn2   S    
C7    C8    S    
C11   C14   A    
C27   H27   S    
C23   C28   A    
C25   H22   S    
O7    Zn1   S    
C7    H1    S    
C20   H16   S    
C8    C32   S    
N1    Zn1   S    
C6    C18   S    
C5    C6    A    
C19   H7    S    
C3    C30   S    
C22   H20   S    
C23   N2    A    
C12   O3    A    
C25   O10   D    
C22   H21   S    
C21   H13   S    
C19   H8    S    
C28   H28   S    
C14   C25   S    
C24   H18   S    
C3    C32   A    
C17   H30   S    
O9    Zn2   S    
C29   H29   S    
C31   O9    A    
C4    C31   S    
O4    Zn2   S    
C17   H2    S    
C4    C6    A    
C26   O2    D    
C28   N1    A    
C8    H12   S    
C1    C13   S    
C24   H17   S    
C1    O4    A    
O3    Zn1   S    
C20   C21   S    
O5    Zn2   S    
C2    C32   A    
C18   C19   S    
C10   C11   A    
C22   C24   S    
O6    Zn1   S    
C9    C13   A    
C14   C15   A    
C16   C17   S    
C5    C16   S    
C17   H3    S    
C18   H10   S    
C30   O6    A    
C21   H11   S    
C27   N2    A    
C10   C22   S    
C20   H15   S    
C18   H9    S    
C11   C12   S    
C30   O8    A    
C15   C26   S    
C21   H14   S    
C26   H24   S    
