data_mof_unit_12986.cif
_audit_creation_date              2012-12-10T20:53:11-0500
_audit_creation_method            fapswitch 2.2
_symmetry_space_group_name_H-M    P1
_symmetry_Int_Tables_number       1
_space_group_crystal_system       triclinic
_cell_length_a                    18.366269
_cell_length_b                    18.357517
_cell_length_c                    18.35867
_cell_angle_alpha                 59.906954
_cell_angle_beta                  59.861792
_cell_angle_gamma                 59.863423
_cell_volume                      4364.66608207

loop_
_atom_site_label
_atom_site_type_symbol
_atom_type_description
_atom_site_fract_x
_atom_site_fract_y
_atom_site_fract_z
_atom_type_partial_charge
C1    C     C_R   0.389901 0.110147 0.110216 0.787203
C2    C     C_R   0.379924 0.805462 0.780884 -0.124200
C3    C     C_R   0.035228 0.551861 0.910204 0.071360
C4    C     C_R   0.474927 0.094349 0.960178 0.071016
C5    C     C_R   0.525069 0.905653 0.039820 0.071019
C6    C     C_R   0.945861 0.946067 0.553883 -0.159499
C7    C     C_R   0.054141 0.053931 0.446114 -0.159498
C8    C     C_R   0.946022 0.553811 0.945904 -0.158499
C9    C     C_R   0.053966 0.446183 0.054105 -0.158483
C10   C     C_R   0.553834 0.945970 0.945913 -0.153223
C11   C     C_R   0.446165 0.054031 0.054085 -0.153230
C12   C     C_R   0.193976 0.219685 0.618955 -0.122831
C13   C     C_R   0.806175 0.780584 0.380946 -0.122784
C14   C     C_R   0.178798 0.576554 0.285107 -0.129533
C15   C     C_R   0.821509 0.422948 0.714867 -0.130211
C16   C     C_R   0.578614 0.284603 0.176963 -0.130340
C17   C     C_R   0.421464 0.715442 0.822994 -0.130151
C18   C     C_R   0.284068 0.177468 0.577588 -0.126191
C19   C     C_R   0.716045 0.822737 0.422265 -0.126125
C20   C     C_R   0.088871 0.585137 0.314862 0.150462
C21   C     C_R   0.610099 0.889854 0.889782 0.787194
C22   C     C_R   0.911282 0.414831 0.685161 0.150304
C23   C     C_R   0.585478 0.314536 0.087549 0.149779
C24   C     C_R   0.414536 0.685463 0.912437 0.149764
C25   C     C_R   0.314415 0.087605 0.585546 0.149315
C26   C     C_R   0.685611 0.912577 0.414417 0.149216
C27   C     C_R   0.042039 0.635753 0.254100 -0.140992
C28   C     C_R   0.958004 0.364702 0.745990 -0.140390
C29   C     C_R   0.634336 0.253780 0.040748 -0.139826
C30   C     C_R   0.365653 0.746189 0.959274 -0.140031
C31   C     C_R   0.253969 0.040463 0.635355 -0.141916
C32   C     C_R   0.110257 0.110065 0.389909 0.781593
C33   C     C_R   0.746003 0.959768 0.364754 -0.141906
C34   C     C_R   0.084770 0.677357 0.164435 -0.124561
C35   C     C_R   0.915301 0.323135 0.835684 -0.124332
C36   C     C_R   0.675956 0.163931 0.083019 -0.123503
C37   C     C_R   0.324060 0.836052 0.917016 -0.123479
C38   C     C_R   0.164031 0.082839 0.676747 -0.123880
C39   C     C_R   0.835979 0.917457 0.323403 -0.123788
C40   C     C_R   0.174334 0.668545 0.135037 -0.112055
C41   C     C_R   0.825888 0.331479 0.865034 -0.111996
C42   C     C_R   0.668878 0.134355 0.172089 -0.112468
C43   C     C_R   0.889746 0.889933 0.610091 0.781588
C44   C     C_R   0.331200 0.865674 0.827918 -0.112412
C45   C     C_R   0.134044 0.172359 0.668520 -0.112263
C46   C     C_R   0.866057 0.827954 0.331532 -0.112259
C47   C     C_R   0.988339 0.590971 0.464767 -0.275318
C48   C     C_R   0.011718 0.409021 0.535236 -0.275261
C49   C     C_R   0.591080 0.464612 0.987888 -0.275320
C50   C     C_R   0.408933 0.535377 0.012070 -0.275525
C51   C     C_R   0.464509 0.987663 0.591165 -0.270870
C52   C     C_R   0.535491 0.012404 0.408828 -0.270824
C53   C     C_R   0.944435 0.552465 0.555086 -0.048755
C54   C     C_R   0.110146 0.389924 0.110175 0.784150
C55   C     C_R   0.055622 0.447526 0.444918 -0.048782
C56   C     C_R   0.552440 0.555093 0.944544 -0.049341
C57   C     C_R   0.447568 0.444900 0.055430 -0.049383
C58   C     C_R   0.555072 0.944451 0.552452 -0.050407
C59   C     C_R   0.444927 0.055603 0.447543 -0.050401
C60   C     C_R   0.956130 0.460252 0.590805 -0.011717
C61   C     C_R   0.043955 0.539733 0.409202 -0.011648
C62   C     C_R   0.460108 0.590950 0.956691 -0.011918
C63   C     C_R   0.539903 0.409042 0.043276 -0.011928
C64   C     C_R   0.591031 0.956830 0.460031 -0.012252
C65   C     C_R   0.889841 0.610075 0.889838 0.784146
C66   C     C_R   0.408973 0.043260 0.539955 -0.012245
C67   C     C_R   0.110913 0.390413 0.389747 0.783887
C68   C     C_R   0.889102 0.609586 0.610253 0.783939
C69   C     C_R   0.390428 0.389757 0.110820 0.782946
C70   C     C_R   0.609573 0.610242 0.889175 0.782985
C71   C     C_R   0.389760 0.110889 0.390423 0.786258
C72   C     C_R   0.610238 0.889127 0.609576 0.786247
C73   C     C_R   0.178285 0.929110 0.394287 -0.145260
C74   C     C_R   0.821711 0.070896 0.605693 -0.145259
C75   C     C_R   0.927815 0.398154 0.179748 -0.145906
C76   C     C_R   0.221374 0.618153 0.195274 -0.123074
C77   C     C_R   0.072219 0.601720 0.820217 -0.145881
C78   C     C_R   0.450428 0.188381 0.919206 -0.145869
C79   C     C_R   0.549560 0.811621 0.080792 -0.145857
C80   C     C_R   0.211940 0.841640 0.395578 -0.145970
C81   C     C_R   0.788050 0.158373 0.604387 -0.145983
C82   C     C_R   0.839608 0.401313 0.214253 -0.144133
C83   C     C_R   0.160452 0.598500 0.785690 -0.144114
C84   C     C_R   0.478924 0.227205 0.826494 -0.142491
C85   C     C_R   0.521057 0.772797 0.173504 -0.142482
C86   C     C_R   0.158380 0.788161 0.449142 -0.152911
C87   C     C_R   0.778968 0.381376 0.804723 -0.123206
C88   C     C_R   0.841610 0.211851 0.550822 -0.152906
C89   C     C_R   0.786147 0.454603 0.160648 -0.150561
C90   C     C_R   0.213888 0.545261 0.839316 -0.150563
C91   C     C_R   0.532161 0.173621 0.772846 -0.155291
C92   C     C_R   0.467825 0.826382 0.227151 -0.155295
C93   C     C_R   0.070810 0.821913 0.501587 -0.153837
C94   C     C_R   0.929186 0.178092 0.498392 -0.153827
C95   C     C_R   0.820612 0.505023 0.072258 -0.149171
C96   C     C_R   0.179387 0.494935 0.927739 -0.149154
C97   C     C_R   0.557418 0.080907 0.811597 -0.148710
C98   C     C_R   0.620187 0.194599 0.219083 -0.124270
C99   C     C_R   0.442578 0.919095 0.188401 -0.148718
C100  C     C_R   0.034499 0.911084 0.500544 0.072896
C101  C     C_R   0.965500 0.088916 0.499446 0.072892
C102  C     C_R   0.910385 0.502315 0.035263 0.073331
C103  C     C_R   0.089607 0.497664 0.964739 0.073367
C104  C     C_R   0.529193 0.039871 0.905637 0.073864
C105  C     C_R   0.470804 0.960131 0.094361 0.073864
C106  C     C_R   0.089052 0.965448 0.446188 0.071770
C107  C     C_R   0.910948 0.034553 0.553802 0.071774
C108  C     C_R   0.964774 0.448095 0.089791 0.071348
H1    H     H_    0.815041 0.280022 0.549423 0.129754
H2    H     H_    0.338575 0.563019 0.019966 0.173814
H3    H     H_    0.436784 0.979566 0.661600 0.174175
H4    H     H_    0.563222 0.020506 0.338391 0.174203
H5    H     H_    0.223277 0.967340 0.352682 0.127081
H6    H     H_    0.776719 0.032665 0.647299 0.127071
H7    H     H_    0.966170 0.356706 0.224633 0.126983
H8    H     H_    0.033876 0.643133 0.775323 0.126903
H9    H     H_    0.408996 0.232777 0.958216 0.114369
H10   H     H_    0.590990 0.767226 0.041782 0.114368
H11   H     H_    0.280066 0.815051 0.355268 0.133775
H12   H     H_    0.184945 0.719995 0.450528 0.129767
H13   H     H_    0.719918 0.184968 0.644686 0.133761
H14   H     H_    0.812492 0.362640 0.283077 0.133710
H15   H     H_    0.187609 0.637081 0.716831 0.133690
H16   H     H_    0.459486 0.299197 0.796174 0.127285
H17   H     H_    0.540487 0.700806 0.203824 0.127290
H18   H     H_    0.207170 0.700592 0.065523 0.127621
H19   H     H_    0.793070 0.299453 0.934566 0.127594
H20   H     H_    0.700932 0.064709 0.204603 0.127490
H21   H     H_    0.299171 0.935333 0.795413 0.127433
H22   H     H_    0.064320 0.204956 0.700357 0.127562
H23   H     H_    0.282584 0.542465 0.812156 0.127538
H24   H     H_    0.935814 0.795405 0.299740 0.127495
H25   H     H_    0.290857 0.611037 0.172344 0.121088
H26   H     H_    0.709601 0.388130 0.827613 0.121065
H27   H     H_    0.614344 0.171560 0.288192 0.120808
H28   H     H_    0.385821 0.828540 0.711751 0.120824
H29   H     H_    0.170611 0.289132 0.612253 0.121588
H30   H     H_    0.829605 0.711147 0.387583 0.121538
H31   H     H_    0.215800 0.537276 0.331256 0.102910
H32   H     H_    0.784599 0.461842 0.668659 0.103233
H33   H     H_    0.540658 0.330751 0.213942 0.103600
H34   H     H_    0.717467 0.457358 0.187795 0.127534
H35   H     H_    0.459455 0.669321 0.785981 0.103586
H36   H     H_    0.329950 0.214731 0.538875 0.104546
H37   H     H_    0.670205 0.785435 0.460875 0.104590
H38   H     H_    0.972864 0.642269 0.276058 0.116339
H39   H     H_    0.027061 0.358545 0.724059 0.116274
H40   H     H_    0.639492 0.275899 0.971970 0.116145
H41   H     H_    0.360454 0.724034 0.028074 0.116203
H42   H     H_    0.276363 0.971364 0.641320 0.115728
H43   H     H_    0.723540 0.028849 0.358883 0.115693
H44   H     H_    0.048543 0.716176 0.117677 0.132397
H45   H     H_    0.446066 0.795993 0.299137 0.123787
H46   H     H_    0.951432 0.284712 0.882499 0.132370
H47   H     H_    0.713431 0.117175 0.046830 0.132259
H48   H     H_    0.286559 0.882782 0.953237 0.132259
H49   H     H_    0.117513 0.046391 0.714900 0.132525
H50   H     H_    0.882458 0.953940 0.285369 0.132518
H51   H     H_    0.032472 0.777025 0.543205 0.127865
H52   H     H_    0.967525 0.222979 0.456772 0.127867
H53   H     H_    0.775843 0.546419 0.033785 0.125587
H54   H     H_    0.224138 0.453576 0.966229 0.125615
H55   H     H_    0.598958 0.041955 0.767146 0.110964
H56   H     H_    0.553914 0.204010 0.700861 0.123779
H57   H     H_    0.401040 0.958046 0.232852 0.110973
H58   H     H_    0.980752 0.661251 0.437270 0.173441
H59   H     H_    0.019300 0.338742 0.562735 0.173498
H60   H     H_    0.661440 0.436970 0.979986 0.173778
O1    O     O_3   0.250000 0.250000 0.250000 -0.486916
O2    O     O_R   0.865800 0.694910 0.573470 -0.642607
O3    O     O_R   0.305090 0.426530 0.134200 -0.642096
O4    O     O_R   0.694910 0.573470 0.865800 -0.642069
O5    O     O_R   0.426530 0.134200 0.305090 -0.640423
O6    O     O_R   0.573470 0.865800 0.694910 -0.640421
O7    O     O_R   0.134190 0.426530 0.134200 -0.638821
O8    O     O_R   0.865810 0.573470 0.865800 -0.638898
O9    O     O_R   0.426530 0.134200 0.134190 -0.636749
O10   O     O_R   0.573470 0.865800 0.865810 -0.636745
O11   O     O_R   0.134200 0.134190 0.426530 -0.638304
O12   O     O_3   0.750000 0.750000 0.750000 -0.486913
O13   O     O_R   0.865800 0.865810 0.573470 -0.638321
O14   O     O_R   0.426530 0.305080 0.134210 -0.631564
O15   O     O_R   0.573470 0.694920 0.865790 -0.631557
O16   O     O_R   0.305080 0.134210 0.426530 -0.630958
O17   O     O_R   0.694920 0.865790 0.573470 -0.630927
O18   O     O_R   0.134210 0.426530 0.305080 -0.630541
O19   O     O_R   0.865790 0.573470 0.694920 -0.630547
O20   O     O_R   0.305080 0.134200 0.134200 -0.636163
O21   O     O_R   0.694920 0.865800 0.865800 -0.636165
O22   O     O_R   0.134200 0.134200 0.305080 -0.639441
O23   O     O_R   0.865800 0.865800 0.694920 -0.639412
O24   O     O_R   0.134200 0.305080 0.134200 -0.636326
O25   O     O_R   0.865800 0.694920 0.865800 -0.636275
O26   O     O_R   0.134200 0.305090 0.426530 -0.642599
Zn1   Zn    Zn3+2 0.206620 0.206630 0.380140 0.963766
Zn2   Zn    Zn3+2 0.793380 0.793370 0.619860 0.963763
Zn3   Zn    Zn3+2 0.206630 0.380140 0.206620 0.963853
Zn4   Zn    Zn3+2 0.793370 0.619860 0.793380 0.963811
Zn5   Zn    Zn3+2 0.380140 0.206620 0.206630 0.965905
Zn6   Zn    Zn3+2 0.619860 0.793380 0.793370 0.965924
Zn7   Zn    Zn3+2 0.206620 0.206620 0.206620 0.959585
Zn8   Zn    Zn3+2 0.793380 0.793380 0.793380 0.959611

loop_
_geom_bond_atom_site_label_1
_geom_bond_atom_site_label_2
_ccdc_geom_bond_type
C25   C31   A    
C48   C55   A    
O2    Zn2   S    
C101  C107  A    
C84   H16   S    
C49   C63   A    
O5    Zn5   S    
C41   H19   S    
C36   C42   A    
C1    C11   S    
C35   H46   S    
C58   C72   S    
C29   H40   S    
O1    Zn1   S    
O11   Zn1   S    
C9    C108  A    
C29   C36   A    
C33   C39   A    
C82   C89   A    
C54   O24   A    
C34   C40   A    
C23   C29   A    
O1    Zn3   S    
C86   C93   A    
O12   Zn8   S    
C10   C104  A    
C42   C98   A    
C59   C66   A    
C22   C60   S    
C13   C46   A    
C52   H4    S    
C89   H34   S    
C74   H6    S    
C79   H10   S    
C4    C104  A    
O20   Zn7   S    
C50   H2    S    
C73   H5    S    
C19   C26   A    
C69   O3    A    
C20   C61   S    
C93   H51   S    
C53   C68   S    
C70   O4    A    
O7    Zn3   S    
C38   C45   A    
C80   C86   A    
C74   C107  A    
C25   C66   S    
C68   O2    A    
C85   C92   A    
C15   C22   A    
C75   C82   A    
C94   C101  A    
C2    C44   A    
C97   H55   S    
C11   C105  A    
C24   C62   S    
O24   Zn7   S    
O18   Zn3   S    
O4    Zn4   S    
C92   H45   S    
O23   Zn8   S    
C72   O6    A    
C5    C79   A    
C77   H8    S    
O12   Zn2   S    
C95   C102  A    
C42   H20   S    
C69   O14   A    
O1    Zn5   S    
C23   C63   S    
O26   Zn1   S    
C80   H11   S    
C43   O23   A    
C8    C65   S    
C27   C34   A    
C94   H52   S    
C22   C28   A    
C71   O5    A    
C2    C17   A    
C87   H26   S    
C18   C25   A    
C1    O9    A    
C41   C87   A    
C53   C60   A    
C48   C60   A    
C65   O25   A    
C10   C21   S    
C58   C64   A    
C99   C105  A    
C88   C94   A    
C17   C24   A    
C13   C19   A    
O19   Zn4   S    
C97   C104  A    
C14   C20   A    
C78   H9    S    
C28   C35   A    
C49   H60   S    
C3    C8    A    
C52   C64   A    
C31   H42   S    
C34   H44   S    
C30   H41   S    
C5    C105  A    
C44   H21   S    
C98   H27   S    
C43   O13   A    
C2    H28   S    
O25   Zn8   S    
C40   C76   A    
C30   C37   A    
C81   H13   S    
C51   C66   A    
C14   C76   A    
C54   O7    A    
C89   C95   A    
C4    C78   A    
O12   Zn6   S    
C52   C59   A    
C26   C33   A    
C21   O21   A    
C6    C107  A    
C40   H18   S    
C7    C106  A    
C32   O22   A    
C32   O11   A    
C51   C58   A    
C19   H37   S    
C91   C97   A    
C4    C11   A    
C102  C108  A    
C93   C100  A    
C39   C46   A    
C90   H23   S    
C21   O10   A    
C84   C91   A    
C37   H48   S    
C16   C23   A    
C56   C70   S    
C6    C43   S    
C39   H50   S    
C33   H43   S    
C50   C62   A    
C56   C62   A    
C91   H56   S    
C75   H7    S    
C88   H1    S    
C74   C81   A    
C67   O26   A    
C79   C85   A    
C15   C87   A    
C15   H32   S    
C75   C108  A    
C1    O20   A    
C3    C103  A    
C47   H58   S    
C83   C90   A    
O10   Zn6   S    
C28   H39   S    
C51   H3    S    
C7    C32   S    
C85   H17   S    
C50   C57   A    
C100  C106  A    
C71   O16   A    
O14   Zn5   S    
C57   C63   A    
O8    Zn4   S    
C12   C45   A    
C47   C61   A    
C55   C67   S    
C76   H25   S    
C67   O18   A    
O22   Zn7   S    
C90   C96   A    
C20   C27   A    
C26   C64   S    
O21   Zn8   S    
O13   Zn2   S    
O16   Zn1   S    
O6    Zn6   S    
O15   Zn6   S    
C31   C38   A    
C47   C53   A    
C17   H35   S    
C57   C69   S    
C13   H30   S    
C38   H49   S    
C37   C44   A    
C95   H53   S    
C16   H33   S    
C6    C100  A    
C5    C10   A    
C65   O8    A    
C49   C56   A    
C46   H24   S    
C16   C98   A    
C73   C106  A    
C48   H59   S    
C27   H38   S    
C55   C61   A    
C18   H36   S    
C9    C103  A    
C73   C80   A    
C96   H54   S    
C35   C41   A    
C24   C30   A    
C72   O17   A    
C81   C88   A    
O12   Zn4   S    
O9    Zn5   S    
O1    Zn7   S    
C68   O19   A    
C78   C84   A    
C70   O15   A    
C45   H22   S    
C14   H31   S    
C36   H47   S    
O3    Zn3   S    
C7    C101  A    
C96   C103  A    
C12   C18   A    
C77   C83   A    
C12   H29   S    
C86   H12   S    
C9    C54   S    
O17   Zn2   S    
C83   H15   S    
C8    C102  A    
C82   H14   S    
C92   C99   A    
C59   C71   S    
C99   H57   S    
C3    C77   A    
