data_mof_unit_46595.cif
_audit_creation_date              2012-12-11T14:08:22-0500
_audit_creation_method            fapswitch 2.2
_symmetry_space_group_name_H-M    P1
_symmetry_Int_Tables_number       1
_space_group_crystal_system       triclinic
_cell_length_a                    11.039696
_cell_length_b                    11.099584
_cell_length_c                    18.723382
_cell_angle_alpha                 89.918239
_cell_angle_beta                  89.588168
_cell_angle_gamma                 59.187991
_cell_volume                      1970.39824148

loop_
_atom_site_label
_atom_site_type_symbol
_atom_type_description
_atom_site_fract_x
_atom_site_fract_y
_atom_site_fract_z
_atom_type_partial_charge
C1    C     C_R   0.236903 0.646110 0.608731 0.528078
C2    C     C_2   0.804645 0.094628 0.693719 -0.109438
C3    C     C_2   0.184089 0.665333 0.682106 -0.101308
C4    C     C_R   0.654650 0.621587 0.601337 0.536929
C5    C     C_2   0.195565 0.665217 0.839861 -0.036342
C6    C     C_2   0.204382 0.559538 0.801523 0.046127
C7    C     C_2   0.218432 0.553063 0.723156 -0.045647
C8    C     C_2   0.650749 0.647434 0.317727 -0.027537
C9    C     C_2   0.631339 0.665665 0.158623 0.374884
C10   C     C_2   0.708308 0.548677 0.196383 -0.121299
C11   C     C_2   0.684726 0.540569 0.272279 -0.103178
C12   C     C_3   0.756587 0.533777 0.798631 0.549595
C13   C     C_2   0.633120 0.200221 0.318425 -0.148262
C14   C     C_2   0.635201 0.201390 0.163723 -0.064603
C15   C     C_2   0.520105 0.234627 0.201862 0.357778
C16   C     C_R   0.635465 0.214186 0.595373 0.557052
C17   C     C_2   0.516695 0.263811 0.277326 -0.108929
C18   C     C_2   0.119923 0.684537 0.346282 0.355249
C19   C     C_2   0.114509 0.690154 0.190286 -0.025137
C20   C     C_2   0.043123 0.802720 0.233504 -0.101205
C21   C     C_2   0.080386 0.798880 0.307625 -0.124210
C22   C     C_R   0.726017 0.049912 0.889386 0.511989
C23   C     C_3   0.720964 0.688326 0.808312 -0.007074
C24   C     C_R   0.753319 0.709302 0.882472 0.585774
C25   C     C_R   0.119407 0.706395 0.907857 0.555257
C26   C     C_R   0.672349 0.113442 0.101269 0.588305
C27   C     C_R   0.691885 0.688862 0.094585 0.598716
C28   C     C_R   0.216067 0.652041 0.404736 0.559496
C29   C     C_R   0.086115 0.713184 0.115073 0.554916
C30   C     C_R   0.641807 0.621755 0.392911 0.537129
C31   C     C_R   0.614276 0.234812 0.393366 0.538764
C32   C     C_3   0.564921 0.791084 0.788911 -0.294536
C33   C     C_3   0.534510 0.761149 0.713036 0.042844
C34   C     C_3   0.679556 0.649443 0.675024 -0.106917
C35   C     C_3   0.810633 0.720779 0.756433 0.198377
C36   C     C_3   0.780761 0.705890 0.677691 -0.182788
C37   C     C_3   0.749949 0.503271 0.718374 0.142704
C38   C     C_2   0.696372 0.112027 0.654241 -0.092708
C39   C     C_2   0.708742 0.106842 0.816798 0.285029
C40   C     C_2   0.818204 0.051324 0.769717 -0.137648
Cr1   Cr    Cr6+3 0.393010 0.398050 0.501480 1.089860
Cr2   Cr    Cr6+3 0.398820 0.707980 0.501630 1.092920
Cr3   Cr    Cr6+3 0.708140 0.393940 0.496850 1.103998
Cr4   Cr    Cr6+3 0.937950 0.938450 0.008940 1.068205
Cr5   Cr    Cr6+3 0.626180 0.937030 0.994750 1.143758
Cr6   Cr    Cr6+3 0.937790 0.625760 0.001410 1.128240
F1    F     F_    0.949510 0.630380 0.769917 -0.620673
F2    F     F_    0.507321 0.772985 0.184835 -0.612816
F3    F     F_    0.410089 0.227836 0.174136 -0.567443
F4    F     F_    0.088635 0.585986 0.325296 -0.628841
F5    F     F_    0.893393 0.443061 0.821720 -0.504190
H1    H     H_    0.547337 0.898780 0.793426 0.197484
H2    H     H_    0.138155 0.769361 0.705330 0.118115
H3    H     H_    0.801177 0.458811 0.173254 0.126301
H4    H     H_    0.711470 0.437898 0.292362 0.137419
H5    H     H_    0.624793 0.750935 0.299763 0.166059
H6    H     H_    0.412713 0.332088 0.300496 0.202375
H7    H     H_    0.716145 0.218944 0.185318 0.035416
H8    H     H_    0.738378 0.131700 0.296979 0.081359
H9    H     H_    0.968218 0.905484 0.212054 0.138111
H10   H     H_    0.469962 0.710790 0.717988 0.155502
H11   H     H_    0.094338 0.883471 0.326561 0.126847
H12   H     H_    0.879609 0.636764 0.647771 0.217758
H13   H     H_    0.192005 0.586590 0.209528 0.171432
H14   H     H_    0.788843 0.828636 0.765783 0.070629
H15   H     H_    0.735225 0.808918 0.651224 0.133139
H16   H     H_    0.678339 0.462719 0.712125 0.153932
H17   H     H_    0.138576 0.315740 0.676880 0.394968
H18   H     H_    0.478786 0.374334 0.699403 0.341705
H19   H     H_    0.486733 0.954451 0.563294 0.362304
H20   H     H_    0.806468 0.308447 0.904170 0.377590
H21   H     H_    0.922469 0.972523 0.787978 0.107490
H22   H     H_    0.879508 0.119362 0.671701 0.231366
H23   H     H_    0.633255 0.070636 0.674734 0.206223
H24   H     H_    0.185671 0.482206 0.826736 0.244933
H25   H     H_    0.254804 0.451836 0.698520 0.188545
H26   H     H_    0.222455 0.737783 0.815926 0.124021
H27   H     H_    0.490076 0.786790 0.827334 0.199616
O1    O     O_R   0.507110 0.256280 0.580300 -0.485614
O2    O     O_R   0.837080 0.593860 0.915300 -0.375390
O3    O     O_R   0.064770 0.636080 0.932550 -0.486796
O4    O     O_R   0.280830 0.527190 0.577940 -0.508332
O5    O     O_R   0.068250 0.829200 0.092940 -0.494679
O6    O     O_R   0.799650 0.057040 0.080330 -0.523108
O7    O     O_R   0.586130 0.079760 0.077080 -0.408389
O8    O     O_R   0.627700 0.809630 0.066580 -0.438591
O9    O     O_R   0.816140 0.597180 0.075920 -0.539935
O10   O     O_R   0.045360 0.639170 0.081440 -0.477652
O11   O     O_3   0.833980 0.833750 0.001700 -0.344818
O12   O     O_R   0.524640 0.695370 0.425100 -0.493849
O13   O     O_R   0.261360 0.738990 0.584270 -0.455377
O14   O     O_R   0.532590 0.694780 0.574370 -0.469000
O15   O     O_R   0.744470 0.503750 0.577000 -0.452023
O16   O     O_R   0.698520 0.277230 0.571620 -0.469284
O17   O     O_R   0.498530 0.256920 0.419280 -0.496527
O18   O     O_R   0.272880 0.527780 0.428680 -0.460423
O19   O     O_R   0.252780 0.739630 0.423250 -0.542876
O20   O     O_2   0.975618 0.238253 0.744246 -0.193935
O21   O     O_2   0.933494 0.286663 0.619188 -0.267346
O22   O     O_3   0.047916 0.402833 0.687390 -0.450482
O23   O     O_R   0.735890 0.504390 0.415980 -0.495125
O24   O     O_2   0.448736 0.194146 0.766642 -0.293373
O25   O     O_2   0.466447 0.332054 0.862258 -0.174755
O26   O     O_3   0.550138 0.354009 0.735875 -0.516670
O27   O     O_2   0.305146 0.925097 0.628386 -0.234377
O28   O     O_2   0.344361 0.043913 0.723390 -0.193678
O29   O     O_3   0.506292 0.976033 0.611656 -0.552930
O30   O     O_2   0.613861 0.570119 0.927367 -0.268162
O31   O     O_2   0.505013 0.548338 0.820913 -0.297154
O32   O     O_3   0.730159 0.326271 0.870595 -0.423831
O33   O     O_R   0.690560 0.277820 0.422350 -0.507855
O34   O     O_3   0.499990 0.499990 0.499980 -0.295436
O35   O     O_R   0.089190 0.825870 0.932320 -0.504318
O36   O     O_R   0.819070 0.053960 0.931440 -0.486570
O37   O     O_R   0.607070 0.076440 0.916460 -0.450832
O38   O     O_R   0.647110 0.806550 0.917690 -0.529350
S1    S     S_3+6 0.927541 0.353477 0.689797 0.117526
S2    S     S_3+6 0.537154 0.249147 0.795768 0.066941
S3    S     S_3+6 0.419060 0.929787 0.668792 0.024226
S4    S     S_3+6 0.644257 0.498979 0.855756 0.080269

loop_
_geom_bond_atom_site_label_1
_geom_bond_atom_site_label_2
_ccdc_geom_bond_type
C28   O19   A    
O28   S3    D    
C34   C37   S    
O30   S4    D    
C35   C36   S    
C30   O12   A    
Cr4   O5    S    
C35   F1    S    
C8    H5    S    
Cr3   O23   S    
C6    H24   S    
Cr6   O11   S    
C12   C23   S    
C9    C27   S    
C29   O5    A    
C3    C7    D    
H19   O29   S    
C8    C11   D    
C5    C6    D    
C36   H15   S    
Cr1   O18   S    
C35   H14   S    
C18   C21   D    
H20   O32   S    
Cr3   O16   S    
Cr2   O13   S    
C12   C37   S    
Cr2   O34   S    
C32   H1    S    
C29   O10   A    
C12   S4    S    
C24   O2    A    
C19   C20   D    
Cr1   O34   S    
C23   C24   S    
C20   H9    S    
C36   H12   S    
Cr5   O11   S    
C9    C10   D    
Cr6   O10   S    
O24   S2    D    
Cr4   O36   S    
C1    O13   A    
C25   O3    A    
Cr3   O33   S    
O29   S3    S    
O26   S2    S    
C14   H7    S    
C4    C34   S    
C18   C28   S    
Cr2   O19   S    
O32   S4    S    
C39   C40   D    
C1    O4    A    
C1    C3    S    
C27   O8    A    
Cr5   O7    S    
H17   O22   S    
C25   O35   A    
O21   S1    D    
Cr6   O3    S    
C2    C38   D    
C19   H13   S    
C33   C34   S    
C14   C26   S    
C27   O9    A    
C21   H11   S    
C7    H25   S    
C2    H22   S    
C5    C25   S    
C22   O37   A    
Cr4   O35   S    
C24   O38   A    
C23   C35   S    
O25   S2    D    
Cr3   O34   S    
C5    H26   S    
C19   C29   S    
C12   F5    S    
C11   H4    S    
C18   F4    S    
O20   S1    D    
Cr6   O9    S    
C38   H23   S    
H18   O26   S    
C15   C17   S    
C26   O6    A    
C40   H21   S    
Cr2   O14   S    
C13   C31   S    
Cr5   O37   S    
Cr4   O6    S    
Cr1   O1    S    
C33   S3    S    
C6    C7    S    
C13   H8    S    
C39   S2    S    
C16   O16   A    
C13   C17   D    
C28   O18   A    
C16   O1    A    
C8    C30   S    
C23   C32   S    
Cr5   O8    S    
Cr1   O4    S    
C32   C33   S    
Cr6   O2    S    
C3    H2    S    
Cr5   O38   S    
Cr1   O17   S    
C26   O7    A    
C31   O17   A    
C22   C39   S    
C37   H16   S    
C30   O23   A    
Cr3   O15   S    
C34   C36   S    
C15   F3    S    
C10   H3    S    
C10   C11   S    
C32   H27   S    
C4    O15   A    
C2    C40   S    
C22   O36   A    
C37   S1    S    
C20   C21   S    
C9    F2    S    
C33   H10   S    
C16   C38   S    
C31   O33   A    
C14   C15   D    
O27   S3    D    
O22   S1    S    
Cr2   O12   S    
Cr4   O11   S    
O31   S4    D    
C17   H6    S    
C4    O14   A    
