data_mof_unit_66772.cif
_audit_creation_date              2013-03-05T15:40:49-0500
_audit_creation_method            fapswitch 2.2
_symmetry_space_group_name_H-M    P1
_symmetry_Int_Tables_number       1
_space_group_crystal_system       triclinic
_cell_length_a                    8.791102
_cell_length_b                    13.477152
_cell_length_c                    14.878394
_cell_angle_alpha                 97.099483
_cell_angle_beta                  97.901503
_cell_angle_gamma                 98.0404
_cell_volume                      1710.44822135

loop_
_atom_site_label
_atom_site_type_symbol
_atom_site_description
_atom_site_fract_x
_atom_site_fract_y
_atom_site_fract_z
_atom_type_partial_charge
P1    P     P_3+3 0.998660 0.747790 0.570900 0.487204
O1    O     O_2   0.168170 0.764170 0.543850 -0.370761
O2    O     O_3   0.898670 0.629780 0.545890 -0.398105
O3    O     O_3   0.365980 0.695510 0.380810 -0.372506
O4    O     O_2   0.328228 0.880811 0.439490 -0.272954
O5    O     O_3   0.042716 0.771951 0.690465 -0.575978
O6    O     O_3   0.445997 0.856406 0.287598 -0.449389
H1    H     H_    0.429310 0.717867 0.202691 0.129153
C1    C     C_3   0.568796 0.831118 0.147829 0.085334
H2    H     H_    0.599663 0.913195 0.162020 0.233225
P2    P     P_3+3 0.306970 0.411860 0.294270 0.511030
P3    P     P_3+3 0.831725 0.608889 0.221387 0.598719
O7    O     O_2   0.136040 0.444100 0.280280 -0.345816
O8    O     O_3   0.934510 0.640480 0.335500 -0.284137
O9    O     O_2   0.904696 0.520459 0.178039 -0.236267
O10   O     O_3   0.257195 0.294568 0.227234 -0.608258
O11   O     O_3   0.867229 0.699866 0.149322 -0.625038
C2    C     C_3   0.984196 0.781244 0.183261 0.900736
C3    C     C_3   0.023116 0.828149 0.097160 -0.189233
H3    H     H_    0.124235 0.886540 0.109369 0.212138
H4    H     H_    0.053923 0.767446 0.049777 0.245315
C4    C     C_3   0.799172 0.290145 0.250499 0.318043
H5    H     H_    0.923719 0.319756 0.268360 0.159100
C5    C     C_3   0.760571 0.250024 0.141101 0.744749
Ba1   Ba    Ba6+2 0.153570 0.551840 0.456200 1.689114
C6    C     C_3   0.113634 0.694579 0.724544 0.279255
H6    H     H_    0.201261 0.670111 0.683068 0.117470
H7    H     H_    0.023564 0.628671 0.726877 0.124501
C7    C     C_3   0.196140 0.735912 0.821197 -0.622301
H8    H     H_    0.291782 0.798347 0.819018 0.251114
H9    H     H_    0.245349 0.675616 0.853676 0.235592
H10   H     H_    0.113533 0.766036 0.863471 0.285204
C8    C     C_3   0.274970 0.210654 0.268821 0.848770
C9    C     C_3   0.438780 0.190674 0.265555 0.042635
H11   H     H_    0.477585 0.207487 0.202354 0.158761
H12   H     H_    0.509910 0.242643 0.320956 0.126792
P4    P     P_3+3 0.811620 0.252200 0.429030 0.599217
O12   O     O_2   0.642110 0.235770 0.456130 -0.348485
O13   O     O_3   0.911620 0.370210 0.454030 -0.369740
O14   O     O_3   0.444310 0.304480 0.619110 -0.343886
O15   O     O_3   0.769881 0.214438 0.306616 -0.487024
P5    P     P_3+3 0.926126 0.386572 0.782348 0.575232
O16   O     O_3   0.400800 0.556680 0.607590 -0.422316
O17   O     O_3   0.875770 0.359510 0.664420 -0.396215
O18   O     O_2   0.802102 0.447425 0.813605 -0.261702
O19   O     O_3   0.876925 0.272861 0.824509 -0.421053
Ba2   Ba    Ba6+2 0.656590 0.448150 0.543720 1.663210
P6    P     P_3+3 0.450615 0.824522 0.399376 0.574356
C10   C     C_3   0.510565 0.786950 0.230198 0.209275
H13   H     H_    0.604390 0.759782 0.270031 0.077641
H14   H     H_    0.675360 0.801634 0.138039 0.120894
O20   O     O_3   0.409490 0.443300 0.392340 -0.383726
C11   C     C_3   0.591110 0.763034 0.688892 0.428433
H15   H     H_    0.708106 0.743302 0.682226 0.102730
H16   H     H_    0.513355 0.743328 0.621525 0.073690
C12   C     C_3   0.608307 0.876820 0.717602 -0.950291
H17   H     H_    0.678373 0.898509 0.787090 0.295062
H18   H     H_    0.667288 0.917743 0.668483 0.207263
H19   H     H_    0.491765 0.899340 0.718654 0.262287
P7    P     P_3+3 0.502148 0.582703 0.722184 0.474319
O21   O     O_2   0.674250 0.555830 0.719690 -0.351215
O22   O     O_3   0.527456 0.713710 0.756177 -0.531539
C13   C     C_3   0.989170 0.211308 0.808155 0.383666
H20   H     H_    0.000213 0.200127 0.734132 0.034480
H21   H     H_    0.103502 0.245294 0.850141 0.022936
C14   C     C_3   0.939095 0.108062 0.835486 -0.783119
H22   H     H_    0.824551 0.073076 0.794813 0.247027
H23   H     H_    0.025821 0.057762 0.822202 0.204544
H24   H     H_    0.929131 0.116075 0.909547 0.316675
P8    P     P_3+3 0.374741 0.172643 0.609040 0.509047
C15   C     C_3   0.379732 0.151207 0.778649 0.389613
H25   H     H_    0.252240 0.141319 0.756276 -0.031871
O23   O     O_2   0.457857 0.123690 0.534668 -0.326264
O24   O     O_3   0.460935 0.127714 0.705801 -0.500761
H26   H     H_    0.422318 0.230708 0.811547 0.126246
H27   H     H_    0.357254 0.103826 0.910831 0.243319
C16   C     C_3   0.406833 0.079530 0.848487 -0.798202
H28   H     H_    0.533235 0.078810 0.867752 0.292790
H29   H     H_    0.348674 0.001550 0.818903 0.224388
C17   C     C_R   0.056658 0.183703 0.546617 -0.428066
C18   C     C_R   0.740937 0.823596 0.497733 -0.450831
C19   C     C_R   0.696607 0.990982 0.465611 -0.065029
C20   C     C_R   0.643488 0.885779 0.462887 0.221980
C21   C     C_R   0.897402 0.858081 0.530104 0.323904
C22   C     C_R   0.955296 0.968456 0.532575 -0.003895
C23   C     C_R   0.852367 0.036677 0.496158 -0.025223
C24   C     C_R   0.907984 0.147461 0.495726 0.304321
C25   C     C_R   0.161472 0.119069 0.574613 0.220750
C26   C     C_R   0.110446 0.013177 0.568287 -0.166164
H30   H     H_    0.614705 0.038043 0.445280 0.225399
H31   H     H_    0.193144 0.966023 0.591933 0.163194
H32   H     H_    0.099909 0.264053 0.554593 0.157526
H33   H     H_    0.694707 0.744092 0.493998 0.128401
C27   C     C_R   0.235457 0.467902 0.765861 -0.578986
C28   C     C_R   0.130151 0.451303 0.827072 0.041871
C29   C     C_R   0.179638 0.485420 0.921576 0.362561
C30   C     C_R   0.342433 0.509906 0.957369 -0.070329
C31   C     C_R   0.445324 0.524047 0.892528 -0.170047
C32   C     C_R   0.389561 0.513715 0.798637 0.284705
C33   C     C_R   0.556034 0.578585 0.095424 -0.099797
C34   C     C_R   0.620126 0.581931 0.188071 0.209872
C35   C     C_R   0.386048 0.493155 0.217365 0.427065
C36   C     C_R   0.328295 0.474580 0.122336 -0.112320
C37   C     C_R   0.406177 0.524679 0.059663 0.154384
C38   C     C_R   0.523983 0.557925 0.250305 -0.493625
H34   H     H_    0.630597 0.610011 0.051180 0.184726
H35   H     H_    0.224785 0.419940 0.097257 0.192709
H36   H     H_    0.568399 0.548859 0.913074 0.174238
H37   H     H_    0.570518 0.571850 0.322773 0.189700
H38   H     H_    0.193907 0.452868 0.692808 0.181772
Br1   Br    Br    0.695265 0.105467 0.106350 -0.332424
S1    S     S_3+6 0.624740 0.301631 0.064022 -0.029242
O25   O     O_2   0.676466 0.411842 0.069721 -0.258295
O26   O     O_2   0.633239 0.255109 0.968013 -0.249381
O27   O     O_3   0.437332 0.281557 0.077695 -0.600570
H39   H     H_    0.377263 0.284376 0.016882 0.354874
Br2   Br    Br    0.950033 0.281467 0.090944 -0.302033
S2    S     S_3+6 0.129395 0.117279 0.201409 0.072877
O28   O     O_2   0.140649 0.015624 0.224348 -0.237547
O29   O     O_2   0.981160 0.141448 0.227603 -0.244072
O30   O     O_3   0.128769 0.114508 0.087921 -0.454418
H40   H     H_    0.238669 0.117574 0.079120 0.380896
Br3   Br    Br    0.233219 0.222520 0.392617 -0.416730
S3    S     S_3+6 0.445841 0.799386 0.038037 -0.056209
O31   O     O_2   0.532515 0.750859 0.968933 -0.279874
O32   O     O_2   0.304784 0.726439 0.043387 -0.289994
O33   O     O_3   0.389841 0.903075 0.000192 -0.485332
H41   H     H_    0.479300 0.934393 0.974046 0.391528
S4    S     S_3+6 0.462565 0.065237 0.271646 0.038151
O34   O     O_2   0.626186 0.047869 0.292605 -0.214208
O35   O     O_2   0.373479 0.029282 0.343447 -0.195720
O36   O     O_3   0.391840 0.006121 0.165537 -0.495651
H42   H     H_    0.348274 0.937512 0.173278 0.406662
Br4   Br    Br    0.861601 0.873880 0.017881 -0.435355
Br5   Br    Br    0.159261 0.729673 0.229334 -0.310383
S5    S     S_3+6 0.037054 0.530598 0.981081 0.018029
O37   O     O_2   0.913044 0.444521 0.985583 -0.171343
O38   O     O_2   0.103350 0.580392 0.075464 -0.258825
O39   O     O_3   0.956559 0.615321 0.924014 -0.542683
H43   H     H_    0.862009 0.624832 0.951252 0.387582
S6    S     S_3+6 0.941452 0.864483 0.279894 0.012116
O40   O     O_2   0.845382 0.806042 0.335503 -0.370200
O41   O     O_2   0.086723 0.911208 0.344036 -0.147113
O42   O     O_3   0.849117 0.958131 0.251186 -0.444186
H44   H     H_    0.858860 0.961035 0.186692 0.393355
Br6   Br    Br    0.701515 0.398466 0.289318 -0.503195

loop_
_geom_bond_atom_site_label_1
_geom_bond_atom_site_label_2
_geom_bond_distance
_ccdc_geom_bond_type
O14   Ba2   2.931117 S    
C14   H23   1.110316 S    
C13   H21   1.112708 S    
C28   C29   1.412001 A    
C5    S1    1.810463 S    
P7    C32   1.857836 S    
P8    C25   1.888037 S    
Ba1   O16   2.894748 S    
S1    O26   1.503418 D    
O3    Ba1   2.931798 S    
C29   S5    1.763838 S    
C16   H28   1.110482 S    
C3    Br4   1.936837 S    
C5    Br2   1.932115 S    
P4    O12   1.589717 D    
O14   P8    1.777216 S    
S3    O32   1.488630 D    
C3    H4    1.100709 S    
C2    C3    1.554958 S    
C17   C24   1.406439 A    
S6    O41   1.493193 D    
C22   C23   1.476053 A    
C14   H24   1.110548 S    
P2    Ba1   3.415205 S    
O27   H39   0.990809 S    
C33   C37   1.410841 A    
C1    S3    1.797833 S    
C31   H36   1.076334 S    
C12   H17   1.110664 S    
C35   C38   1.381061 A    
P7    O22   1.749592 S    
C9    H11   1.082215 S    
P5    O19   1.748120 S    
S2    O28   1.465415 D    
P2    O20   1.581026 S    
C4    Br6   1.865564 S    
C9    S4    1.743958 S    
C12   H18   1.109474 S    
O36   H42   0.976896 S    
C1    H14   1.088153 S    
P3    O11   1.749378 S    
P8    O24   1.748516 S    
P4    Ba2   3.503666 S    
C1    H2    1.088286 S    
Ba1   Ba2   4.800277 S    
O17   Ba2   2.930463 S    
S4    O36   1.671641 S    
C16   H29   1.110454 S    
C14   H22   1.109781 S    
C13   C14   1.520869 S    
C8    S2    1.764085 S    
C17   C25   1.410688 A    
P1    Ba1   3.503143 S    
O7    Ba1   2.805355 S    
C35   C36   1.413881 A    
C5    Br1   1.936228 S    
P5    O17   1.729352 S    
S5    O39   1.681046 S    
S1    O25   1.479698 D    
C18   C20   1.375193 A    
C30   C31   1.422089 A    
P1    C21   1.953157 S    
C11   H16   1.112404 S    
C34   C38   1.374458 A    
O4    P6    1.543455 D    
P5    C28   1.873902 S    
O2    Ba1   3.006601 S    
C1    C10   1.544628 S    
H27   C16   1.110671 S    
O6    C10   1.418480 S    
S5    O38   1.481423 D    
S6    O42   1.660958 S    
C22   C26   1.413344 A    
C23   C24   1.505773 A    
S5    O37   1.491390 D    
C19   C23   1.408766 A    
C27   H38   1.082385 S    
P1    O5    1.747207 S    
P7    O21   1.608416 D    
P1    O2    1.677299 S    
P5    O18   1.540440 D    
C17   H32   1.082567 S    
C7    H8    1.110111 S    
O10   C8    1.371884 S    
C18   H33   1.083327 S    
P2    O10   1.726801 S    
P3    O9    1.544480 D    
C29   C30   1.433726 A    
P8    O23   1.539573 D    
O11   C2    1.385648 S    
O30   H40   0.988553 S    
C2    Br5   1.857009 S    
C21   C22   1.497571 A    
O12   Ba2   2.972810 S    
O16   P7    1.780698 S    
C6    C7    1.518737 S    
S3    O33   1.680167 S    
P3    O8    1.781079 S    
C10   H13   1.081370 S    
C6    H6    1.111038 S    
C4    C5    1.623602 S    
C26   H31   1.081827 S    
O33   H41   0.989862 S    
C15   C16   1.521202 S    
C18   C21   1.386963 A    
O13   Ba2   3.007577 S    
S4    O34   1.486594 D    
O3    P6    1.765188 S    
C11   C12   1.520675 S    
C38   H37   1.082748 S    
C33   H34   1.073434 S    
P2    C35   1.818911 S    
P4    C24   2.035820 S    
C2    S6    1.826084 S    
O42   H44   0.980091 S    
Ba2   O21   2.805512 S    
C15   O24   1.405606 S    
O39   H43   0.990522 S    
C12   H19   1.110061 S    
C11   H15   1.111972 S    
Ba2   O20   2.893890 S    
C7    H10   1.110288 S    
C6    H7    1.111570 S    
C19   H30   1.061819 S    
P6    C20   1.850539 S    
O19   C13   1.402202 S    
O6    P6    1.764973 S    
C3    H3    1.080319 S    
Ba1   O20   3.044515 S    
C15   H25   1.108799 S    
C7    H9    1.104059 S    
S6    O40   1.478277 D    
Ba1   O13   3.003710 S    
C15   H26   1.111530 S    
P2    O7    1.615279 D    
O5    C6    1.399559 S    
C27   C32   1.401533 A    
P1    O1    1.589394 D    
O2    Ba2   3.004387 S    
C33   C34   1.408389 A    
C8    C9    1.507696 S    
O1    Ba1   2.972320 S    
C9    H12   1.074273 S    
O8    Ba1   2.929797 S    
P4    O15   1.801596 S    
C27   C28   1.400253 A    
S2    O29   1.477566 D    
C30   C37   1.526257 S    
C13   H20   1.112455 S    
C4    O15   1.414457 S    
P3    C34   1.830545 S    
C25   C26   1.422272 A    
C11   O22   1.404155 S    
P4    O13   1.677325 S    
C31   C32   1.398468 A    
C36   C37   1.412797 A    
C8    Br3   1.918944 S    
C4    H5    1.095554 S    
C36   H35   1.077415 S    
C19   C20   1.423154 A    
O16   Ba2   3.043524 S    
H1    C10   1.088101 S    
S2    O30   1.683537 S    
S1    O27   1.676295 S    
S3    O31   1.501330 D    
S4    O35   1.497064 D    
