data_mof_unit_23508.cif
_audit_creation_date              2012-10-26T19:05:04-0400
_audit_creation_method            fapswitch 2.2
_symmetry_space_group_name_H-M    P1
_symmetry_Int_Tables_number       1
_space_group_crystal_system       triclinic
_cell_length_a                    15.870082
_cell_length_b                    10.856404
_cell_length_c                    9.680234
_cell_angle_alpha                 90.840199
_cell_angle_beta                  89.4381
_cell_angle_gamma                 94.27717
_cell_volume                      1662.93975412

loop_
_atom_site_label
_atom_site_type_symbol
_atom_type_description
_atom_site_fract_x
_atom_site_fract_y
_atom_site_fract_z
_atom_type_partial_charge
C1    C     C_R   0.505178 0.263444 0.499504 0.542554
C2    C     C_R   0.573918 0.070186 0.863308 -0.132873
C3    C     C_R   0.530645 0.954535 0.881139 0.074474
C4    C     C_R   0.340481 0.499493 0.500664 0.551473
C5    C     C_R   0.494865 0.892070 0.766344 -0.059925
C6    C     C_R   0.504122 0.941612 0.632857 -0.007265
C7    C     C_R   0.529877 0.067796 0.622182 0.031157
C8    C     C_R   0.509750 0.129625 0.500229 0.002395
C9    C     C_R   0.479808 0.061339 0.384776 -0.119611
C10   C     C_R   0.470815 0.933736 0.388824 -0.117211
C11   C     C_R   0.486671 0.871647 0.509870 -0.025544
C12   C     C_3   0.944625 0.375832 0.551014 -0.220255
C13   C     C_R   0.625888 0.639656 0.149870 -0.060676
C14   C     C_R   0.700329 0.682785 0.088403 -0.194465
C15   C     C_R   0.707115 0.679396 0.947527 -0.153750
C16   C     C_R   0.493892 0.737008 0.502234 0.541915
C17   C     C_R   0.635474 0.644233 0.865986 0.321603
C18   C     C_R   0.565379 0.568831 0.927160 0.154911
C19   C     C_R   0.563483 0.567594 0.076462 0.106377
C20   C     C_R   0.439779 0.435210 0.074414 0.006409
C21   C     C_R   0.439444 0.434390 0.927554 0.156817
C22   C     C_R   0.659460 0.500243 0.499366 0.546396
C23   C     C_3   0.916859 0.502154 0.500762 0.071849
C24   C     C_3   0.042174 0.377704 0.556748 -0.224377
C25   C     C_3   0.051144 0.521945 0.354324 -0.234735
C26   C     C_3   0.953084 0.517845 0.351737 -0.265497
C27   C     C_1   0.749135 0.501059 0.498385 -0.038208
C28   C     C_3   0.083008 0.502274 0.503332 0.026608
C29   C     C_2   0.523333 0.895480 0.017317 0.548940
C30   C     C_3   0.691452 0.785158 0.695142 -0.127406
C31   C     C_2   0.370184 0.360017 0.859871 0.598092
C32   C     C_3   0.909601 0.545409 0.811190 -0.119467
C33   C     C_3   0.957201 0.614028 0.588744 0.192627
C34   C     C_3   0.054465 0.607319 0.599486 -0.177129
C35   C     C_1   0.824712 0.501755 0.498885 -0.052202
C36   C     C_1   0.175200 0.501290 0.503124 -0.061270
C37   C     C_1   0.250772 0.500366 0.502194 -0.006636
C38   C     C_R   0.572473 0.127474 0.735395 -0.106943
Cu1   Cu    Cu3+1 0.499990 0.499990 0.640660 1.041297
Cu2   Cu    Cu3+1 0.500010 0.500010 0.359340 0.932653
H1    H     H_    0.920938 0.301372 0.477759 0.114975
H2    H     H_    0.390559 0.381667 0.130187 0.129386
H3    H     H_    0.063992 0.299974 0.492728 0.124641
H4    H     H_    0.619716 0.666420 0.255197 0.200294
H5    H     H_    0.750882 0.727318 0.149808 0.124760
H6    H     H_    0.765557 0.720228 0.904463 0.131689
H7    H     H_    0.078000 0.612692 0.315377 0.124630
H8    H     H_    0.073160 0.449072 0.283417 0.133959
H9    H     H_    0.928141 0.440032 0.283901 0.123893
H10   H     H_    0.932992 0.604150 0.305426 0.101985
H11   H     H_    0.074150 0.592286 0.707363 0.142484
H12   H     H_    0.062111 0.363065 0.664859 0.115258
H13   H     H_    0.086851 0.697263 0.568023 0.095839
H14   H     H_    0.466331 0.756338 0.129454 0.345445
H15   H     H_    0.752758 0.744304 0.676475 0.145419
H16   H     H_    0.697087 0.863383 0.770773 0.116712
H17   H     H_    0.672700 0.823474 0.595406 0.131389
H18   H     H_    0.246214 0.342617 0.813623 0.326421
H19   H     H_    0.966406 0.492059 0.815130 0.107020
H20   H     H_    0.851793 0.484408 0.789987 0.128970
H21   H     H_    0.901362 0.585678 0.916023 0.131184
H22   H     H_    0.916412 0.348728 0.652085 0.102189
H23   H     H_    0.949186 0.697164 0.525357 0.129094
H24   H     H_    0.462431 0.106435 0.291216 0.155559
H25   H     H_    0.605419 0.217849 0.726171 0.135378
H26   H     H_    0.605220 0.118679 0.949295 0.141277
H27   H     H_    0.457187 0.806932 0.783960 0.194344
H28   H     H_    0.448528 0.883722 0.298285 0.166517
N1    N     N_R   0.500800 0.501210 0.147910 -0.268059
N2    N     N_R   0.500820 0.501290 0.852040 -0.263450
O1    O     O_R   0.499990 0.319640 0.618810 -0.475340
O2    O     O_R   0.462564 0.796992 0.036870 -0.723697
O3    O     O_3   0.628381 0.693499 0.735684 -0.514668
O4    O     O_2   0.382533 0.259191 0.809162 -0.511651
O5    O     O_R   0.289041 0.402003 0.861910 -0.707611
O6    O     O_3   0.916777 0.642886 0.716119 -0.589185
O7    O     O_R   0.500000 0.319660 0.381240 -0.510127
O8    O     O_R   0.379430 0.499990 0.618840 -0.467786
O9    O     O_R   0.379440 0.500020 0.381260 -0.504559
O10   O     O_R   0.500000 0.680340 0.618760 -0.453752
O11   O     O_R   0.500010 0.680360 0.381190 -0.537320
O12   O     O_R   0.620560 0.499980 0.618740 -0.458863
O13   O     O_R   0.620570 0.500010 0.381160 -0.526386
O14   O     O_2   0.570518 0.930778 0.111234 -0.551359

loop_
_geom_bond_atom_site_label_1
_geom_bond_atom_site_label_2
_ccdc_geom_bond_type
C24   H12   S    
C18   N2    A    
C9    H24   S    
C1    O7    A    
C5    H27   S    
C7    C8    A    
C25   C28   S    
C21   C31   S    
C12   C23   S    
C34   H11   S    
C1    O1    A    
C22   O12   A    
C36   C37   T    
C32   H21   S    
C26   H10   S    
C5    C6    A    
C1    C8    S    
C30   H17   S    
C18   C19   A    
C23   C26   S    
C3    C29   S    
C7    C38   A    
C8    C9    A    
C23   C33   S    
C9    C10   A    
C25   H7    S    
C29   O2    S    
C28   C34   S    
C13   C14   A    
C17   O3    S    
Cu2   O13   S    
H18   O5    S    
C17   C18   A    
C14   H5    S    
Cu2   N1    S    
C13   C19   A    
Cu1   O8    S    
C4    O9    A    
C26   H9    S    
C6    C11   A    
C30   O3    S    
C31   O4    D    
C27   C35   T    
C25   C26   S    
C30   H16   S    
C16   O10   A    
C4    O8    A    
C12   H1    S    
C12   H22   S    
C11   C16   S    
C2    C38   A    
C33   O6    S    
C31   O5    S    
C38   H25   S    
C33   H23   S    
C33   C34   S    
Cu2   O9    S    
C4    C37   S    
C25   H8    S    
C29   O14   D    
C23   C35   S    
C22   C27   S    
C20   N1    A    
C19   N1    A    
C32   H20   S    
Cu1   Cu2   S    
C15   C17   A    
C14   C15   A    
Cu2   O11   S    
C24   C28   S    
Cu1   O12   S    
C3    C5    A    
C32   O6    S    
C20   H2    S    
C2    H26   S    
C6    C7    A    
C10   H28   S    
C30   H15   S    
C12   C24   S    
C32   H19   S    
C21   N2    A    
Cu1   O10   S    
C2    C3    A    
C22   O13   A    
C16   O11   A    
Cu1   N2    S    
C10   C11   A    
H14   O2    S    
C20   C21   A    
C28   C36   S    
C34   H13   S    
C24   H3    S    
Cu1   O1    S    
Cu2   O7    S    
C15   H6    S    
C13   H4    S    
