data_mof_unit_67673.cif
_audit_creation_date              2013-03-05T16:48:47-0500
_audit_creation_method            fapswitch 2.2
_symmetry_space_group_name_H-M    P1
_symmetry_Int_Tables_number       1
_space_group_crystal_system       triclinic
_cell_length_a                    11.01796
_cell_length_b                    11.062135
_cell_length_c                    13.225294
_cell_angle_alpha                 92.064907
_cell_angle_beta                  92.49295
_cell_angle_gamma                 87.354009
_cell_volume                      1607.74975867

loop_
_atom_site_label
_atom_site_type_symbol
_atom_site_description
_atom_site_fract_x
_atom_site_fract_y
_atom_site_fract_z
_atom_type_partial_charge
O1    O     O_R   0.499980 0.319630 0.578260 -0.515492
O2    O     O_R   0.500020 0.680370 0.421740 -0.515443
O3    O     O_R   0.500000 0.319650 0.421740 -0.620507
O4    O     O_R   0.500000 0.680350 0.578260 -0.620516
C1    C     C_R   0.503825 0.259503 0.498947 0.881021
C2    C     C_R   0.496167 0.740497 0.501053 0.881110
O5    O     O_R   0.319630 0.500000 0.578260 -0.539985
O6    O     O_R   0.680370 0.500000 0.421740 -0.539995
O7    O     O_R   0.319650 0.500020 0.421740 -0.598021
O8    O     O_R   0.680350 0.499980 0.578260 -0.598037
C3    C     C_R   0.259580 0.501123 0.498010 0.897280
C4    C     C_R   0.740419 0.498879 0.501992 0.897432
Cu1   Cu    Cu3+1 0.499990 0.499990 0.592680 1.071940
Cu2   Cu    Cu3+1 0.500010 0.500010 0.407320 1.071941
C5    C     C_R   0.112430 0.791489 0.235657 0.346864
C6    C     C_R   0.887536 0.208550 0.764357 0.346829
C7    C     C_R   0.114245 0.733735 0.329107 0.195740
C8    C     C_R   0.885728 0.266303 0.670906 0.195812
C9    C     C_R   0.103557 0.606822 0.329918 -0.184097
C10   C     C_R   0.896441 0.393212 0.670096 -0.184155
C11   C     C_R   0.109405 0.536055 0.238554 0.347859
C12   C     C_R   0.890623 0.463979 0.761461 0.347798
C13   C     C_R   0.126568 0.593626 0.147657 -0.009222
C14   C     C_R   0.873462 0.406413 0.852361 -0.009258
C15   C     C_R   0.117165 0.721027 0.145000 0.046604
C16   C     C_R   0.882826 0.279011 0.855016 0.046566
C17   C     C_R   0.927057 0.558133 0.425041 0.338751
C18   C     C_R   0.072936 0.441920 0.574981 0.338787
C19   C     C_R   0.872884 0.502328 0.504378 -0.183984
C20   C     C_R   0.127113 0.497697 0.495632 -0.184001
C21   C     C_R   0.946363 0.446487 0.580806 0.013896
C22   C     C_R   0.053632 0.553540 0.419203 0.013863
C23   C     C_R   0.413948 0.183148 0.150820 0.081638
C24   C     C_R   0.586063 0.816855 0.849173 0.081634
C25   C     C_R   0.407477 0.152310 0.252449 0.118181
C26   C     C_R   0.592522 0.847690 0.747543 0.118191
C27   C     C_R   0.513268 0.111712 0.306809 -0.018967
C28   C     C_R   0.486724 0.888287 0.693191 -0.018979
C29   C     C_R   0.625856 0.104127 0.259845 0.046357
C30   C     C_R   0.374143 0.895874 0.740165 0.046355
C31   C     C_R   0.630375 0.123779 0.155601 0.268219
C32   C     C_R   0.369638 0.876235 0.844412 0.268243
C33   C     C_R   0.523680 0.163692 0.100648 0.203211
C34   C     C_R   0.476339 0.836317 0.899355 0.203217
C35   C     C_R   0.497670 0.931923 0.408379 0.319692
C36   C     C_R   0.502302 0.068078 0.591620 0.319663
C37   C     C_R   0.496509 0.873061 0.501486 -0.211538
C38   C     C_R   0.503473 0.126939 0.498513 -0.211553
C39   C     C_R   0.496532 0.942299 0.592982 -0.131758
C40   C     C_R   0.503449 0.057701 0.407017 -0.131759
N1    N     N_1   0.500030 0.500030 0.268070 -0.128949
N2    N     N_1   0.499970 0.499970 0.731930 -0.128934
C41   C     C_1   0.500097 0.499982 0.173813 0.238785
C42   C     C_1   0.499904 0.500017 0.826186 0.238848
C43   C     C_1   0.500138 0.499904 0.050676 0.027568
C44   C     C_1   0.499866 0.500095 0.949324 0.027588
N3    N     N_3   0.098995 0.778958 0.050192 -0.388493
H1    H     H_    0.013221 0.757301 0.019909 0.279123
H2    H     H_    0.163435 0.743158 0.000717 0.284553
N4    N     N_3   0.900993 0.221073 0.949821 -0.388452
H3    H     H_    0.986804 0.242667 0.980076 0.279122
H4    H     H_    0.836598 0.256922 0.999322 0.284525
N5    N     N_3   0.735762 0.071621 0.316617 -0.401295
H5    H     H_    0.746818 0.136165 0.375476 0.272588
H6    H     H_    0.728467 0.987036 0.347768 0.295244
N6    N     N_3   0.264229 0.928370 0.683398 -0.401283
H7    H     H_    0.253169 0.863818 0.624545 0.272570
H8    H     H_    0.271517 0.012951 0.652238 0.295247
N7    N     N_R   0.740318 0.092038 0.104383 0.170462
O9    O     O_R   0.735785 0.026338 0.020914 -0.237416
O10   O     O_R   0.846008 0.114307 0.147014 -0.235865
N8    N     N_R   0.259708 0.907997 0.895643 0.170442
O11   O     O_R   0.264268 0.973673 0.979124 -0.237490
O12   O     O_R   0.154006 0.885763 0.853019 -0.235845
N9    N     N_R   0.491619 0.864870 0.313340 0.143345
O13   O     O_R   0.388886 0.859176 0.261609 -0.306870
O14   O     O_R   0.589994 0.815751 0.275750 -0.244287
N10   N     N_R   0.508334 0.135132 0.686658 0.143335
O15   O     O_R   0.611053 0.140812 0.738412 -0.306788
O16   O     O_R   0.409954 0.184276 0.724223 -0.244353
N11   N     N_R   0.094405 0.921141 0.232509 0.187090
O17   O     O_R   0.143108 0.981204 0.163202 -0.240251
O18   O     O_R   0.021175 0.978843 0.294095 -0.205322
N12   N     N_R   0.905538 0.078896 0.767503 0.187095
O19   O     O_R   0.978773 0.021185 0.705925 -0.205299
O20   O     O_R   0.856810 0.018840 0.836801 -0.240257
N13   N     N_R   0.123593 0.804914 0.422291 0.149034
O21   O     O_R   0.203136 0.888254 0.432634 -0.369374
O22   O     O_R   0.049644 0.792022 0.494804 -0.270199
N14   N     N_R   0.876359 0.195126 0.577723 0.149049
O23   O     O_R   0.796814 0.111788 0.567389 -0.369393
O24   O     O_R   0.950288 0.208023 0.505196 -0.270218
N15   N     N_R   0.085190 0.408562 0.235644 0.154541
O25   O     O_R   0.109000 0.342623 0.313949 -0.330841
O26   O     O_R   0.028736 0.359647 0.157178 -0.329551
N16   N     N_R   0.914855 0.591467 0.764367 0.154569
O27   O     O_R   0.891021 0.657411 0.686068 -0.330808
O28   O     O_R   0.971346 0.640371 0.842818 -0.329498
N17   N     N_3   0.151889 0.521617 0.057988 -0.532615
H9    H     H_    0.237913 0.542044 0.035066 0.242924
H10   H     H_    0.088882 0.545233 0.000224 0.272322
N18   N     N_3   0.848177 0.478429 0.942034 -0.532603
H11   H     H_    0.762147 0.458032 0.964964 0.242910
H12   H     H_    0.911186 0.454790 0.999791 0.272313
N19   N     N_R   0.853874 0.628885 0.354392 0.133112
O29   O     O_R   0.801619 0.730829 0.384809 -0.300166
O30   O     O_R   0.837041 0.590426 0.260910 -0.321645
N20   N     N_R   0.146116 0.371250 0.645685 0.133005
O31   O     O_R   0.198034 0.269086 0.615440 -0.299988
O32   O     O_R   0.163128 0.409920 0.739086 -0.321553
N21   N     N_R   0.526130 0.185661 0.994306 0.174862
O33   O     O_R   0.435895 0.155494 0.933424 -0.227248
O34   O     O_R   0.615473 0.241033 0.958342 -0.359708
N22   N     N_R   0.473904 0.814352 0.005699 0.174866
O35   O     O_R   0.384570 0.758976 0.041672 -0.359721
O36   O     O_R   0.564146 0.844524 0.066571 -0.227249
N23   N     N_3   0.309638 0.236624 0.098105 -0.456512
H13   H     H_    0.285572 0.317842 0.136385 0.243629
H14   H     H_    0.237487 0.179012 0.100788 0.335727
N24   N     N_3   0.690378 0.763377 0.901880 -0.456523
H15   H     H_    0.762528 0.820990 0.899194 0.335729
H16   H     H_    0.714442 0.682161 0.863597 0.243599
N25   N     N_3   0.292270 0.160138 0.299045 -0.445810
H17   H     H_    0.273099 0.074274 0.322582 0.308436
H18   H     H_    0.299302 0.216976 0.363573 0.255210
N26   N     N_3   0.707724 0.839865 0.700939 -0.445809
H19   H     H_    0.726889 0.925728 0.677395 0.308446
H20   H     H_    0.700690 0.783021 0.636414 0.255243

loop_
_geom_bond_atom_site_label_1
_geom_bond_atom_site_label_2
_geom_bond_distance
_ccdc_geom_bond_type
C13   N17   1.434879 S    
N13   O21   1.300695 A    
N5    H6    1.043699 S    
C23   N23   1.433208 S    
N15   O25   1.298658 A    
C4    C19   1.460687 S    
C17   C19   1.404789 A    
N6    H8    1.043698 S    
N21   O33   1.299906 A    
C43   C44   1.340371 T    
N22   O35   1.299155 A    
N14   O23   1.300695 A    
N25   H17   1.043679 S    
C5    N11   1.440658 S    
C28   C39   1.483414 S    
O5    C3    1.226146 A    
N19   O30   1.301280 A    
C36   C39   1.396570 A    
N26   H19   1.043681 S    
C32   C34   1.416327 A    
O1    C1    1.222887 A    
C9    C11   1.418080 A    
N12   O20   1.299672 A    
N23   H14   1.044150 S    
N10   O16   1.300099 A    
C5    C15   1.407880 A    
C17   N19   1.436894 S    
C6    N12   1.440650 S    
N20   O31   1.300803 A    
N4    H4    1.041610 S    
C35   C37   1.414329 A    
O4    Cu1   2.011095 S    
N7    O10   1.301527 A    
C23   C25   1.404142 A    
Cu2   N1    1.841641 S    
C3    C20   1.460701 S    
N2    C42   1.246582 T    
N16   O28   1.300389 A    
O6    Cu2   1.988049 S    
C14   N18   1.434880 S    
C38   C40   1.408578 A    
N6    H7    1.044179 S    
C34   N22   1.437464 S    
N15   O26   1.300394 A    
C28   C30   1.409008 A    
C30   N6    1.435129 S    
Cu1   Cu2   2.451458 S    
C24   N24   1.433210 S    
C31   C33   1.416324 A    
O2    C2    1.222887 A    
C33   N21   1.437469 S    
C19   C21   1.409375 A    
C9    C22   1.476797 S    
N11   O18   1.301538 A    
N24   H16   1.044374 S    
N11   O17   1.299673 A    
C36   C38   1.414329 A    
C41   C43   1.628513 S    
C6    C16   1.407882 A    
C1    C38   1.466430 S    
C42   C44   1.628513 S    
C2    C37   1.466429 S    
N18   H11   1.044522 S    
C8    N14   1.440789 S    
C24   C34   1.408470 A    
N12   O19   1.301540 A    
N8    O12   1.301525 A    
C36   N10   1.436857 S    
O7    Cu2   2.004564 S    
N10   O15   1.299759 A    
N4    H3    1.045040 S    
N1    C41   1.246582 T    
C23   C33   1.408472 A    
N9    O13   1.299758 A    
Cu1   N2    1.841640 S    
O7    C3    1.229675 A    
N14   O24   1.300943 A    
N17   H9    1.044520 S    
O6    C4    1.226160 A    
N16   O27   1.298658 A    
C32   N8    1.436822 S    
N21   O34   1.299156 A    
N18   H12   1.041779 S    
N9    O14   1.300096 A    
O3    Cu2   2.011094 S    
O8    C4    1.229651 A    
O4    C2    1.236818 A    
N17   H10   1.041778 S    
C10   C12   1.418073 A    
C11   C13   1.404485 A    
C12   C14   1.404482 A    
N3    H2    1.041556 S    
O1    Cu1   1.997414 S    
C15   N3    1.430791 S    
N24   H15   1.044151 S    
C31   N7    1.436815 S    
C5    C7    1.410536 A    
N26   H20   1.043891 S    
C25   C27   1.406848 A    
C17   C22   1.398570 A    
C7    N13   1.440784 S    
C12   N16   1.446250 S    
C18   C21   1.398535 A    
C26   N26   1.432670 S    
C14   C16   1.409943 A    
N8    O11   1.300012 A    
O3    C1    1.236817 A    
O8    Cu1   2.004564 S    
N22   O36   1.299904 A    
C25   N25   1.432670 S    
C37   C39   1.408575 A    
C29   N5    1.435127 S    
N19   O29   1.300983 A    
C35   N9    1.436856 S    
C26   C28   1.406848 A    
C18   C20   1.404789 A    
C27   C29   1.409008 A    
N23   H13   1.044374 S    
C20   C22   1.409400 A    
C27   C40   1.483414 S    
N3    H1    1.044978 S    
C11   N15   1.446257 S    
C35   C40   1.396568 A    
C18   N20   1.436852 S    
C30   C32   1.406772 A    
C7    C9    1.414727 A    
C24   C26   1.404138 A    
N20   O32   1.301221 A    
C8    C10   1.414722 A    
C13   C15   1.409943 A    
N7    O9    1.300015 A    
O2    Cu2   1.997412 S    
N25   H18   1.043892 S    
N5    H5    1.044177 S    
O5    Cu1   1.988051 S    
C29   C31   1.406767 A    
C6    C8    1.410535 A    
N13   O22   1.300943 A    
C16   N4    1.430797 S    
C10   C21   1.476802 S    
