data_mof_unit_48763.cif
_audit_creation_date              2012-12-10T20:37:30-0500
_audit_creation_method            fapswitch 2.2
_symmetry_space_group_name_H-M    P1
_symmetry_Int_Tables_number       1
_space_group_crystal_system       triclinic
_cell_length_a                    15.688725
_cell_length_b                    10.713689
_cell_length_c                    9.877456
_cell_angle_alpha                 89.071199
_cell_angle_beta                  88.652584
_cell_angle_gamma                 90.523153
_cell_volume                      1659.49121799

loop_
_atom_site_label
_atom_site_type_symbol
_atom_type_description
_atom_site_fract_x
_atom_site_fract_y
_atom_site_fract_z
_atom_type_partial_charge
C1    C     C_R   0.501847 0.260230 0.500511 0.891219
C2    C     C_3   0.083027 0.506542 0.502427 0.079307
C3    C     C_3   0.969640 0.611220 0.554613 -0.332964
C4    C     C_3   0.917248 0.504468 0.493638 0.079879
C5    C     C_3   0.030797 0.606462 0.428829 -0.169648
C6    C     C_3   0.976409 0.500459 0.367625 -0.168377
C7    C     C_1   0.173774 0.507188 0.506111 -0.019891
C8    C     C_1   0.826396 0.502310 0.492603 -0.010720
C9    C     C_R   0.532669 0.061808 0.613660 0.121443
C10   C     C_R   0.512447 0.129139 0.497736 -0.204469
C11   C     C_R   0.507870 0.068838 0.373220 -0.326724
C12   C     C_R   0.337976 0.501574 0.501586 0.883945
C13   C     C_R   0.504764 0.939759 0.369848 0.456970
C14   C     C_R   0.511463 0.872213 0.493286 -0.212298
C15   C     C_R   0.531567 0.934303 0.611459 0.012440
C16   C     C_3   0.494604 0.921637 0.752169 -0.447855
C17   C     C_3   0.495912 0.063564 0.755251 0.025753
C18   C     C_R   0.426376 0.476450 0.074221 0.068602
C19   C     C_R   0.571651 0.531575 0.067422 0.241598
C20   C     C_R   0.571132 0.530922 0.923825 -0.210418
C21   C     C_R   0.426305 0.479052 0.931697 0.075072
C22   C     C_3   0.371134 0.366007 0.925508 -0.052032
C23   C     C_R   0.501296 0.740110 0.498421 0.900027
C24   C     C_3   0.373225 0.358985 0.080547 0.268173
C25   C     C_R   0.662066 0.500043 0.498489 0.905324
C26   C     C_3   0.970526 0.405886 0.565344 0.451290
C27   C     C_3   0.030648 0.400266 0.440211 -0.331069
C28   C     C_1   0.249107 0.505421 0.505468 -0.177141
C29   C     C_1   0.751023 0.500988 0.494697 -0.183478
C30   C     C_3   0.022838 0.510802 0.626126 0.451754
H1    H     H_    0.057894 0.315326 0.393901 0.147375
H2    H     H_    0.538629 0.874916 0.822925 0.213872
H3    H     H_    0.430825 0.103572 0.761685 0.103707
H4    H     H_    0.628902 0.553702 0.866494 0.166597
H5    H     H_    0.403397 0.287962 0.873683 0.109861
H6    H     H_    0.410120 0.277139 0.117847 0.029503
H7    H     H_    0.954888 0.495956 0.261669 0.145813
H8    H     H_    0.058209 0.688399 0.372347 0.154366
H9    H     H_    0.942010 0.696642 0.599264 0.154882
H10   H     H_    0.501463 0.120850 0.279166 0.176839
H11   H     H_    0.428961 0.881541 0.753746 0.184757
N1    N     N_R   0.499430 0.499140 0.142800 -0.142916
N2    N     N_R   0.499430 0.499180 0.857150 -0.124042
O1    O     O_R   0.500010 0.316790 0.614690 -0.623245
O2    O     O_R   0.500000 0.316760 0.385350 -0.636889
O3    O     O_R   0.376780 0.500010 0.614650 -0.587007
O4    O     O_R   0.376770 0.499970 0.385310 -0.609082
O5    O     O_R   0.500000 0.683240 0.614650 -0.619116
O6    O     O_R   0.499990 0.683210 0.385310 -0.572026
O7    O     O_R   0.623230 0.500030 0.614690 -0.626636
O8    O     O_R   0.623220 0.499990 0.385350 -0.582405
Zn1   Zn    Zn3+2 0.500010 0.500020 0.653130 0.944973
Zn2   Zn    Zn3+2 0.499990 0.499980 0.346870 0.969551
N3    N     N_2   0.553288 0.114576 0.855351 -0.285218
H12   H     H_    0.538610 0.204552 0.882049 0.220926
C31   C     C_3   0.644553 0.096866 0.839020 -0.712737
H13   H     H_    0.676662 0.127855 0.931817 0.225746
H14   H     H_    0.669894 0.153666 0.751706 0.238913
H15   H     H_    0.659928 0.997169 0.823792 0.235998
N4    N     N_2   0.649469 0.557613 0.131670 -0.261921
H16   H     H_    0.699784 0.507254 0.092414 0.203589
C32   C     C_3   0.670409 0.688894 0.139096 -0.730283
H17   H     H_    0.678919 0.730628 0.035817 0.209346
H18   H     H_    0.730713 0.700678 0.194372 0.228287
H19   H     H_    0.619503 0.738562 0.195064 0.302570
N5    N     N_2   0.289087 0.397211 0.869280 -0.227571
H20   H     H_    0.253112 0.463082 0.919189 0.281986
C33   C     C_3   0.241493 0.294462 0.814558 -0.750904
H21   H     H_    0.182615 0.330458 0.768708 0.251009
H22   H     H_    0.223923 0.225611 0.895597 0.227256
H23   H     H_    0.279871 0.248063 0.734247 0.221127
O9    O     O_3   0.292347 0.379487 0.142937 -0.617850
C34   C     C_3   0.273792 0.289142 0.245793 0.146072
H24   H     H_    0.224266 0.328791 0.313820 0.163465
H25   H     H_    0.329802 0.268733 0.309620 0.130788
C35   C     C_3   0.237045 0.169098 0.187533 -0.405525
H26   H     H_    0.181082 0.192176 0.125335 0.236271
H27   H     H_    0.285860 0.123705 0.122173 0.208297
C36   C     C_3   0.208330 0.078331 0.300764 -0.991605
H28   H     H_    0.262149 0.056856 0.368108 0.255754
H29   H     H_    0.185017 0.990166 0.256483 0.270523
H30   H     H_    0.155642 0.119294 0.362042 0.266623
O10   O     O_3   0.932382 0.304306 0.637513 -0.658872
C37   C     C_3   0.994622 0.216884 0.676540 0.093690
H31   H     H_    0.984422 0.195482 0.786189 0.159777
H32   H     H_    0.061654 0.251246 0.663692 0.126594
C38   C     C_3   0.983368 0.096631 0.597145 -0.341737
H33   H     H_    0.917934 0.058615 0.616145 0.232421
H34   H     H_    0.991451 0.117358 0.486995 0.216961
C39   C     C_3   0.048136 0.998352 0.638257 -0.983302
H35   H     H_    0.114096 0.033633 0.617987 0.267666
H36   H     H_    0.038341 0.912540 0.578757 0.268952
H37   H     H_    0.040101 0.974149 0.747628 0.264811
O11   O     O_3   0.052662 0.512825 0.759846 -0.662222
C40   C     C_3   0.984296 0.532263 0.852968 0.095959
H38   H     H_    0.990841 0.464894 0.938713 0.154314
H39   H     H_    0.919898 0.514657 0.810885 0.146497
C41   C     C_3   0.989593 0.664802 0.908085 -0.341599
H40   H     H_    0.047744 0.674080 0.969455 0.228952
H41   H     H_    0.994627 0.733522 0.822836 0.225020
C42   C     C_3   0.911233 0.695159 0.995608 -0.987314
H42   H     H_    0.852891 0.692464 0.934056 0.265948
H43   H     H_    0.918308 0.790228 0.037275 0.269534
H44   H     H_    0.903917 0.627190 0.081117 0.261727
O12   O     O_3   0.496477 0.879526 0.247412 -0.635688
C43   C     C_3   0.419107 0.911736 0.185740 0.075784
H45   H     H_    0.428208 0.999760 0.125656 0.143604
H46   H     H_    0.366098 0.923114 0.261621 0.133962
C44   C     C_3   0.393903 0.807344 0.090676 -0.279412
H47   H     H_    0.447383 0.789216 0.018121 0.224022
H48   H     H_    0.380953 0.720727 0.151306 0.239775
C45   C     C_3   0.314472 0.840519 0.011989 -0.993139
H49   H     H_    0.259245 0.853015 0.082663 0.270153
H50   H     H_    0.299323 0.763837 0.941887 0.274358
H51   H     H_    0.325326 0.927907 0.951715 0.257427

loop_
_geom_bond_atom_site_label_1
_geom_bond_atom_site_label_2
_ccdc_geom_bond_type
N5    C33   S    
C38   H33   S    
C26   O10   S    
C18   C21   A    
C34   H24   S    
C19   C20   A    
C37   C38   S    
C4    C8    S    
C45   H50   S    
C40   C41   S    
C22   H5    S    
C26   C27   S    
C24   H6    S    
C12   C28   S    
C18   C24   S    
C8    C29   T    
C35   H27   S    
C18   N1    A    
N1    Zn2   S    
C5    C6    S    
N2    Zn1   S    
C23   O6    A    
C43   H45   S    
C15   C16   S    
O3    Zn1   S    
C31   H13   S    
N4    C32   S    
C25   O7    A    
C22   N5    S    
C32   H18   S    
C2    C7    S    
C21   N2    A    
O10   C37   S    
C33   H21   S    
O7    Zn1   S    
C35   C36   S    
C2    C27   S    
C13   C14   A    
C9    C10   A    
C19   N1    A    
O4    Zn2   S    
C20   H4    S    
O1    Zn1   S    
N5    H20   S    
O2    Zn2   S    
C42   H43   S    
C21   C22   S    
C34   H25   S    
O11   C40   S    
C17   H3    S    
C12   O4    A    
C45   H49   S    
C25   C29   S    
N3    C31   S    
C27   H1    S    
C42   H42   S    
C35   H26   S    
C13   O12   S    
C44   C45   S    
C36   H29   S    
C16   C17   S    
C7    C28   T    
N4    H16   S    
O8    Zn2   S    
C12   O3    A    
C14   C23   S    
C3    C30   S    
C25   O8    A    
C32   H17   S    
C1    O1    A    
C39   H36   S    
C6    C27   S    
C6    H7    S    
C37   H31   S    
C4    C6    S    
C26   C30   S    
C42   H44   S    
C41   H41   S    
C38   H34   S    
C34   C35   S    
C22   C24   S    
C2    C5    S    
C3    C4    S    
C20   N2    A    
C24   O9    S    
C39   H37   S    
C9    C17   S    
N3    H12   S    
C23   O5    A    
C32   H19   S    
C1    C10   S    
C37   H32   S    
O9    C34   S    
C3    C5    S    
C36   H30   S    
C4    C26   S    
C40   H39   S    
C19   N4    S    
C16   H2    S    
C41   C42   S    
O12   C43   S    
C31   H15   S    
C2    C30   S    
C44   H48   S    
C9    C15   A    
C30   O11   S    
C44   H47   S    
C11   C13   A    
C1    O2    A    
C39   H35   S    
C43   H46   S    
C33   H23   S    
O6    Zn2   S    
C16   H11   S    
C31   H14   S    
C11   H10   S    
C10   C11   A    
C3    H9    S    
C36   H28   S    
O5    Zn1   S    
C33   H22   S    
C41   H40   S    
C38   C39   S    
C40   H38   S    
C14   C15   A    
C5    H8    S    
C17   N3    S    
C45   H51   S    
C43   C44   S    
