data_mof_unit_43352.cif
_audit_creation_date              2012-10-26T20:17:42-0400
_audit_creation_method            fapswitch 2.2
_symmetry_space_group_name_H-M    P1
_symmetry_Int_Tables_number       1
_space_group_crystal_system       triclinic
_cell_length_a                    27.780011
_cell_length_b                    8.672567
_cell_length_c                    7.459185
_cell_angle_alpha                 103.053266
_cell_angle_beta                  94.625649
_cell_angle_gamma                 92.944086
_cell_volume                      1740.47316816

loop_
_atom_site_label
_atom_site_type_symbol
_atom_type_description
_atom_site_fract_x
_atom_site_fract_y
_atom_site_fract_z
_atom_type_partial_charge
C1    C     C_R   0.498515 0.199655 0.453110 0.554036
C2    C     C_R   0.867629 0.370376 0.425729 0.017090
C3    C     C_R   0.354469 0.491591 0.503663 0.006726
C4    C     C_R   0.645538 0.507568 0.496636 0.006548
C5    C     C_R   0.969369 0.354254 0.433829 0.020926
C6    C     C_R   0.030617 0.635247 0.573467 0.019791
C7    C     C_R   0.979900 0.638878 0.583118 -0.032618
C8    C     C_R   0.020527 0.347332 0.440290 -0.036269
C9    C     C_R   0.949336 0.500720 0.505063 0.018508
C10   C     C_R   0.050838 0.488582 0.505930 0.020016
C11   C     C_R   0.937255 0.219102 0.359656 -0.177698
C12   C     C_R   0.501485 0.800345 0.546890 0.554127
C13   C     C_R   0.061858 0.774966 0.625448 -0.160189
C14   C     C_R   0.887530 0.227499 0.354994 -0.139539
C15   C     C_R   0.111572 0.769031 0.626148 -0.108842
C16   C     C_R   0.407473 0.498014 0.501401 0.552077
C17   C     C_R   0.592528 0.501868 0.498615 0.552421
C18   C     C_R   0.042496 0.203445 0.382582 -0.154012
C19   C     C_R   0.958905 0.775820 0.674466 -0.154336
C20   C     C_2   0.497826 0.031594 0.426840 -0.147464
C21   C     C_2   0.502174 0.968406 0.573160 -0.147423
C22   C     C_R   0.173763 0.339465 0.441626 0.412863
C23   C     C_R   0.101876 0.483464 0.505433 -0.082606
C24   C     C_R   0.826827 0.652641 0.572849 0.419940
C25   C     C_R   0.182258 0.618590 0.570048 0.385798
C26   C     C_R   0.817408 0.377795 0.422963 0.397892
C27   C     C_R   0.283048 0.498331 0.671851 -0.050565
C28   C     C_R   0.717180 0.501789 0.329707 -0.049256
C29   C     C_R   0.333294 0.505301 0.671001 -0.139658
C30   C     C_R   0.666905 0.495979 0.329972 -0.139635
C31   C     C_R   0.324476 0.469463 0.337365 -0.135502
C32   C     C_R   0.675353 0.526495 0.662845 -0.135444
C33   C     C_R   0.274306 0.462192 0.338631 -0.055126
C34   C     C_R   0.898294 0.507764 0.503286 -0.079910
C35   C     C_R   0.725514 0.532450 0.662170 -0.053132
C36   C     C_R   0.253481 0.477021 0.505723 0.242532
C37   C     C_R   0.746583 0.519629 0.495781 0.239222
C38   C     C_3   0.092894 0.979464 0.126212 0.029698
C39   C     C_3   0.070771 0.812492 0.120139 -0.262220
C40   C     C_3   0.109542 0.694200 0.121971 -0.390931
C41   C     C_3   0.909430 0.063258 0.729958 0.026113
C42   C     C_3   0.933774 0.167840 0.910392 -0.272329
C43   C     C_3   0.961017 0.316068 0.882040 -0.473083
C44   C     C_R   0.122833 0.338592 0.439187 0.024566
C45   C     C_R   0.877830 0.650902 0.581250 0.032567
C46   C     C_R   0.092504 0.198419 0.372004 0.269193
C47   C     C_R   0.908574 0.786327 0.667941 0.274800
C48   C     C_R   0.132033 0.624339 0.569479 0.007811
Cu1   Cu    Cu3+1 0.505380 0.517380 0.684380 0.964981
Cu2   Cu    Cu3+1 0.494620 0.482620 0.315620 0.964885
H1    H     H_    0.339696 0.458202 0.206222 0.130847
H2    H     H_    0.267032 0.510505 0.801540 0.123572
H3    H     H_    0.864676 0.120122 0.295488 0.185504
H4    H     H_    0.133940 0.879437 0.669307 0.183351
H5    H     H_    0.948975 0.103922 0.300535 0.104500
H6    H     H_    0.048893 0.891951 0.662896 0.103537
H7    H     H_    0.021989 0.090555 0.344834 0.105233
H8    H     H_    0.981075 0.875321 0.758833 0.098133
H9    H     H_    0.493751 0.959581 0.286037 0.136258
H10   H     H_    0.506249 0.040420 0.713963 0.136313
H11   H     H_    0.122815 0.971480 0.034972 0.174227
H12   H     H_    0.659999 0.536021 0.793510 0.131569
H13   H     H_    0.065044 0.045832 0.064795 0.076179
H14   H     H_    0.049197 0.815904 0.239899 0.174215
H15   H     H_    0.045724 0.770457 0.992639 0.124896
H16   H     H_    0.127900 0.676820 0.992792 0.153379
H17   H     H_    0.092504 0.578028 0.131574 0.132804
H18   H     H_    0.136979 0.737793 0.241784 0.213051
H19   H     H_    0.879392 0.126906 0.679679 0.186071
H20   H     H_    0.935236 0.045303 0.621520 0.112392
H21   H     H_    0.905167 0.205042 0.002879 0.195751
H22   H     H_    0.959528 0.099222 0.977020 0.156056
H23   H     H_    0.461980 0.377048 0.948370 0.238599
H24   H     H_    0.990038 0.282895 0.789627 0.157439
H25   H     H_    0.977988 0.387231 0.017338 0.158185
H26   H     H_    0.935575 0.389815 0.822561 0.167427
H27   H     H_    0.538020 0.622952 0.051630 0.238704
H28   H     H_    0.251552 0.447009 0.210072 0.123617
H29   H     H_    0.748080 0.544944 0.790703 0.130808
H30   H     H_    0.644860 0.481910 0.199998 0.130607
H31   H     H_    0.355466 0.521921 0.801087 0.130773
H32   H     H_    0.733333 0.491337 0.200497 0.128860
N1    N     N_R   0.201978 0.477836 0.507298 -0.412828
N2    N     N_R   0.798117 0.517384 0.495087 -0.412353
N3    N     N_2   0.486510 0.456430 0.038510 -0.258474
N4    N     N_2   0.513490 0.543570 0.961490 -0.258413
O1    O     O_R   0.503500 0.286120 0.619780 -0.504253
O2    O     O_2   0.805835 0.787949 0.640036 -0.418493
O3    O     O_2   0.787935 0.245930 0.350549 -0.476265
O4    O     O_2   0.211306 0.753113 0.630898 -0.476718
O5    O     O_3   0.112089 0.053800 0.309640 -0.509880
O6    O     O_3   0.888955 0.921149 0.765314 -0.517005
O7    O     O_R   0.496500 0.713880 0.380220 -0.504256
O8    O     O_R   0.494410 0.256780 0.308360 -0.494775
O9    O     O_R   0.505590 0.743220 0.691640 -0.494692
O10   O     O_R   0.434810 0.514700 0.655690 -0.507026
O11   O     O_R   0.565190 0.485300 0.344310 -0.506734
O12   O     O_R   0.425720 0.485350 0.344280 -0.502752
O13   O     O_R   0.574280 0.514650 0.655720 -0.502678
O14   O     O_2   0.195174 0.203841 0.380132 -0.422603

loop_
_geom_bond_atom_site_label_1
_geom_bond_atom_site_label_2
_ccdc_geom_bond_type
C1    O1    A    
C27   C29   A    
C41   C42   S    
Cu1   O1    S    
N3    N4    D    
C26   O3    S    
C5    C9    A    
C39   H14   S    
C25   O4    S    
C24   C45   A    
C35   C37   A    
C5    C11   A    
C38   C39   S    
C11   C14   A    
C19   C47   A    
C33   H28   S    
C36   N1    S    
C33   C36   A    
C47   O6    S    
C3    C29   A    
Cu2   N3    S    
C22   C44   A    
C1    O8    A    
Cu2   O11   S    
C40   H17   S    
C31   C33   A    
C37   N2    S    
C13   H6    S    
C30   H30   S    
C2    C34   A    
C43   H24   S    
C40   H16   S    
C39   H15   S    
C15   C48   A    
C18   C46   A    
C44   C46   A    
C45   C47   A    
C19   H8    S    
C43   H25   S    
C16   O10   A    
C22   O14   S    
C28   H32   S    
C32   C35   A    
C21   H10   S    
Cu2   O12   S    
C39   C40   S    
Cu2   O8    S    
C46   O5    S    
C38   O5    S    
C8    C18   A    
C23   C44   A    
C15   H4    S    
C29   H31   S    
Cu1   O13   S    
C24   O2    S    
C18   H7    S    
C14   H3    S    
C42   H22   S    
C2    C26   A    
C34   C45   A    
Cu1   O9    S    
C20   H9    S    
C3    C31   A    
C17   O13   A    
C25   C48   A    
H23   N3    S    
C4    C32   A    
C4    C17   S    
H27   N4    S    
C7    C19   A    
C13   C15   A    
C9    C34   A    
C10   C23   A    
C12   O7    A    
C12   O9    A    
C42   C43   S    
C11   H5    S    
C27   H2    S    
C41   H19   S    
C38   H13   S    
C43   H26   S    
C7    C9    A    
C1    C20   S    
C26   N2    A    
C23   C48   A    
Cu1   N4    S    
C31   H1    S    
C6    C10   A    
C5    C8    A    
Cu2   O7    S    
C6    C7    A    
C27   C36   A    
C22   N1    A    
C38   H11   S    
C28   C30   A    
C24   N2    A    
C32   H12   S    
C6    C13   A    
C16   O12   A    
C28   C37   A    
C12   C21   S    
C35   H29   S    
C42   H21   S    
Cu1   O10   S    
C2    C14   A    
C41   O6    S    
C20   C21   D    
C8    C10   A    
Cu1   Cu2   S    
C40   H18   S    
C25   N1    A    
C17   O11   A    
C4    C30   A    
C3    C16   S    
C41   H20   S    
