data_mof_unit_19351.cif
_audit_creation_date              2012-12-10T17:51:32-0500
_audit_creation_method            fapswitch 2.2
_symmetry_space_group_name_H-M    P1
_symmetry_Int_Tables_number       1
_space_group_crystal_system       triclinic
_cell_length_a                    9.944184
_cell_length_b                    10.614946
_cell_length_c                    17.042626
_cell_angle_alpha                 92.289576
_cell_angle_beta                  85.017285
_cell_angle_gamma                 89.271523
_cell_volume                      1790.50225561

loop_
_atom_site_label
_atom_site_type_symbol
_atom_type_description
_atom_site_fract_x
_atom_site_fract_y
_atom_site_fract_z
_atom_type_partial_charge
C1    C     C_R   0.499500 0.739207 0.498346 0.853183
C2    C     C_R   0.530331 0.491400 0.262994 -0.015067
C3    C     C_R   0.399022 0.861808 0.365178 -0.177599
C4    C     C_R   0.481410 0.495986 0.652131 0.838852
C5    C     C_R   0.351697 0.924351 0.302333 -0.133076
C6    C     C_R   0.353870 0.055387 0.301819 -0.144342
C7    C     C_R   0.403426 0.124292 0.364139 -0.192766
C8    C     C_R   0.450444 0.062331 0.428771 0.097890
C9    C     C_R   0.448211 0.930386 0.429332 0.095029
C10   C     C_R   0.499233 0.871343 0.493523 -0.088083
C11   C     C_R   0.555386 0.938535 0.554012 -0.222654
C12   C     C_R   0.389394 0.385880 0.773428 0.151342
C13   C     C_R   0.557412 0.067176 0.553474 -0.214570
C14   C     C_R   0.503309 0.128043 0.492436 -0.098434
C15   C     C_R   0.843267 0.666667 0.603651 -0.190690
C16   C     C_R   0.501053 0.260665 0.497898 0.855188
C17   C     C_R   0.904823 0.749391 0.654253 -0.231233
C18   C     C_R   0.044773 0.750221 0.654299 0.200623
C19   C     C_R   0.122701 0.667082 0.602735 -0.209091
C20   C     C_R   0.063517 0.582220 0.550804 0.122243
C21   C     C_R   0.919237 0.581897 0.551121 0.140420
C22   C     C_R   0.939254 0.422132 0.449760 0.191711
C23   C     C_R   0.437921 0.426228 0.142404 -0.178275
C24   C     C_R   0.081713 0.421672 0.451499 -0.111533
C25   C     C_R   0.518825 0.498745 0.347886 0.830855
C26   C     C_R   0.476615 0.474441 0.735906 -0.055084
C27   C     C_R   0.584015 0.524260 0.774504 -0.234759
C28   C     C_R   0.610372 0.483375 0.847095 -0.195001
C29   C     C_R   0.523907 0.398646 0.885729 0.150693
C30   C     C_R   0.413508 0.350627 0.849316 -0.217131
C31   C     C_3   0.884188 0.332978 0.389633 -0.367778
C32   C     C_3   0.927218 0.370190 0.305518 -0.895569
C33   C     C_3   0.111040 0.840848 0.708896 -0.417080
C34   C     C_R   0.427281 0.434779 0.223770 -0.221367
C35   C     C_3   0.088334 0.802473 0.794326 -0.875124
C36   C     C_3   0.275448 0.322858 0.734182 -0.411892
C37   C     C_3   0.147793 0.405342 0.743630 -0.811663
C38   C     C_3   0.536403 0.238773 0.995750 -0.394827
C39   C     C_3   0.639407 0.153879 0.946510 -0.872474
C40   C     C_R   0.643571 0.540109 0.220701 -0.205744
C41   C     C_R   0.653988 0.531598 0.139096 -0.167646
C42   C     C_R   0.552274 0.472878 0.100339 0.195103
C43   C     C_2   0.540987 0.373331 0.968057 0.150580
C44   C     C_2   0.557655 0.475142 0.015648 -0.311712
H1    H     H_    0.740322 0.571341 0.106172 0.131475
H2    H     H_    0.721838 0.586979 0.250609 0.151822
H3    H     H_    0.565873 0.568723 0.992079 0.143557
H4    H     H_    0.345583 0.286639 0.880205 0.130183
H5    H     H_    0.356570 0.385028 0.112186 0.133122
H6    H     H_    0.697350 0.520138 0.874057 0.139247
H7    H     H_    0.652632 0.590853 0.746524 0.155187
H8    H     H_    0.595567 0.891120 0.602355 0.135095
H9    H     H_    0.406344 0.225684 0.360503 0.137135
H10   H     H_    0.598316 0.119722 0.601621 0.151452
H11   H     H_    0.903159 0.471212 0.298375 0.269479
H12   H     H_    0.398220 0.759972 0.362316 0.154834
H13   H     H_    0.037282 0.353833 0.291219 0.243065
H14   H     H_    0.872629 0.312408 0.263144 0.256687
H15   H     H_    0.921482 0.235676 0.397994 0.184603
H16   H     H_    0.774252 0.329264 0.395941 0.269603
H17   H     H_    0.978861 0.802973 0.813970 0.256248
H18   H     H_    0.131564 0.706780 0.800616 0.262090
H19   H     H_    0.139011 0.870240 0.832914 0.247881
H20   H     H_    0.221624 0.844306 0.692527 0.197352
H21   H     H_    0.069369 0.937498 0.703569 0.208915
H22   H     H_    0.109945 0.415943 0.806851 0.243195
H23   H     H_    0.314407 0.870892 0.253552 0.138240
H24   H     H_    0.168096 0.500175 0.720936 0.273455
H25   H     H_    0.068348 0.360880 0.710421 0.246360
H26   H     H_    0.305233 0.299036 0.671049 0.226494
H27   H     H_    0.251496 0.231212 0.761166 0.191118
H28   H     H_    0.615176 0.146678 0.884102 0.258836
H29   H     H_    0.742561 0.191884 0.949233 0.262491
H30   H     H_    0.637447 0.057751 0.969968 0.244951
H31   H     H_    0.559315 0.233669 0.058100 0.221407
H32   H     H_    0.433742 0.200709 0.991382 0.186133
H33   H     H_    0.318304 0.103780 0.252657 0.130300
H34   H     H_    0.736002 0.672419 0.607288 0.204211
H35   H     H_    0.842712 0.813599 0.693477 0.144909
H36   H     H_    0.338946 0.397091 0.255909 0.144641
H37   H     H_    0.229153 0.669718 0.605378 0.205657
H38   H     H_    0.144455 0.357737 0.412518 0.151401
N1    N     N_R   0.857140 0.501200 0.500750 -0.138935
N2    N     N_R   0.142740 0.501280 0.500770 -0.129730
O1    O     O_R   0.385310 0.683220 0.500000 -0.636582
O2    O     O_R   0.614640 0.683250 0.500010 -0.624094
O3    O     O_R   0.371780 0.500010 0.615800 -0.629085
O4    O     O_R   0.601110 0.500030 0.615800 -0.631354
O5    O     O_R   0.385360 0.316750 0.499990 -0.619811
O6    O     O_R   0.614690 0.316780 0.500000 -0.634542
O7    O     O_R   0.398890 0.499970 0.384200 -0.628457
O8    O     O_R   0.628220 0.499990 0.384200 -0.620982
Zn1   Zn    Zn3+2 0.346870 0.499980 0.499990 0.921946
Zn2   Zn    Zn3+2 0.653130 0.500020 0.500010 0.927348

loop_
_geom_bond_atom_site_label_1
_geom_bond_atom_site_label_2
_ccdc_geom_bond_type
C16   O6    A    
C37   H25   S    
C41   C42   A    
C19   C20   A    
C32   H14   S    
C5    H23   S    
C33   H21   S    
C7    C8    A    
C4    O3    A    
C38   H32   S    
C40   H2    S    
C26   C27   A    
C23   C42   A    
C30   H4    S    
C28   C29   A    
C5    C6    A    
C23   H5    S    
C15   H34   S    
C37   H24   S    
C17   H35   S    
C18   C19   A    
C39   H30   S    
C31   H15   S    
C24   H38   S    
C11   H8    S    
O2    Zn2   S    
C34   H36   S    
O1    Zn1   S    
C21   N1    A    
C36   H26   S    
C8    C9    A    
C39   H28   S    
C12   C36   S    
C9    C10   A    
C32   H11   S    
C44   H3    S    
C2    C34   A    
C16   O5    A    
C13   C14   A    
C29   C43   S    
C42   C44   S    
C32   H13   S    
C27   H7    S    
O6    Zn2   S    
C38   H31   S    
C1    O1    A    
O4    Zn2   S    
C25   O7    A    
C22   C31   S    
C28   H6    S    
C6    H33   S    
N1    Zn2   S    
C12   C26   A    
C31   H16   S    
C43   C44   D    
C29   C30   A    
C3    C9    A    
O7    Zn1   S    
C3    H12   S    
C31   C32   S    
C23   C34   A    
C37   H22   S    
O8    Zn2   S    
C17   C18   A    
C35   H17   S    
C40   C41   A    
C20   N2    A    
C14   C16   S    
C7    H9    S    
C13   H10   S    
C1    O2    A    
C15   C17   A    
C36   C37   S    
C25   O8    A    
C8    C14   A    
C12   C30   A    
C1    C10   S    
C3    C5    A    
C4    C26   S    
C36   H27   S    
C6    C7    A    
C4    O4    A    
C22   N1    A    
C24   N2    A    
C38   C43   S    
C11   C13   A    
C2    C25   S    
C38   C39   S    
C33   H20   S    
O3    Zn1   S    
C33   C35   S    
C35   H18   S    
C22   C24   A    
N2    Zn1   S    
C39   H29   S    
O5    Zn1   S    
C18   C33   S    
C10   C11   A    
C2    C40   A    
C15   C21   A    
C20   C21   A    
C27   C28   A    
C41   H1    S    
C35   H19   S    
C19   H37   S    
