data_mof_unit_65319.cif
_audit_creation_date              2012-12-10T19:15:31-0500
_audit_creation_method            fapswitch 2.2
_symmetry_space_group_name_H-M    P1
_symmetry_Int_Tables_number       1
_space_group_crystal_system       triclinic
_cell_length_a                    24.439195
_cell_length_b                    24.43905
_cell_length_c                    43.114738
_cell_angle_alpha                 90.000075
_cell_angle_beta                  90.000079
_cell_angle_gamma                 90.000186
_cell_volume                      25751.1701147

loop_
_atom_site_label
_atom_site_type_symbol
_atom_type_description
_atom_site_fract_x
_atom_site_fract_y
_atom_site_fract_z
_atom_type_partial_charge
C1    C     C_R   0.270902 0.228278 0.249572 0.110490
C2    C     C_R   0.728279 0.229098 0.250427 0.110491
C3    C     C_R   0.000000 0.500000 0.967398 0.129100
C4    C     C_R   0.000000 0.500000 0.532598 0.129110
C5    C     C_R   1.000000 0.500000 0.467402 0.129107
C6    C     C_R   0.500000 0.000000 0.532597 0.129125
C7    C     C_R   0.500000 0.000000 0.467398 0.129086
C8    C     C_R   0.960748 0.469193 0.384440 0.129922
C9    C     C_R   0.039344 0.530683 0.615556 0.129979
C10   C     C_R   0.530520 0.039472 0.384437 0.129813
C11   C     C_R   0.469303 0.960661 0.615565 0.129801
C12   C     C_R   0.039252 0.530807 0.384440 0.129922
C13   C     C_R   0.771721 0.729098 0.750428 0.110487
C14   C     C_R   0.960656 0.469317 0.615556 0.129979
C15   C     C_R   0.469480 0.960528 0.384437 0.129814
C16   C     C_R   0.530697 0.039339 0.615565 0.129801
C17   C     C_R   0.539325 0.969299 0.884437 0.129807
C18   C     C_R   0.460487 0.030458 0.115564 0.129748
C19   C     C_R   0.030537 0.460542 0.884439 0.129833
C20   C     C_R   0.969275 0.539312 0.115562 0.129833
C21   C     C_R   0.460675 0.030701 0.884437 0.129806
C22   C     C_R   0.539513 0.969541 0.115564 0.129749
C23   C     C_R   0.969463 0.539459 0.884439 0.129833
C24   C     C_R   0.228215 0.270926 0.249610 0.106393
C25   C     C_R   0.030725 0.460688 0.115562 0.129833
C26   C     C_R   0.961053 0.469406 0.416787 -0.186819
C27   C     C_R   0.039033 0.530482 0.583208 -0.187746
C28   C     C_R   0.530312 0.039170 0.416785 -0.187664
C29   C     C_R   0.469519 0.960964 0.583218 -0.186775
C30   C     C_R   0.038947 0.530594 0.416787 -0.186819
C31   C     C_R   0.960967 0.469517 0.583208 -0.187746
C32   C     C_R   0.469688 0.960830 0.416785 -0.187664
C33   C     C_R   0.530481 0.039036 0.583218 -0.186775
C34   C     C_R   0.539026 0.969519 0.916784 -0.186761
C35   C     C_R   0.728215 0.229074 0.749610 0.106390
C36   C     C_R   0.460792 0.030254 0.083217 -0.187627
C37   C     C_R   0.030335 0.460849 0.916786 -0.187671
C38   C     C_R   0.969492 0.539011 0.083215 -0.186776
C39   C     C_R   0.460974 0.030481 0.916784 -0.186760
C40   C     C_R   0.539208 0.969745 0.083217 -0.187627
C41   C     C_R   0.969665 0.539152 0.916786 -0.187672
C42   C     C_R   0.030508 0.460989 0.083215 -0.186777
C43   C     C_R   1.000000 0.500000 0.433178 0.028779
C44   C     C_R   0.000000 0.500000 0.566819 0.029285
C45   C     C_R   0.500000 0.000000 0.433176 0.029320
C46   C     C_R   0.271721 0.770902 0.250427 0.110490
C47   C     C_R   0.500000 0.000000 0.566824 0.028844
C48   C     C_R   0.500000 1.000000 0.933179 0.028821
C49   C     C_R   0.500000 1.000000 0.066826 0.029263
C50   C     C_R   0.000000 0.500000 0.933176 0.029287
C51   C     C_R   0.000000 0.500000 0.066822 0.028806
C52   C     C_R   0.500000 0.000000 0.334021 0.858033
C53   C     C_R   0.500000 1.000000 0.665979 0.857974
C54   C     C_R   1.000000 0.500000 0.334022 0.857881
C55   C     C_R   1.000000 0.500000 0.665977 0.857890
C56   C     C_R   0.000000 0.500000 0.834021 0.858033
C57   C     C_R   0.228278 0.270902 0.750428 0.110487
C58   C     C_R   1.000000 0.500000 0.165979 0.857954
C59   C     C_R   0.500000 0.000000 0.834021 0.857976
C60   C     C_R   0.500000 1.000000 0.165979 0.858102
C61   C     C_R   0.605122 0.105185 0.250032 0.798523
C62   C     C_R   0.394893 0.894820 0.749967 0.800833
C63   C     C_R   0.894893 0.605179 0.249967 0.800805
C64   C     C_R   0.105122 0.394815 0.750032 0.798470
C65   C     C_R   0.394878 0.894815 0.250032 0.798522
C66   C     C_R   0.605107 0.105179 0.749967 0.800835
C67   C     C_R   0.105107 0.394821 0.249967 0.800805
C68   C     C_R   0.771785 0.729074 0.249610 0.106393
C69   C     C_R   0.894878 0.605185 0.750032 0.798469
C70   C     C_R   0.605179 0.894893 0.750033 0.800833
C71   C     C_R   0.394815 0.105122 0.249968 0.798519
C72   C     C_R   0.894815 0.394878 0.749968 0.798470
C73   C     C_R   0.105179 0.605107 0.250033 0.800805
C74   C     C_R   0.394821 0.105107 0.750033 0.800835
C75   C     C_R   0.605185 0.894878 0.249968 0.798520
C76   C     C_R   0.105185 0.605122 0.749968 0.798471
C77   C     C_R   0.894821 0.394893 0.250033 0.800804
C78   C     C_R   1.000000 0.500000 0.367986 -0.102630
C79   C     C_R   0.260198 0.176476 0.262314 -0.167635
C80   C     C_R   0.000000 0.500000 0.632011 -0.104292
C81   C     C_R   0.500000 0.000000 0.367985 -0.104069
C82   C     C_R   0.500000 0.000000 0.632017 -0.102483
C83   C     C_R   0.500000 0.000000 0.867984 -0.102473
C84   C     C_R   0.500000 1.000000 0.132016 -0.103982
C85   C     C_R   0.000000 0.500000 0.867985 -0.104106
C86   C     C_R   1.000000 0.500000 0.132015 -0.102522
C87   C     C_R   0.007749 0.548985 0.483839 -0.170165
C88   C     C_R   0.992246 0.451016 0.516163 -0.170030
C89   C     C_R   0.451060 0.991989 0.483834 -0.170014
C90   C     C_R   0.723361 0.806981 0.724837 -0.170148
C91   C     C_R   0.548942 0.008004 0.516158 -0.170154
C92   C     C_R   0.992251 0.451014 0.483839 -0.170167
C93   C     C_R   0.007754 0.548984 0.516163 -0.170029
C94   C     C_R   0.548940 0.008011 0.483834 -0.170014
C95   C     C_R   0.451058 0.991997 0.516158 -0.170155
C96   C     C_R   0.491978 0.048935 0.983845 -0.170151
C97   C     C_R   0.508032 0.951067 0.016170 -0.170001
C98   C     C_R   0.951041 0.507939 0.983833 -0.170015
C99   C     C_R   0.048961 0.492070 0.016157 -0.170156
C100  C     C_R   0.508021 0.951065 0.983845 -0.170151
C101  C     C_R   0.806318 0.277549 0.275853 -0.166223
C102  C     C_R   0.491967 0.048932 0.016170 -0.170002
C103  C     C_R   0.048959 0.492062 0.983833 -0.170016
C104  C     C_R   0.951039 0.507931 0.016157 -0.170158
C105  C     C_R   0.729074 0.771785 0.750390 0.106392
C106  C     C_R   0.177278 0.739134 0.736899 -0.167741
C107  C     C_R   0.739801 0.823523 0.262315 -0.167634
C108  C     C_R   0.276639 0.193019 0.724838 -0.170148
C109  C     C_R   0.193682 0.722451 0.275853 -0.166223
C110  C     C_R   0.822722 0.260865 0.736899 -0.167742
C111  C     C_R   0.277547 0.806320 0.724147 -0.166224
C112  C     C_R   0.739134 0.177278 0.263103 -0.167740
C113  C     C_R   0.823521 0.739800 0.737684 -0.167642
C114  C     C_R   0.193016 0.276636 0.275162 -0.170147
C115  C     C_R   0.722452 0.193680 0.724147 -0.166224
C116  C     C_R   0.770926 0.271784 0.250389 0.106387
C117  C     C_R   0.260866 0.822722 0.263102 -0.167740
C118  C     C_R   0.176478 0.260200 0.737684 -0.167641
C119  C     C_R   0.806983 0.723363 0.275162 -0.170146
C120  C     C_R   0.760868 0.677279 0.763103 -0.167750
C121  C     C_R   0.222457 0.306324 0.224149 -0.166222
C122  C     C_R   0.306980 0.776639 0.775163 -0.170143
C123  C     C_R   0.676478 0.239801 0.237684 -0.167642
C124  C     C_R   0.239132 0.322721 0.763103 -0.167749
C125  C     C_R   0.777544 0.693677 0.224149 -0.166223
C126  C     C_R   0.693020 0.223361 0.775163 -0.170144
C127  C     C_R   0.229099 0.728278 0.749572 0.110484
C128  C     C_R   0.323522 0.760199 0.237684 -0.167641
C129  C     C_R   0.776643 0.306976 0.224835 -0.170144
C130  C     C_R   0.239802 0.676476 0.762313 -0.167645
C131  C     C_R   0.322722 0.239135 0.236899 -0.167750
C132  C     C_R   0.693679 0.777546 0.775852 -0.166220
C133  C     C_R   0.223357 0.693023 0.224835 -0.170143
C134  C     C_R   0.760198 0.323524 0.762313 -0.167646
C135  C     C_R   0.677278 0.760866 0.236898 -0.167750
C136  C     C_R   0.306322 0.222455 0.775852 -0.166221
C137  C     C_R   0.300715 0.136468 0.262639 -0.175716
C138  C     C_R   0.729098 0.771722 0.249572 0.110489
C139  C     C_R   0.683243 0.847387 0.724834 -0.176955
C140  C     C_R   0.846963 0.317436 0.275639 -0.161619
C141  C     C_R   0.137029 0.698852 0.736823 -0.163040
C142  C     C_R   0.699284 0.863531 0.262640 -0.175717
C143  C     C_R   0.316756 0.152612 0.724834 -0.176954
C144  C     C_R   0.153037 0.682564 0.275639 -0.161619
C145  C     C_R   0.862971 0.301148 0.736823 -0.163039
C146  C     C_R   0.317434 0.846965 0.724362 -0.161611
C147  C     C_R   0.698851 0.137029 0.263178 -0.163077
C148  C     C_R   0.863529 0.699283 0.737358 -0.175732
C149  C     C_R   0.270926 0.228215 0.750390 0.106392
C150  C     C_R   0.152610 0.316753 0.275165 -0.176969
C151  C     C_R   0.682566 0.153035 0.724362 -0.161610
C152  C     C_R   0.301148 0.862971 0.263178 -0.163078
C153  C     C_R   0.136471 0.300716 0.737358 -0.175733
C154  C     C_R   0.847389 0.683245 0.275166 -0.176969
C155  C     C_R   0.801149 0.637030 0.763179 -0.163103
C156  C     C_R   0.182570 0.346969 0.224364 -0.161617
C157  C     C_R   0.347386 0.816757 0.775167 -0.176960
C158  C     C_R   0.636471 0.199284 0.237358 -0.175733
C159  C     C_R   0.198851 0.362970 0.763178 -0.163104
C160  C     C_R   0.229073 0.728215 0.250389 0.106387
C161  C     C_R   0.817431 0.653032 0.224363 -0.161616
C162  C     C_R   0.652614 0.183243 0.775167 -0.176958
C163  C     C_R   0.363529 0.800716 0.237358 -0.175734
C164  C     C_R   0.816761 0.347383 0.224831 -0.176960
C165  C     C_R   0.199284 0.636469 0.762639 -0.175764
C166  C     C_R   0.362972 0.198853 0.236824 -0.163108
C167  C     C_R   0.653033 0.817432 0.775637 -0.161620
C168  C     C_R   0.183239 0.652617 0.224831 -0.176961
C169  C     C_R   0.800716 0.363531 0.762639 -0.175763
C170  C     C_R   0.637029 0.801147 0.236823 -0.163108
C171  C     C_R   0.770901 0.271722 0.749572 0.110484
C172  C     C_R   0.346967 0.182568 0.775637 -0.161620
C173  C     C_R   0.352309 0.147356 0.249826 -0.000279
C174  C     C_R   0.647676 0.852689 0.750164 -0.008319
C175  C     C_R   0.852324 0.352689 0.250164 -0.008323
C176  C     C_R   0.147691 0.647355 0.749826 -0.000298
C177  C     C_R   0.647691 0.852644 0.249826 -0.000281
C178  C     C_R   0.352324 0.147311 0.750164 -0.008319
C179  C     C_R   0.147675 0.647312 0.250164 -0.008323
C180  C     C_R   0.852308 0.352644 0.749826 -0.000298
C181  C     C_R   0.352689 0.852324 0.749836 -0.008313
C182  C     C_R   0.271785 0.770926 0.749610 0.106389
C183  C     C_R   0.647356 0.147691 0.250174 -0.000286
C184  C     C_R   0.852644 0.647691 0.750174 -0.000292
C185  C     C_R   0.147311 0.352324 0.249836 -0.008321
C186  C     C_R   0.647311 0.147676 0.749836 -0.008313
C187  C     C_R   0.352644 0.852309 0.250174 -0.000286
C188  C     C_R   0.147355 0.352308 0.750174 -0.000291
C189  C     C_R   0.852689 0.647676 0.249836 -0.008321
C190  C     C_R   0.499999 1.000000 0.032605 0.129043
C191  C     C_R   0.500000 1.000000 0.967406 0.129114
C192  C     C_R   0.000000 0.500000 0.032596 0.129138
H1    H     H_    0.930099 0.446378 0.429146 0.165100
H2    H     H_    0.429647 0.053016 0.070856 0.164610
H3    H     H_    0.053159 0.429744 0.929148 0.164603
H4    H     H_    0.946534 0.570016 0.070858 0.165071
H5    H     H_    0.429957 0.053419 0.929139 0.165051
H6    H     H_    0.570353 0.946984 0.070856 0.164610
H7    H     H_    0.946841 0.570256 0.929148 0.164604
H8    H     H_    0.053466 0.429984 0.070858 0.165072
H9    H     H_    0.013005 0.587409 0.471681 0.143762
H10   H     H_    0.986981 0.412596 0.528324 0.143939
H11   H     H_    0.412669 0.986521 0.471674 0.143932
H12   H     H_    0.070048 0.553425 0.570846 0.164607
H13   H     H_    0.587339 0.013457 0.528312 0.143725
H14   H     H_    0.986995 0.412591 0.471681 0.143763
H15   H     H_    0.013020 0.587404 0.528325 0.143939
H16   H     H_    0.587331 0.013479 0.471674 0.143932
H17   H     H_    0.412661 0.986543 0.528312 0.143726
H18   H     H_    0.486513 0.087327 0.971691 0.143723
H19   H     H_    0.513518 0.912682 0.028331 0.143950
H20   H     H_    0.912638 0.513351 0.971671 0.143936
H21   H     H_    0.087371 0.486673 0.028313 0.143731
H22   H     H_    0.513487 0.912672 0.971691 0.143722
H23   H     H_    0.553118 0.070291 0.429145 0.164587
H24   H     H_    0.486481 0.087317 0.028331 0.143950
H25   H     H_    0.087362 0.486649 0.971671 0.143936
H26   H     H_    0.912630 0.513327 0.028313 0.143732
H27   H     H_    0.220321 0.166624 0.271720 0.135925
H28   H     H_    0.749400 0.802848 0.704657 0.136818
H29   H     H_    0.802212 0.251672 0.296103 0.142909
H30   H     H_    0.167555 0.778991 0.727420 0.135672
H31   H     H_    0.779678 0.833375 0.271722 0.135925
H32   H     H_    0.250599 0.197152 0.704657 0.136818
H33   H     H_    0.197788 0.748328 0.296103 0.142909
H34   H     H_    0.446580 0.929941 0.570862 0.165056
H35   H     H_    0.832444 0.221009 0.727420 0.135672
H36   H     H_    0.251668 0.802216 0.703898 0.142903
H37   H     H_    0.778989 0.167556 0.272582 0.135670
H38   H     H_    0.833372 0.779676 0.728275 0.135926
H39   H     H_    0.197148 0.250594 0.295341 0.136819
H40   H     H_    0.748331 0.197783 0.703898 0.142903
H41   H     H_    0.221011 0.832444 0.272582 0.135669
H42   H     H_    0.166627 0.220323 0.728276 0.135926
H43   H     H_    0.802850 0.749404 0.295342 0.136819
H44   H     H_    0.721013 0.667558 0.772583 0.135660
H45   H     H_    0.069901 0.553622 0.429146 0.165100
H46   H     H_    0.248339 0.302224 0.203902 0.142891
H47   H     H_    0.302845 0.750600 0.795344 0.136824
H48   H     H_    0.666627 0.279678 0.228276 0.135920
H49   H     H_    0.278987 0.332442 0.772583 0.135660
H50   H     H_    0.751663 0.697778 0.203901 0.142892
H51   H     H_    0.697155 0.249400 0.795344 0.136824
H52   H     H_    0.333373 0.720321 0.228276 0.135919
H53   H     H_    0.750606 0.302840 0.204653 0.136824
H54   H     H_    0.279680 0.666623 0.771720 0.135923
H55   H     H_    0.332445 0.278991 0.227421 0.135657
H56   H     H_    0.929952 0.446575 0.570846 0.164607
H57   H     H_    0.697781 0.751666 0.796100 0.142893
H58   H     H_    0.249393 0.697160 0.204653 0.136824
H59   H     H_    0.720320 0.333377 0.771719 0.135923
H60   H     H_    0.667556 0.721010 0.227419 0.135658
H61   H     H_    0.302219 0.248335 0.796100 0.142893
H62   H     H_    0.291435 0.096807 0.272544 0.160376
H63   H     H_    0.679525 0.873930 0.704824 0.163481
H64   H     H_    0.873676 0.321198 0.295577 0.178140
H65   H     H_    0.097339 0.708265 0.726995 0.161773
H66   H     H_    0.708564 0.903192 0.272546 0.160376
H67   H     H_    0.446882 0.929709 0.429145 0.164587
H68   H     H_    0.320475 0.126070 0.704824 0.163481
H69   H     H_    0.126325 0.678802 0.295577 0.178139
H70   H     H_    0.902660 0.291735 0.726995 0.161773
H71   H     H_    0.321194 0.873680 0.704425 0.178088
H72   H     H_    0.708263 0.097340 0.273007 0.161748
H73   H     H_    0.903188 0.708562 0.727451 0.160391
H74   H     H_    0.126065 0.320469 0.295175 0.163486
H75   H     H_    0.678805 0.126320 0.704425 0.178089
H76   H     H_    0.291737 0.902660 0.273007 0.161748
H77   H     H_    0.096811 0.291438 0.727451 0.160391
H78   H     H_    0.553419 0.070059 0.570863 0.165056
H79   H     H_    0.873932 0.679528 0.295175 0.163485
H80   H     H_    0.791738 0.597341 0.773008 0.161744
H81   H     H_    0.178814 0.373687 0.204429 0.178099
H82   H     H_    0.373927 0.820477 0.795178 0.163479
H83   H     H_    0.596811 0.208562 0.227451 0.160371
H84   H     H_    0.208263 0.402659 0.773008 0.161744
H85   H     H_    0.821189 0.626315 0.204428 0.178099
H86   H     H_    0.626073 0.179523 0.795178 0.163479
H87   H     H_    0.403188 0.791437 0.227451 0.160371
H88   H     H_    0.820483 0.373922 0.204819 0.163479
H89   H     H_    0.570043 0.946581 0.929140 0.165052
H90   H     H_    0.208564 0.596808 0.772545 0.160375
H91   H     H_    0.402662 0.208267 0.226996 0.161728
H92   H     H_    0.626317 0.821191 0.795573 0.178090
H93   H     H_    0.179516 0.626078 0.204819 0.163479
H94   H     H_    0.791436 0.403191 0.772545 0.160375
H95   H     H_    0.597339 0.791734 0.226995 0.161729
H96   H     H_    0.373683 0.178810 0.795572 0.178089
I1    I     I_    0.897522 0.423970 0.362253 -0.372504
I2    I     I_    0.396909 0.075112 0.137769 -0.352103
I3    I     I_    0.075304 0.397026 0.862239 -0.352032
I4    I     I_    0.924173 0.602612 0.137756 -0.372521
I5    I     I_    0.397367 0.075774 0.862242 -0.372538
I6    I     I_    0.603090 0.924887 0.137769 -0.352104
I7    I     I_    0.924696 0.602974 0.862238 -0.352032
I8    I     I_    0.075826 0.397388 0.137755 -0.372519
I9    I     I_    0.102710 0.575677 0.637743 -0.351918
I10   I     I_    0.575275 0.102988 0.362236 -0.352063
I11   I     I_    0.424248 0.897322 0.637761 -0.372545
I12   I     I_    0.102477 0.576030 0.362253 -0.372504
I13   I     I_    0.897290 0.424323 0.637742 -0.351918
I14   I     I_    0.424725 0.897012 0.362236 -0.352062
I15   I     I_    0.575751 0.102679 0.637762 -0.372546
I16   I     I_    0.602633 0.924226 0.862242 -0.372538
O1    O     O_3   0.500000 0.000000 0.250000 -0.493083
O2    O     O_R   0.454480 0.000000 0.680700 -0.618686
O3    O     O_R   1.000000 0.545520 0.319300 -0.618656
O4    O     O_R   0.000000 0.454480 0.680700 -0.616283
O5    O     O_R   0.954480 0.500000 0.819300 -0.616312
O6    O     O_R   0.045520 0.500000 0.180700 -0.618670
O7    O     O_R   0.500000 0.954480 0.819300 -0.618676
O8    O     O_R   0.500000 0.045520 0.180700 -0.616332
O9    O     O_R   0.045520 0.500000 0.819300 -0.616312
O10   O     O_R   0.954480 0.500000 0.180700 -0.618670
O11   O     O_R   0.500000 0.045520 0.819300 -0.618676
O12   O     O_3   0.500000 0.000000 0.750000 -0.493095
O13   O     O_R   0.500000 0.954480 0.180700 -0.616333
O14   O     O_R   0.609440 0.064000 0.268180 -0.632785
O15   O     O_R   0.390560 0.936000 0.731820 -0.632774
O16   O     O_R   0.936000 0.609440 0.268180 -0.643764
O17   O     O_R   0.064000 0.390560 0.731820 -0.646514
O18   O     O_R   0.390560 0.936000 0.268180 -0.632785
O19   O     O_R   0.609440 0.064000 0.731820 -0.632774
O20   O     O_R   0.064000 0.390560 0.268180 -0.643764
O21   O     O_R   0.936000 0.609440 0.731820 -0.646513
O22   O     O_R   0.609440 0.936000 0.731820 -0.643773
O23   O     O_3   1.000000 0.500000 0.250000 -0.493100
O24   O     O_R   0.390560 0.064000 0.268180 -0.646519
O25   O     O_R   0.936000 0.390560 0.731820 -0.632745
O26   O     O_R   0.064000 0.609440 0.268180 -0.632742
O27   O     O_R   0.390560 0.064000 0.731820 -0.643774
O28   O     O_R   0.609440 0.936000 0.268180 -0.646518
O29   O     O_R   0.064000 0.609440 0.731820 -0.632745
O30   O     O_R   0.936000 0.390560 0.268180 -0.632742
O31   O     O_R   0.109440 0.564000 0.768180 -0.646531
O32   O     O_R   0.890560 0.436000 0.231820 -0.643778
O33   O     O_R   0.436000 0.109440 0.768180 -0.632772
O34   O     O_3   0.000000 0.500000 0.750000 -0.493091
O35   O     O_R   0.564000 0.890560 0.231820 -0.632805
O36   O     O_R   0.890560 0.436000 0.768180 -0.646531
O37   O     O_R   0.109440 0.564000 0.231820 -0.643778
O38   O     O_R   0.564000 0.890560 0.768180 -0.632772
O39   O     O_R   0.436000 0.109440 0.231820 -0.632805
O40   O     O_R   0.109440 0.436000 0.231820 -0.632772
O41   O     O_R   0.890560 0.564000 0.768180 -0.632789
O42   O     O_R   0.436000 0.890560 0.231820 -0.646529
O43   O     O_R   0.564000 0.109440 0.768180 -0.643772
O44   O     O_R   0.890560 0.564000 0.231820 -0.632772
O45   O     O_R   0.454480 0.000000 0.319300 -0.616320
O46   O     O_R   0.109440 0.436000 0.768180 -0.632789
O47   O     O_R   0.564000 0.109440 0.231820 -0.646528
O48   O     O_R   0.436000 0.890560 0.768180 -0.643771
O49   O     O_R   0.545520 0.000000 0.680700 -0.618685
O50   O     O_R   1.000000 0.454480 0.319300 -0.618656
O51   O     O_R   0.000000 0.545520 0.680700 -0.616283
O52   O     O_R   0.545520 0.000000 0.319300 -0.616320
Zn1   Zn    Zn3+2 0.500000 0.064990 0.224050 1.006409
Zn2   Zn    Zn3+2 0.000000 0.435010 0.275950 1.006857
Zn3   Zn    Zn3+2 0.435010 0.000000 0.724050 1.006862
Zn4   Zn    Zn3+2 0.564990 0.000000 0.275950 1.006416
Zn5   Zn    Zn3+2 0.000000 0.435010 0.724050 1.006396
Zn6   Zn    Zn3+2 0.000000 0.564990 0.275950 1.006858
Zn7   Zn    Zn3+2 0.564990 0.000000 0.724050 1.006862
Zn8   Zn    Zn3+2 0.435010 0.000000 0.275950 1.006415
Zn9   Zn    Zn3+2 0.500000 0.935010 0.775950 1.006866
Zn10  Zn    Zn3+2 0.935010 0.500000 0.224050 1.006846
Zn11  Zn    Zn3+2 0.064990 0.500000 0.775950 1.006381
Zn12  Zn    Zn3+2 0.500000 0.935010 0.224050 1.006409
Zn13  Zn    Zn3+2 0.500000 0.064990 0.775950 1.006866
Zn14  Zn    Zn3+2 0.064990 0.500000 0.224050 1.006845
Zn15  Zn    Zn3+2 0.935010 0.500000 0.775950 1.006381
Zn16  Zn    Zn3+2 1.000000 0.564990 0.724050 1.006396

loop_
_geom_bond_atom_site_label_1
_geom_bond_atom_site_label_2
_ccdc_geom_bond_type
O28   Zn4   S    
C99   C103  A    
C65   C187  S    
C96   C102  A    
O30   Zn2   S    
C8    C26   A    
C32   C45   A    
C68   C138  S    
O42   Zn12  S    
C135  H60   S    
C150  C185  A    
C113  H38   S    
C129  H53   S    
C2    C123  A    
C69   O21   A    
C73   O37   A    
C29   H34   S    
C96   C191  A    
O20   Zn2   S    
O45   Zn8   S    
C108  H32   S    
C142  C177  A    
C10   C28   A    
C104  C192  A    
C118  C153  A    
C142  H66   S    
C77   O32   A    
C19   C37   A    
C2    C116  S    
C21   C83   A    
C131  C166  A    
C134  C169  A    
C18   C84   A    
C61   O47   A    
C35   C115  A    
C110  C145  A    
C169  C180  A    
C110  C171  A    
C5    C43   S    
C71   O24   A    
C75   O35   A    
C152  C187  A    
C144  H69   S    
C61   C183  S    
C63   O16   A    
C15   C32   A    
O38   Zn9   S    
C94   H16   S    
C55   O51   A    
C157  H82   S    
C99   H21   S    
C15   I14   S    
C19   C85   A    
C156  C185  A    
C106  C127  A    
C120  C155  A    
C112  H37   S    
O43   Zn13  S    
C46   C117  A    
C53   C82   S    
C148  H73   S    
C137  C173  A    
C62   O48   A    
O26   Zn6   S    
C73   O26   A    
C79   H27   S    
C74   C178  S    
C100  H22   S    
C146  H71   S    
C167  C174  A    
C119  H43   S    
C79   C137  A    
C154  C189  A    
C66   C186  S    
C1    C79   A    
C30   C43   A    
C133  C168  A    
C34   C48   A    
C17   C34   A    
C159  H84   S    
C114  H39   S    
C3    C103  A    
C146  C181  A    
C165  H90   S    
C90   C105  A    
C1    C131  A    
C60   O8    A    
C11   I11   S    
C49   C190  S    
C23   C41   A    
O31   Zn11  S    
C133  C160  A    
C107  C138  A    
C68   C119  A    
C91   C94   A    
C55   C80   S    
C3    C98   A    
C163  H87   S    
C24   C121  A    
C109  C144  A    
C65   O42   A    
C75   C177  S    
C36   H2    S    
C76   O29   A    
C115  C151  A    
C53   O49   A    
C109  C160  A    
C46   C160  S    
C67   C185  S    
C57   C118  A    
C62   C181  S    
C151  C186  A    
C24   C114  A    
C62   O15   A    
C37   C50   A    
C121  C156  A    
C170  H95   S    
C130  C165  A    
C14   C31   A    
C58   O6    A    
C67   O20   A    
C155  H80   S    
C158  H83   S    
C152  H76   S    
C18   I2    S    
C29   C47   A    
C71   O39   A    
C37   H3    S    
C113  C148  A    
O8    Zn1   S    
C99   C192  A    
C172  H96   S    
C143  C178  A    
C40   C49   A    
C70   O38   A    
C145  C180  A    
C164  C175  A    
O34   Zn5   S    
C48   C191  S    
C27   C44   A    
C57   C149  S    
C17   I16   S    
O29   Zn16  S    
C158  C183  A    
C90   H28   S    
C64   O17   A    
C87   H9    S    
O12   Zn13  S    
C166  H91   S    
C58   C86   S    
C3    C50   S    
C132  H57   S    
C8    I1    S    
C11   C82   A    
C96   H18   S    
C6    C47   S    
C20   I4    S    
C136  C172  A    
C136  H61   S    
C21   I5    S    
C54   O3    A    
C111  C146  A    
O51   Zn16  S    
C38   C51   A    
O50   Zn2   S    
C76   O31   A    
C117  H41   S    
C125  H50   S    
C70   C174  S    
C115  H40   S    
C64   C188  S    
C102  H24   S    
O23   Zn2   S    
O36   Zn15  S    
C31   H56   S    
C72   C180  S    
O32   Zn10  S    
C13   C120  A    
C172  C178  A    
C97   H19   S    
C63   O44   A    
O16   Zn6   S    
C4    C88   A    
O48   Zn9   S    
C112  C147  A    
C88   H10   S    
O34   Zn11  S    
C161  H85   S    
O19   Zn7   S    
O9    Zn11  S    
C40   H6    S    
O3    Zn6   S    
O6    Zn14  S    
C38   H4    S    
C52   C81   S    
C74   O27   A    
C4    C93   A    
O49   Zn7   S    
C1    C24   S    
C6    C95   A    
O23   Zn6   S    
C127  C182  S    
C141  H65   S    
O35   Zn12  S    
C139  C174  A    
C124  H49   S    
C68   C125  A    
C75   O28   A    
O41   Zn15  S    
O21   Zn16  S    
C33   H78   S    
C35   C171  S    
C132  C167  A    
C41   H7    S    
C97   C100  A    
O1    Zn4   S    
C136  C149  A    
C70   O22   A    
C165  C176  A    
C2    C112  A    
C111  H36   S    
O37   Zn14  S    
C59   C83   S    
O34   Zn15  S    
O22   Zn7   S    
C121  H46   S    
O46   Zn11  S    
O52   Zn4   S    
O39   Zn1   S    
O24   Zn8   S    
C20   C86   A    
C141  C176  A    
C66   O43   A    
C58   O10   A    
O12   Zn3   S    
C150  H74   S    
C9    I9    S    
C137  H62   S    
C28   H23   S    
C39   H5    S    
O2    Zn3   S    
C19   I3    S    
O7    Zn9   S    
O27   Zn3   S    
C157  C181  A    
C134  H59   S    
C23   I7    S    
O17   Zn5   S    
C91   H13   S    
C105  C132  A    
O14   Zn4   S    
C130  H54   S    
C170  C177  A    
C95   H17   S    
C76   C176  S    
C13   C105  S    
C65   O18   A    
O1    Zn8   S    
C54   O50   A    
C4    C44   S    
C98   H20   S    
C169  H94   S    
C89   C95   A    
C139  H63   S    
O25   Zn5   S    
O11   Zn13  S    
C104  H26   S    
C156  H81   S    
O12   Zn7   S    
C131  H55   S    
C151  H75   S    
C119  C154  A    
C154  H79   S    
C22   I6    S    
C41   C50   A    
C56   O9    A    
C9    C27   A    
C106  C141  A    
C101  H29   S    
C7    C94   A    
C166  C173  A    
C12   C30   A    
O10   Zn10  S    
C125  C161  A    
C25   C42   A    
C153  C188  A    
C168  C179  A    
C10   C81   A    
C57   C124  A    
C56   C85   S    
C140  C175  A    
C69   O41   A    
C16   I15   S    
C102  C190  A    
C122  C157  A    
C14   I13   S    
C111  C182  A    
C92   H14   S    
C129  C164  A    
C34   H89   S    
C126  H51   S    
C101  C116  A    
C147  H72   S    
C26   H1    S    
C18   C36   A    
C52   O52   A    
C108  C143  A    
C36   C49   A    
O5    Zn15  S    
C39   C48   A    
C54   C78   S    
C135  C138  A    
O23   Zn10  S    
C90   C139  A    
C162  H86   S    
C52   O45   A    
C15   C81   A    
C72   O36   A    
C7    C45   S    
C46   C128  A    
C110  H35   S    
O1    Zn1   S    
C98   C104  A    
C135  C170  A    
C74   O33   A    
C6    C91   A    
C7    C89   A    
C124  C159  A    
C87   C93   A    
O15   Zn3   S    
C163  C187  A    
O12   Zn9   S    
C116  C129  A    
C88   C92   A    
C72   O25   A    
C12   C78   A    
C140  H64   S    
C14   C80   A    
C55   O4    A    
C167  H92   S    
C64   O46   A    
C12   I12   S    
C8    C78   A    
C101  C140  A    
C26   C43   A    
C107  H31   S    
C61   O14   A    
C28   C45   A    
C128  H52   S    
C31   C44   A    
C27   H12   S    
C161  C189  A    
C162  C186  A    
C109  H33   S    
C155  C184  A    
C63   C189  S    
C128  C163  A    
C71   C173  S    
O23   Zn14  S    
C17   C83   A    
C9    C80   A    
C22   C84   A    
C159  C188  A    
C35   C126  A    
C59   O11   A    
C16   C33   A    
C10   I10   S    
C20   C38   A    
C118  H42   S    
C122  H47   S    
C21   C39   A    
C144  C179  A    
C148  C184  A    
C22   C40   A    
C16   C82   A    
C77   O30   A    
C107  C142  A    
C67   O40   A    
C103  H25   S    
O1    Zn12  S    
C97   C190  A    
C89   H11   S    
O4    Zn5   S    
C134  C171  A    
C25   I8    S    
C100  C191  A    
C30   H45   S    
C93   H15   S    
C5    C87   A    
C123  H48   S    
C147  C183  A    
C32   H67   S    
C153  H77   S    
C143  H68   S    
O18   Zn8   S    
C123  C158  A    
C42   C51   A    
C53   O2    A    
C42   H8    S    
C66   O19   A    
C127  C130  A    
O34   Zn16  S    
C120  H44   S    
C59   O7    A    
C60   C84   S    
O44   Zn10  S    
C106  H30   S    
C33   C47   A    
C25   C86   A    
C117  C152  A    
O40   Zn14  S    
C5    C92   A    
C56   O5    A    
C69   C184  S    
C108  C149  A    
C73   C179  S    
C168  H93   S    
C122  C182  A    
C11   C29   A    
C77   C175  S    
C23   C85   A    
O33   Zn13  S    
C145  H70   S    
C114  C150  A    
C164  H88   S    
C126  C162  A    
O13   Zn12  S    
C133  H58   S    
C13   C113  A    
C51   C192  S    
O47   Zn1   S    
C60   O13   A    
