data_mof_unit_33494.cif
_audit_creation_date              2013-03-05T16:48:44-0500
_audit_creation_method            fapswitch 2.2
_symmetry_space_group_name_H-M    P1
_symmetry_Int_Tables_number       1
_space_group_crystal_system       triclinic
_cell_length_a                    27.487336
_cell_length_b                    8.933171
_cell_length_c                    8.104523
_cell_angle_alpha                 89.993684
_cell_angle_beta                  90.023902
_cell_angle_gamma                 88.191159
_cell_volume                      1989.06627739

loop_
_atom_site_label
_atom_site_type_symbol
_atom_site_description
_atom_site_fract_x
_atom_site_fract_y
_atom_site_fract_z
_atom_type_partial_charge
O1    O     O_R   0.500000 0.285350 0.636850 -0.613161
O2    O     O_R   0.500000 0.714650 0.363150 -0.612933
O3    O     O_R   0.500000 0.714650 0.636850 -0.613327
O4    O     O_R   0.500000 0.285350 0.363150 -0.613026
C1    C     C_R   0.500136 0.217972 0.500006 0.944796
C2    C     C_R   0.499864 0.782028 0.499995 0.944715
O5    O     O_R   0.428760 0.500000 0.636860 -0.622425
O6    O     O_R   0.571240 0.500000 0.363140 -0.620757
O7    O     O_R   0.571240 0.500000 0.636860 -0.622682
O8    O     O_R   0.428760 0.500000 0.363140 -0.620715
C3    C     C_R   0.405516 0.504500 0.500227 0.866259
C4    C     C_R   0.594491 0.495561 0.500307 0.866460
Zn1   Zn    Zn3+2 0.500000 0.500000 0.682780 0.992300
Zn2   Zn    Zn3+2 0.500000 0.500000 0.317220 0.993904
C5    C     C_R   0.182392 0.413690 0.577974 0.532733
C6    C     C_R   0.817703 0.587712 0.577879 0.532632
C7    C     C_R   0.170735 0.672836 0.510348 0.501425
C8    C     C_R   0.829351 0.328575 0.510295 0.501399
O9    O     O_2   0.213511 0.294865 0.596249 -0.490282
O10   O     O_2   0.786591 0.706560 0.595980 -0.490184
O11   O     O_2   0.190559 0.802409 0.463641 -0.485783
O12   O     O_2   0.809519 0.198987 0.463666 -0.485736
N1    N     N_R   0.200059 0.548261 0.531216 -0.369958
N2    N     N_R   0.800018 0.453084 0.531375 -0.369936
C9    C     C_R   0.278989 0.582713 0.657114 -0.117583
C10   C     C_R   0.725706 0.474853 0.365615 -0.101909
C11   C     C_R   0.274269 0.522390 0.365750 -0.102046
C12   C     C_R   0.721147 0.422119 0.658798 -0.117880
C13   C     C_R   0.329254 0.565086 0.651307 -0.197929
C14   C     C_R   0.675130 0.490909 0.358783 -0.206394
C15   C     C_R   0.324834 0.506044 0.359100 -0.206040
C16   C     C_R   0.670881 0.439380 0.652755 -0.197293
C17   C     C_R   0.251438 0.558823 0.515411 0.312595
C18   C     C_R   0.748621 0.442369 0.516223 0.312914
C19   C     C_R   0.101341 0.527076 0.587732 -0.187264
C20   C     C_R   0.898764 0.474382 0.587547 -0.187273
C21   C     C_R   0.132466 0.399150 0.606668 -0.128019
C22   C     C_R   0.867639 0.602291 0.606467 -0.128083
C23   C     C_R   0.120424 0.665862 0.539527 -0.120603
C24   C     C_R   0.879676 0.335600 0.539331 -0.120590
C25   C     C_R   0.112946 0.261416 0.654808 0.542464
C26   C     C_R   0.887165 0.740029 0.654579 0.542631
C27   C     C_R   0.088515 0.791644 0.519703 0.514612
C28   C     C_R   0.911587 0.209847 0.519476 0.514667
C29   C     C_R   0.352509 0.524088 0.502990 -0.039396
C30   C     C_R   0.647524 0.476425 0.503347 -0.039612
C31   C     C_R   0.980291 0.357364 0.606552 0.031186
C32   C     C_R   0.019820 0.644105 0.606637 0.031214
C33   C     C_R   0.969239 0.629479 0.629466 0.008937
C34   C     C_R   0.030872 0.371981 0.629522 0.008956
C35   C     C_R   0.949397 0.486720 0.610495 0.070456
C36   C     C_R   0.050712 0.514744 0.610618 0.070459
C37   C     C_R   0.960426 0.219697 0.564121 -0.367194
C38   C     C_R   0.039685 0.781791 0.564306 -0.367251
C39   C     C_R   0.937689 0.753289 0.660598 -0.353222
C40   C     C_R   0.062421 0.248162 0.660731 -0.353265
C41   C     C_1   0.500047 0.065184 0.500010 -0.185527
C42   C     C_1   0.499951 0.934816 0.499994 -0.185511
N3    N     N_1   0.500000 0.500000 0.073640 -0.035346
N4    N     N_1   0.500000 0.500000 0.926360 -0.035975
H1    H     H_    0.342098 0.475581 0.243254 0.160501
H2    H     H_    0.650407 0.425469 0.765593 0.162511
H3    H     H_    0.349813 0.581878 0.763477 0.162482
H4    H     H_    0.657800 0.518222 0.242089 0.160413
H5    H     H_    0.252749 0.501512 0.256677 0.128747
H6    H     H_    0.739030 0.399105 0.775627 0.124798
H7    H     H_    0.261174 0.608789 0.773270 0.125219
H8    H     H_    0.747164 0.492850 0.255764 0.128427
O13   O     O_3   0.142969 0.135307 0.675996 -0.494391
C43   C     C_3   0.141393 0.088352 0.842121 0.132324
H9    H     H_    0.106458 0.033589 0.868180 0.114640
H10   H     H_    0.146203 0.184086 0.928384 0.116084
C44   C     C_3   0.182516 0.974016 0.873558 -0.708577
H11   H     H_    0.218073 0.023037 0.843522 0.277602
H12   H     H_    0.182600 0.940278 0.005434 0.191982
H13   H     H_    0.177517 0.873074 0.796404 0.256203
O14   O     O_3   0.857143 0.866123 0.675756 -0.494362
C45   C     C_3   0.858731 0.912981 0.841906 0.131940
H14   H     H_    0.893653 0.967827 0.868014 0.114681
H15   H     H_    0.853964 0.817186 0.928130 0.116080
C46   C     C_3   0.817579 0.027186 0.873352 -0.707951
H16   H     H_    0.782035 0.978096 0.843202 0.277720
H17   H     H_    0.817495 0.060802 0.005256 0.191801
H18   H     H_    0.822547 0.128213 0.796295 0.256285
O15   O     O_3   0.104742 0.927006 0.462071 -0.525294
C47   C     C_3   0.088939 0.948394 0.297236 0.140572
H19   H     H_    0.050676 0.914809 0.276338 0.100094
H20   H     H_    0.113203 0.882590 0.212577 0.148380
C48   C     C_3   0.091259 0.113488 0.253160 -0.814259
H21   H     H_    0.129087 0.152101 0.266125 0.279785
H22   H     H_    0.078674 0.131571 0.124601 0.172179
H23   H     H_    0.066728 0.180743 0.334673 0.253917
O16   O     O_3   0.895356 0.074503 0.461801 -0.525298
C49   C     C_3   0.911128 0.053187 0.296970 0.140445
H24   H     H_    0.949348 0.087097 0.275985 0.100075
H25   H     H_    0.886779 0.118762 0.212295 0.148440
C50   C     C_3   0.908942 0.888040 0.253024 -0.814479
H26   H     H_    0.871156 0.849114 0.266031 0.279837
H27   H     H_    0.921507 0.870008 0.124475 0.172248
H28   H     H_    0.933554 0.821027 0.334583 0.253910
H29   H     H_    0.983076 0.120051 0.549348 0.154138
H30   H     H_    0.017039 0.881459 0.549558 0.154079
H31   H     H_    0.951641 0.862070 0.688478 0.165233
H32   H     H_    0.048467 0.139377 0.688569 0.165238

loop_
_geom_bond_atom_site_label_1
_geom_bond_atom_site_label_2
_geom_bond_distance
_ccdc_geom_bond_type
O5    Zn1   1.993097 S    
O14   C45   1.411238 S    
C13   H3    1.083164 S    
O16   C49   1.415660 S    
C14   H4    1.083107 S    
C44   H11   1.110602 S    
C15   H1    1.083055 S    
C19   C23   1.416330 A    
C9    H7    1.083277 S    
O3    C2    1.261826 A    
C50   H28   1.107672 S    
C50   H26   1.110719 S    
Zn1   N4    1.974100 S    
O15   C47   1.415658 S    
C11   C17   1.399567 A    
C32   C38   1.403983 A    
Zn2   N3    1.974100 S    
C7    N1    1.363791 A    
O1    C1    1.261867 A    
C19   C21   1.414063 A    
C22   C26   1.412687 A    
C32   C36   1.412640 A    
O13   C43   1.411236 S    
C45   H15   1.115720 S    
C39   H31   1.079790 S    
C7    C23   1.406406 A    
O7    Zn1   1.993399 S    
C5    C21   1.402075 A    
C8    C24   1.406434 A    
C28   O16   1.383237 S    
C46   H17   1.110411 S    
C5    O9    1.350148 S    
C28   C37   1.395658 A    
C10   C18   1.399493 A    
C37   H29   1.076771 S    
N1    C17   1.424218 S    
C34   C36   1.411124 A    
C43   H9    1.111680 S    
C48   H22   1.107915 S    
O3    Zn1   1.953261 S    
C6    O10   1.350131 S    
C31   C37   1.403983 A    
C5    N1    1.364362 A    
C12   C18   1.395530 A    
N3    N4    1.193633 T    
C6    N2    1.364400 A    
C21   C25   1.412706 A    
C44   H12   1.110425 S    
O2    C2    1.261876 A    
C50   H27   1.107902 S    
C38   H30   1.076759 S    
O5    C3    1.278214 A    
C31   C34   1.412777 A    
C9    C13   1.386459 A    
C11   C15   1.394015 A    
C27   O15   1.383260 S    
C12   C16   1.386266 A    
C40   H32   1.079796 S    
C4    C30   1.462528 S    
O8    Zn2   1.993402 S    
C45   H14   1.111681 S    
C31   C35   1.412638 A    
C46   H16   1.110601 S    
C49   C50   1.520729 S    
C33   C35   1.411145 A    
C33   C39   1.406650 A    
C34   C40   1.406654 A    
C13   C29   1.404852 A    
C12   H6    1.083325 S    
C25   C40   1.398392 A    
C11   H5    1.082905 S    
C26   C39   1.398381 A    
C27   C38   1.395640 A    
C20   C24   1.416339 A    
O6    C4    1.282057 A    
C43   C44   1.520757 S    
C48   H23   1.107684 S    
C49   H25   1.112131 S    
C20   C35   1.411819 A    
C32   C33   1.412797 A    
C10   C14   1.394144 A    
C44   H13   1.109445 S    
C8    N2    1.363794 A    
C3    C29   1.462173 S    
O1    Zn1   1.953343 S    
C46   H18   1.109448 S    
C47   H19   1.115621 S    
C25   O13   1.385929 S    
O6    Zn2   1.993094 S    
C8    O12   1.349014 S    
C16   C30   1.404917 A    
C14   C30   1.404332 A    
O4    C1    1.261834 A    
C47   C48   1.520718 S    
C23   C27   1.412539 A    
C1    C41   1.364956 S    
C10   H8    1.082928 S    
C20   C22   1.414039 A    
C16   H2    1.083180 S    
C45   C46   1.520757 S    
C41   C42   1.164692 T    
C47   H20   1.112151 S    
C2    C42   1.364954 S    
O4    Zn2   1.953262 S    
C49   H24   1.115627 S    
O2    Zn2   1.953342 S    
O7    C4    1.278212 A    
N2    C18   1.424279 S    
O8    C3    1.281866 A    
C24   C28   1.412527 A    
C26   O14   1.385918 S    
C15   C29   1.404154 A    
C9    C17   1.395525 A    
C19   C36   1.411785 A    
C43   H10   1.115711 S    
C48   H21   1.110732 S    
C6    C22   1.402052 A    
C7    O11   1.349039 S    
