data_mof_unit_21620.cif
_audit_creation_date              2013-03-05T16:05:42-0500
_audit_creation_method            fapswitch 2.2
_symmetry_space_group_name_H-M    P1
_symmetry_Int_Tables_number       1
_space_group_crystal_system       triclinic
_cell_length_a                    8.21884
_cell_length_b                    15.046603
_cell_length_c                    16.455857
_cell_angle_alpha                 111.698867
_cell_angle_beta                  97.50527
_cell_angle_gamma                 81.53521
_cell_volume                      1863.78553343

loop_
_atom_site_label
_atom_site_type_symbol
_atom_site_description
_atom_site_fract_x
_atom_site_fract_y
_atom_site_fract_z
_atom_type_partial_charge
P1    P     P_3+3 0.592580 0.619730 0.703530 0.507524
O1    O     O_2   0.428380 0.595290 0.716080 -0.354598
O2    O     O_3   0.649320 0.571640 0.606850 -0.405718
O3    O     O_3   0.202060 0.415890 0.655600 -0.396917
O4    O     O_2   0.359427 0.508607 0.808917 -0.348753
O5    O     O_3   0.565365 0.745298 0.736804 -0.527365
O6    O     O_3   0.281203 0.340871 0.792428 -0.522829
H1    H     H_    0.289181 0.246438 0.663936 0.152240
C1    C     C_3   0.252225 0.174078 0.749651 -0.927707
H2    H     H_    0.386148 0.158639 0.766205 0.311681
H3    H     H_    0.184390 0.187147 0.807822 0.247789
P2    P     P_3+3 0.156500 0.273340 0.422460 0.477103
P3    P     P_3+3 0.655418 0.240916 0.603426 0.468077
O7    O     O_2   0.338780 0.265250 0.448290 -0.387386
O8    O     O_3   0.612600 0.359160 0.609560 -0.368541
O9    O     O_2   0.513273 0.185848 0.544495 -0.362580
O10   O     O_3   0.142745 0.219731 0.307924 -0.545834
O11   O     O_3   0.632208 0.241889 0.707954 -0.497564
C2    C     C_3   0.767330 0.281224 0.764823 0.397684
H4    H     H_    0.797095 0.347066 0.756529 0.056571
H5    H     H_    0.876106 0.226160 0.753229 0.051768
C3    C     C_3   0.726670 0.309137 0.859198 -0.869344
H6    H     H_    0.620312 0.365900 0.873351 0.275568
H7    H     H_    0.695219 0.245418 0.870275 0.272962
C4    C     C_3   0.672377 0.221727 0.332848 0.189352
H8    H     H_    0.808422 0.217778 0.346198 0.116698
H9    H     H_    0.614250 0.267774 0.393829 0.126197
C5    C     C_3   0.615663 0.121158 0.303041 -0.108085
H10   H     H_    0.639328 0.080940 0.233097 0.158151
H11   H     H_    0.480471 0.127524 0.307819 0.151189
Ba1   Ba    Ba6+2 0.364200 0.465260 0.540910 1.591017
C6    C     C_3   0.488359 0.773669 0.668161 0.228704
H12   H     H_    0.378575 0.734868 0.638491 0.057611
H13   H     H_    0.575421 0.758746 0.617395 0.101617
C7    C     C_3   0.432241 0.881738 0.704549 -0.096060
H14   H     H_    0.335395 0.896370 0.750433 0.142154
H15   H     H_    0.377372 0.905715 0.649916 0.052963
C8    C     C_3   0.171999 0.285683 0.271389 0.406265
H16   H     H_    0.296534 0.308899 0.295059 0.079470
H17   H     H_    0.077331 0.349016 0.288118 0.129691
C9    C     C_3   0.162993 0.236538 0.172060 -0.931542
H18   H     H_    0.261032 0.175094 0.153348 0.265760
H19   H     H_    0.180193 0.287850 0.140755 0.211286
H20   H     H_    0.040444 0.209696 0.147446 0.274968
P4    P     P_3+3 0.597130 0.380190 0.296460 0.477237
O12   O     O_2   0.761310 0.404670 0.283870 -0.345753
O13   O     O_3   0.540390 0.428280 0.393140 -0.408823
O14   O     O_3   0.987650 0.584030 0.344390 -0.360960
O15   O     O_3   0.629221 0.254605 0.262872 -0.579134
P5    P     P_3+3 0.542012 0.759794 0.395533 0.518602
O16   O     O_3   0.122140 0.620560 0.549160 -0.383190
O17   O     O_3   0.577110 0.640760 0.390430 -0.412198
O18   O     O_2   0.701909 0.807828 0.436903 -0.393256
O19   O     O_3   0.515823 0.757727 0.286938 -0.492383
Ba2   Ba    Ba6+2 0.825640 0.534660 0.459080 1.587311
P6    P     P_3+3 0.216329 0.445416 0.768716 0.480111
C10   C     C_3   0.222198 0.262049 0.722902 0.501057
H21   H     H_    0.087914 0.275840 0.706286 -0.047601
H22   H     H_    0.208749 0.110582 0.694957 0.209127
O20   O     O_3   0.067570 0.379360 0.450830 -0.406831
C11   C     C_3   0.038154 0.741190 0.738974 0.185875
H23   H     H_    0.916912 0.711661 0.720267 0.099004
H24   H     H_    0.139838 0.681729 0.725027 0.139193
C12   C     C_3   0.050793 0.802617 0.836800 -0.101886
H25   H     H_    0.940635 0.856734 0.851245 0.190959
H26   H     H_    0.161603 0.842422 0.853163 0.145968
P7    P     P_3+3 0.040258 0.741967 0.580694 0.440299
O21   O     O_2   0.850910 0.734710 0.551660 -0.363003
O22   O     O_3   0.051832 0.802457 0.694332 -0.607159
H27   H     H_    0.834930 0.337265 0.904624 0.194420
C13   C     C_3   0.525239 0.661265 0.228332 0.507479
H28   H     H_    0.646317 0.623161 0.238263 0.134398
H29   H     H_    0.432602 0.621553 0.238794 0.111170
C14   C     C_3   0.496223 0.655623 0.133140 -0.891764
H30   H     H_    0.505471 0.579046 0.088864 0.209916
H31   H     H_    0.371537 0.690116 0.120666 0.302750
H32   H     H_    0.589621 0.690606 0.116468 0.266196
P8    P     P_3+3 0.977289 0.548888 0.228864 0.453736
C15   C     C_3   0.929135 0.733163 0.247787 0.774859
O23   O     O_2   0.853283 0.473333 0.187419 -0.427065
O24   O     O_3   0.897381 0.641162 0.188105 -0.605137
H33   H     H_    0.882410 0.746751 0.312002 0.084562
H34   H     H_    0.882429 0.879222 0.247009 0.290542
C16   C     C_3   0.836990 0.808426 0.211165 -0.847450
H35   H     H_    0.703492 0.817808 0.218978 0.258494
H36   H     H_    0.856084 0.787234 0.140560 0.272519
C17   C     C_2   0.292690 0.469749 0.245171 -0.499557
C18   C     C_R   0.895853 0.530769 0.752197 -0.519057
C19   C     C_2   0.483755 0.384198 0.132070 -0.284240
C20   C     C_2   0.453577 0.417827 0.217298 0.285641
C21   C     C_2   0.177673 0.491829 0.188152 0.294093
C22   C     C_3   0.226151 0.483159 0.099481 -0.049256
C23   C     C_3   0.353186 0.396168 0.062329 0.041142
C24   C     C_2   0.086153 0.489055 0.032164 -0.152777
C25   C     C_2   0.114139 0.512416 0.964450 -0.067200
C26   C     C_R   0.824891 0.569863 0.923970 0.103495
C27   C     C_R   0.982628 0.526779 0.898297 -0.018300
C28   C     C_R   0.705205 0.594773 0.865002 -0.198385
C29   C     C_R   0.740998 0.576300 0.778907 0.324613
C30   C     C_R   0.017560 0.507020 0.811247 0.226292
H37   H     H_    0.598185 0.339866 0.111183 0.184205
H38   H     H_    0.586793 0.630970 0.887480 0.190426
H39   H     H_    0.264999 0.484521 0.311908 0.176642
H40   H     H_    0.923384 0.516497 0.685730 0.177549
H41   H     H_    0.964130 0.473364 0.037589 0.167173
H42   H     H_    0.239377 0.522784 0.958335 0.182151
C31   C     C_R   0.857178 0.188966 0.557671 0.160656
H43   H     H_    0.873882 0.313564 0.525857 0.171777
H44   H     H_    0.744274 0.068819 0.619311 0.204165
C32   C     C_R   0.074896 0.205515 0.479298 0.324358
C33   C     C_R   0.274597 0.771231 0.488418 -0.431144
C34   C     C_R   0.361550 0.823319 0.457386 0.347515
C35   C     C_R   0.300515 0.917564 0.464561 -0.231587
C36   C     C_R   0.151000 0.961712 0.503928 0.040560
C37   C     C_R   0.067213 0.907684 0.537796 -0.029163
C38   C     C_R   0.081159 0.057284 0.510731 0.086521
C39   C     C_R   0.931557 0.096463 0.552604 0.032470
C40   C     C_R   0.857130 0.042026 0.587235 -0.146775
C41   C     C_R   0.923750 0.950353 0.580535 -0.066521
C42   C     C_R   0.149841 0.113720 0.473875 -0.198960
C43   C     C_R   0.931947 0.243197 0.522904 -0.497628
C44   C     C_R   0.128845 0.811839 0.528492 0.205928
H45   H     H_    0.257930 0.087236 0.437814 0.173079
H46   H     H_    0.321189 0.697810 0.481207 0.168310
H47   H     H_    0.371280 0.953583 0.437974 0.186329
H48   H     H_    0.858321 0.913230 0.608725 0.202324
N1    N     N_R   0.703664 0.066573 0.355018 0.238616
O25   O     O_R   0.861379 0.042539 0.349938 -0.433141
O26   O     O_R   0.622373 0.027446 0.393344 -0.374666
N2    N     N_R   0.570084 0.936790 0.750411 0.276844
O27   O     O_R   0.631229 0.935989 0.827181 -0.349190
O28   O     O_R   0.617681 0.996560 0.720334 -0.435907
N3    N     N_R   0.062975 0.744599 0.891569 0.233735
O29   O     O_R   0.950943 0.760259 0.945682 -0.382504
O30   O     O_R   0.201594 0.693789 0.900850 -0.393795
N4    N     N_R   0.105778 0.741962 0.260534 0.210216
O31   O     O_R   0.197050 0.699912 0.308804 -0.493802
O32   O     O_R   0.170110 0.799331 0.233736 -0.376700

loop_
_geom_bond_atom_site_label_1
_geom_bond_atom_site_label_2
_geom_bond_distance
_ccdc_geom_bond_type
O14   Ba2   2.805567 S    
O5    C6    1.396055 S    
C24   H41   1.085442 S    
C17   C21   1.338182 D    
C9    H18   1.110772 S    
O4    P6    1.544582 D    
C2    H4    1.113563 S    
H43   C43   1.081841 S    
P3    C31   1.853916 S    
P1    C29   1.850130 S    
P2    C32   1.854010 S    
C36   C37   1.430312 A    
C5    N1    1.453354 S    
P4    O12   1.508371 D    
C4    C5    1.531923 S    
C15   N4    1.457993 S    
P5    O19   1.761011 S    
C14   H31   1.108564 S    
P3    O11   1.749749 S    
C5    H10   1.112473 S    
C7    H15   1.108059 S    
C16   H36   1.111391 S    
O11   C2    1.404221 S    
C32   C43   1.392832 A    
C8    H16   1.105372 S    
P8    O23   1.543527 D    
C35   H47   1.076107 S    
C11   O22   1.398216 S    
P1    Ba1   3.385189 S    
C38   C39   1.428878 A    
P1    O1    1.508043 D    
O14   P8    1.768779 S    
C11   H24   1.108914 S    
C40   C41   1.376813 A    
O2    Ba2   2.829374 S    
O19   C13   1.412114 S    
C7    H14   1.111143 S    
C14   H32   1.105592 S    
C26   C28   1.400282 A    
O12   Ba2   2.855575 S    
P5    O17   1.743886 S    
C1    H2    1.110356 S    
O7    Ba1   2.851965 S    
O16   Ba2   2.893647 S    
O17   Ba2   2.787101 S    
C37   C44   1.414823 A    
Ba1   O13   2.828739 S    
Ba2   O20   2.810781 S    
O3    P6    1.738629 S    
C33   C44   1.391448 A    
C9    H19   1.107576 S    
C11   H23   1.110951 S    
O6    P6    1.750322 S    
P5    C34   1.845821 S    
C34   C35   1.399557 A    
C18   H40   1.081803 S    
H44   C40   1.077938 S    
Ba2   O21   2.852203 S    
P4    O13   1.585998 S    
P5    O18   1.547558 D    
C14   H30   1.110019 S    
P7    O21   1.574560 D    
O3    Ba1   2.806207 S    
C6    C7    1.531911 S    
C2    C3    1.520491 S    
C16   H35   1.103689 S    
C8    C9    1.521430 S    
N4    O32   1.302268 A    
C32   C42   1.402797 A    
C21   C22   1.516812 S    
C15   O24   1.408201 S    
C4    H8    1.108115 S    
C28   H38   1.081481 S    
C38   C42   1.420901 A    
O1    Ba1   2.855107 S    
C1    H22   1.109574 S    
C42   H45   1.076461 S    
C6    H13   1.109276 S    
Ba1   O20   2.894544 S    
P2    O10   1.750096 S    
C11   C12   1.529995 S    
N2    O28   1.300044 A    
N1    O26   1.300461 A    
C25   H42   1.086228 S    
H1    C10   1.110294 S    
C15   H33   1.108622 S    
H34   C16   1.103214 S    
P4    O15   1.750654 S    
C26   C27   1.404480 A    
C22   C24   1.506169 S    
O16   P7    1.757155 S    
O2    Ba1   2.895953 S    
P4    C20   1.832210 S    
C1    H3    1.110762 S    
C7    N2    1.459402 S    
C18   C30   1.403616 A    
C17   H39   1.084978 S    
P2    O7    1.502698 D    
C37   C41   1.398923 A    
P3    O8    1.729629 S    
P2    Ba1   3.387073 S    
N3    O29   1.300561 A    
C9    H20   1.110801 S    
C3    H7    1.110752 S    
P3    O9    1.544888 D    
P6    C30   1.841469 S    
N1    O25   1.298437 A    
P7    C44   1.852011 S    
C27   C30   1.410744 A    
C3    H27   1.110298 S    
O13   Ba2   2.896852 S    
C35   C36   1.421407 A    
P7    O22   1.747798 S    
C12   N3    1.454960 S    
C33   C34   1.393539 A    
C19   H37   1.085271 S    
C33   H46   1.082375 S    
Ba1   O16   2.811412 S    
N4    O31   1.292391 A    
C13   C14   1.525768 S    
C36   C38   1.436898 A    
C25   C27   1.482519 S    
O8    Ba1   2.786465 S    
P8    C21   1.828921 S    
C4    H9    1.108579 S    
Ba1   Ba2   4.563616 S    
C12   H25   1.111440 S    
C5    H11   1.111697 S    
N2    O27   1.300872 A    
C13   H28   1.097507 S    
C39   C40   1.397709 A    
C6    H12   1.105708 S    
C8    H17   1.110384 S    
P8    O24   1.764642 S    
C10   H21   1.109772 S    
C15   C16   1.533658 S    
C22   C23   1.532911 S    
C31   C39   1.412415 A    
C1    C10   1.520870 S    
O10   C8    1.397565 S    
C19   C23   1.508434 S    
C24   C25   1.341079 D    
C4    O15   1.399776 S    
C18   C29   1.396120 A    
P2    O20   1.578650 S    
C41   H48   1.077754 S    
P4    Ba2   3.385779 S    
C28   C29   1.401663 A    
C17   C20   1.469204 S    
C13   H29   1.100285 S    
P1    O5    1.749908 S    
N3    O30   1.300093 A    
C31   C43   1.398392 A    
C3    H6    1.110910 S    
P1    O2    1.586001 S    
C19   C20   1.346736 D    
O6    C10   1.404202 S    
C12   H26   1.112621 S    
C2    H5    1.109828 S    
