data_mof_unit_58767.cif
_audit_creation_date              2013-03-05T15:53:16-0500
_audit_creation_method            fapswitch 2.2
_symmetry_space_group_name_H-M    P1
_symmetry_Int_Tables_number       1
_space_group_crystal_system       triclinic
_cell_length_a                    11.529329
_cell_length_b                    10.624251
_cell_length_c                    9.934718
_cell_angle_alpha                 92.247103
_cell_angle_beta                  90.261877
_cell_angle_gamma                 92.561426
_cell_volume                      1214.73338286

loop_
_atom_site_label
_atom_site_type_symbol
_atom_site_description
_atom_site_fract_x
_atom_site_fract_y
_atom_site_fract_z
_atom_type_partial_charge
O1    O     O_R   0.500000 0.316780 0.614690 -0.628701
O2    O     O_R   0.499990 0.316750 0.385360 -0.634944
C1    C     C_R   0.497164 0.260427 0.497105 0.830654
O3    O     O_R   0.334450 0.500030 0.614670 -0.633339
O4    O     O_R   0.334440 0.500000 0.385330 -0.616876
C2    C     C_R   0.282028 0.498748 0.499672 0.883084
Zn1   Zn    Zn3+2 0.500010 0.500020 0.653130 1.001373
Zn2   Zn    Zn3+2 0.499990 0.499980 0.346870 0.976576
O5    O     O_R   0.500010 0.683250 0.614640 -0.566231
O6    O     O_R   0.500000 0.683220 0.385310 -0.612824
O7    O     O_R   0.665560 0.500000 0.614670 -0.579900
O8    O     O_R   0.665550 0.499970 0.385330 -0.617443
C3    C     C_R   0.508160 0.739944 0.503143 0.888869
C4    C     C_R   0.717717 0.496667 0.499936 0.908215
C5    C     C_1   0.161337 0.493983 0.498893 -0.115763
C6    C     C_1   0.058965 0.490173 0.498623 0.109871
C7    C     C_1   0.940146 0.488237 0.498839 0.132859
C8    C     C_1   0.837960 0.490206 0.499344 -0.072062
H1    H     H_    0.318813 0.102475 0.524327 0.173576
C9    C     C_R   0.711443 0.142000 0.434459 -0.332348
H2    H     H_    0.706794 0.238693 0.405811 0.192068
C10   C     C_R   0.819322 0.087207 0.429737 0.251740
C11   C     C_R   0.829382 0.964997 0.477452 0.313623
C12   C     C_R   0.729380 0.898039 0.524909 0.143481
C13   C     C_R   0.618031 0.945833 0.501745 -0.068336
C14   C     C_R   0.610946 0.072860 0.473296 0.032038
C15   C     C_R   0.503111 0.128196 0.489645 -0.014186
C16   C     C_R   0.401203 0.057891 0.512918 -0.173029
H3    H     H_    0.325018 0.873169 0.528359 0.172291
C17   C     C_R   0.405142 0.929409 0.518300 -0.134376
C18   C     C_R   0.512187 0.873760 0.512220 -0.034427
H4    H     H_    0.634030 0.639729 0.131608 0.162909
C19   C     C_R   0.347863 0.333272 0.133163 -0.206983
H5    H     H_    0.345363 0.327425 0.239894 0.221733
C20   C     C_R   0.271704 0.251170 0.059936 0.421187
C21   C     C_R   0.269985 0.252314 0.920453 -0.223302
H6    H     H_    0.210766 0.188620 0.863159 0.203565
C22   C     C_R   0.344712 0.334832 0.853499 -0.207268
H7    H     H_    0.338253 0.329414 0.746491 0.215575
C23   C     C_R   0.423585 0.418799 0.924303 0.175301
C24   C     C_R   0.424350 0.418341 0.068757 0.107320
N1    N     N_R   0.498930 0.498800 0.142780 -0.112367
C25   C     C_R   0.573682 0.576851 0.075154 -0.063927
H8    H     H_    0.635705 0.637287 0.882111 0.212136
C26   C     C_R   0.574151 0.576134 0.932293 -0.059067
N2    N     N_R   0.498900 0.498720 0.857170 -0.119921
N3    N     N_R   0.918401 0.159883 0.383214 0.250835
O9    O     O_R   0.906492 0.236526 0.285553 -0.354768
O10   O     O_R   0.016175 0.163596 0.449512 -0.329925
Cl1   Cl    Cl    0.966752 0.897182 0.475912 -0.455440
N4    N     N_R   0.741299 0.806834 0.626935 0.215359
O11   O     O_R   0.681171 0.819476 0.736721 -0.387234
O12   O     O_R   0.829730 0.735442 0.628904 -0.361212
Cl2   Cl    Cl    0.178289 0.145910 0.143987 -0.480039

loop_
_geom_bond_atom_site_label_1
_geom_bond_atom_site_label_2
_geom_bond_distance
_ccdc_geom_bond_type
C7    C8    1.179277 T    
C13   C18   1.417819 A    
O4    Zn2   1.948270 S    
C23   N2    1.379707 A    
C11   C12   1.419717 A    
H3    C17   1.084696 S    
C24   N1    1.374814 A    
C4    C8    1.391116 S    
N3    O9    1.301527 A    
O8    C4    1.287672 A    
C17   C18   1.392640 A    
Zn2   O8    1.944953 S    
C19   C24   1.408253 A    
C9    H2    1.080236 S    
C12   N4    1.439742 S    
C21   C22   1.391676 A    
C19   H5    1.065035 S    
C2    C5    1.390117 S    
N3    O10   1.301277 A    
C26   N2    1.366871 A    
C12   C13   1.422542 A    
C20   Cl2   1.755455 S    
C22   C23   1.410662 A    
H1    C16   1.084673 S    
C25   C26   1.419042 A    
C14   C15   1.406200 A    
O4    C2    1.289370 A    
C9    C14   1.407545 A    
O3    Zn1   1.944956 S    
C5    C6    1.179153 T    
C16   C17   1.370938 A    
C23   C24   1.435290 A    
C19   C20   1.391774 A    
H4    C25   1.081868 S    
C9    C10   1.396844 A    
Zn1   O7    1.948267 S    
O2    C1    1.281500 A    
C1    C15   1.408656 S    
C22   H7    1.064487 S    
O7    C4    1.291165 A    
C10   N3    1.438281 S    
N1    C25   1.366337 A    
N4    O11   1.300760 A    
Zn1   N2    2.027763 S    
H8    C26   1.077836 S    
O3    C2    1.289357 A    
C15   C16   1.389035 A    
Zn1   O5    1.998540 S    
O5    C3    1.283288 A    
C10   C11   1.408970 A    
C21   H6    1.083062 S    
C11   Cl1   1.768911 S    
N4    O12   1.298178 A    
C13   C14   1.395506 A    
O1    Zn1   1.969137 S    
C3    C18   1.419681 S    
Zn2   O6    1.969137 S    
O2    Zn2   1.998540 S    
C20   C21   1.386321 A    
Zn2   N1    2.027101 S    
C6    C7    1.369155 S    
O1    C1    1.291204 A    
O6    C3    1.296549 A    
