data_mof_unit_57179.cif
_audit_creation_date              2012-12-11T16:17:36-0500
_audit_creation_method            fapswitch 2.2
_symmetry_space_group_name_H-M    P1
_symmetry_Int_Tables_number       1
_space_group_crystal_system       triclinic
_cell_length_a                    6.914499
_cell_length_b                    28.808205
_cell_length_c                    32.102441
_cell_angle_alpha                 101.183723
_cell_angle_beta                  89.468423
_cell_angle_gamma                 90.361851
_cell_volume                      6272.85494351

loop_
_atom_site_label
_atom_site_type_symbol
_atom_type_description
_atom_site_fract_x
_atom_site_fract_y
_atom_site_fract_z
_atom_type_partial_charge
O1    O     O_R   0.494350 0.453160 0.452490 -0.543468
O2    O     O_R   0.820990 0.455850 0.538220 -0.524770
O3    O     O_R   0.994300 0.546840 0.547510 -0.539671
C1    C     C_R   0.651660 0.446261 0.552243 0.809500
O4    O     O_R   0.823860 0.447580 0.452250 -0.536609
O5    O     O_R   0.997190 0.538510 0.460920 -0.546519
C2    C     C_R   0.655673 0.434272 0.436601 0.735860
O6    O     O_R   0.491450 0.461490 0.539080 -0.502069
O7    O     O_3   0.661790 0.529840 0.502950 -0.371821
V1    V     V_3+5 0.935470 0.494460 0.499450 1.556998
O8    O     O_R   0.327090 0.544150 0.461780 -0.541930
C3    C     C_R   0.158987 0.555457 0.449197 0.704654
O9    O     O_R   0.324210 0.552420 0.547750 -0.522305
C4    C     C_R   0.155090 0.564970 0.563791 0.750484
V2    V     V_3+5 0.435840 0.505540 0.500550 1.563247
O10   O     O_3   0.159650 0.470160 0.497050 -0.342928
C5    C     C_R   0.015400 0.641431 0.605727 0.349870
C6    C     C_R   0.999584 0.674705 0.643720 -0.130871
H1    H     H_    0.900745 0.704009 0.645012 0.182925
C7    C     C_R   0.114514 0.672302 0.679014 -0.174329
C8    C     C_R   0.243587 0.633885 0.676512 0.289268
C9    C     C_R   0.257559 0.599179 0.638764 0.215970
C10   C     C_R   0.144732 0.602735 0.602854 -0.262665
N1    N     N_R   0.259956 0.728220 0.739368 -0.210936
N2    N     N_R   0.248047 0.764044 0.772518 -0.241492
C11   C     C_R   0.075458 0.784774 0.784968 0.507520
N3    N     N_R   0.914490 0.767474 0.763135 -0.235976
N4    N     N_R   0.926538 0.731584 0.729904 -0.243109
C12   C     C_R   0.099640 0.711021 0.717355 0.587960
C13   C     C_R   0.904362 0.829746 0.849345 -0.107856
H2    H     H_    0.786798 0.804351 0.843456 0.180939
C14   C     C_R   0.896260 0.865532 0.885757 -0.156623
H3    H     H_    0.771580 0.866860 0.906625 0.163620
C15   C     C_R   0.048116 0.898413 0.895839 -0.185348
C16   C     C_R   0.207287 0.895576 0.867090 0.255003
C17   C     C_R   0.213929 0.860119 0.829989 0.371981
C18   C     C_R   0.064110 0.825665 0.821540 -0.130960
C19   C     C_R   0.144446 0.655945 0.282183 0.656060
N5    N     N_R   0.127961 0.675706 0.324367 -0.585065
C20   C     C_R   0.105339 0.723422 0.337534 0.630029
C21   C     C_R   0.111529 0.754093 0.307946 -0.141934
C22   C     C_R   0.114515 0.734026 0.264069 -0.128513
C23   C     C_R   0.130503 0.684343 0.250807 -0.112975
C24   C     C_R   0.111017 0.804060 0.321035 0.279434
C25   C     C_R   0.093947 0.833496 0.290819 0.395923
C26   C     C_R   0.092136 0.813391 0.246881 -0.127658
C27   C     C_R   0.102665 0.763622 0.233539 -0.130348
C28   C     C_R   0.099450 0.743454 0.189655 -0.124732
C29   C     C_R   0.104981 0.693436 0.176725 0.271466
C30   C     C_R   0.130053 0.664223 0.206914 0.384489
C31   C     C_R   0.081192 0.841944 0.215618 0.697482
N6    N     N_R   0.078824 0.821956 0.173329 -0.578289
C32   C     C_R   0.092925 0.774040 0.159925 0.605434
O11   O     O_2   0.172279 0.608867 0.270888 -0.450356
O12   O     O_2   0.073038 0.740760 0.379130 -0.468990
O13   O     O_2   0.073876 0.889497 0.227139 -0.424445
O14   O     O_2   0.102722 0.756334 0.117878 -0.494102
C33   C     C_R   0.215368 0.857226 0.115324 -0.049087
H4    H     H_    0.347390 0.837643 0.116928 0.176606
C34   C     C_R   0.203190 0.887409 0.086228 -0.205904
H5    H     H_    0.325315 0.889502 0.065302 0.174647
C35   C     C_R   0.036719 0.914553 0.083981 -0.195119
C36   C     C_R   0.879534 0.910350 0.111872 0.252753
C37   C     C_R   0.887904 0.878255 0.139840 0.386626
C38   C     C_R   0.059480 0.852165 0.142338 0.195399
C39   C     C_R   0.302816 0.646616 0.381637 0.418035
C40   C     C_R   0.306510 0.619986 0.413979 0.347774
C41   C     C_R   0.151546 0.588701 0.418759 -0.316922
C42   C     C_R   0.988629 0.588036 0.392798 -0.197526
H6    H     H_    0.867458 0.564949 0.396116 0.185591
C43   C     C_R   0.977476 0.616529 0.362195 0.442243
C44   C     C_R   0.136655 0.645782 0.355807 0.065287
C45   C     C_R   0.636105 0.223351 0.838232 0.718410
N7    N     N_R   0.605869 0.175707 0.824914 -0.527084
C46   C     C_R   0.591977 0.156365 0.782505 0.700667
C47   C     C_R   0.606569 0.185253 0.751777 -0.070290
C48   C     C_R   0.629420 0.234441 0.765061 -0.015670
C49   C     C_R   0.643485 0.253699 0.808703 -0.122061
C50   C     C_R   0.596763 0.165976 0.708263 -0.220621
C51   C     C_R   0.608526 0.194942 0.677642 0.415485
C52   C     C_R   0.627275 0.244694 0.690877 -0.063196
C53   C     C_R   0.636639 0.264393 0.734794 -0.114222
C54   C     C_R   0.651331 0.314025 0.748589 -0.140312
C55   C     C_R   0.673995 0.332766 0.792690 0.400138
C56   C     C_R   0.665844 0.302694 0.821967 -0.086767
C57   C     C_R   0.637565 0.275589 0.661536 0.673312
N8    N     N_R   0.641220 0.323686 0.675393 -0.548742
C58   C     C_R   0.637408 0.343063 0.717903 0.689900
O15   O     O_2   0.657788 0.241368 0.879981 -0.469496
O16   O     O_2   0.562469 0.109394 0.770083 -0.490449
H7    H     H_    0.580005 0.128099 0.697831 0.176181
O17   O     O_2   0.643934 0.257887 0.619455 -0.448464
O18   O     O_2   0.614966 0.390223 0.730217 -0.452176
H8    H     H_    0.681062 0.318055 0.855370 0.204075
C59   C     C_R   0.801823 0.385585 0.642659 0.330361
C60   C     C_R   0.797565 0.417730 0.614859 0.328709
C61   C     C_R   0.643822 0.416044 0.585239 -0.268441
C62   C     C_R   0.489513 0.383767 0.586926 0.245766
C63   C     C_R   0.490276 0.354346 0.616897 -0.093797
H9    H     H_    0.370171 0.330324 0.618137 0.200281
C64   C     C_R   0.645255 0.354609 0.644723 0.167028
C65   C     C_R   0.732850 0.113492 0.860281 0.443603
C66   C     C_R   0.714062 0.084754 0.890916 -0.269374
H10   H     H_    0.827451 0.059698 0.893490 0.168162
C67   C     C_R   0.550793 0.087503 0.917735 -0.190175
C68   C     C_R   0.403219 0.120422 0.913626 0.192884
C69   C     C_R   0.420492 0.148793 0.882459 0.238373
C70   C     C_R   0.585921 0.145672 0.856045 0.224056
C71   C     C_R   0.480504 0.388694 0.373537 -0.187471
H11   H     H_    0.359747 0.412659 0.381118 0.137652
C72   C     C_R   0.467188 0.352195 0.337969 -0.193623
H12   H     H_    0.335727 0.349162 0.319548 0.177872
C73   C     C_R   0.620275 0.320334 0.326072 -0.067533
C74   C     C_R   0.789732 0.325682 0.351235 0.370596
C75   C     C_R   0.803390 0.363155 0.387084 0.254031
C76   C     C_R   0.647423 0.394931 0.398607 -0.139198
N9    N     N_R   0.749927 0.251861 0.274326 -0.179026
N10   N     N_R   0.735785 0.218197 0.239679 -0.265806
C77   C     C_R   0.572773 0.213079 0.215964 0.532127
N11   N     N_R   0.423822 0.243315 0.228598 -0.258464
N12   N     N_R   0.438226 0.277097 0.263426 -0.269768
C78   C     C_R   0.602021 0.282171 0.287177 0.574684
C79   C     C_R   0.398338 0.169872 0.150698 -0.095612
H13   H     H_    0.276469 0.193571 0.157960 0.158044
C80   C     C_R   0.391762 0.134032 0.114230 -0.142039
H14   H     H_    0.265107 0.131418 0.094303 0.170491
C81   C     C_R   0.546866 0.102343 0.103281 -0.108471
C82   C     C_R   0.709699 0.107384 0.130484 0.275343
C83   C     C_R   0.714988 0.143462 0.166553 -0.129897
H15   H     H_    0.841300 0.146306 0.186601 0.179400
C84   C     C_R   0.560751 0.175134 0.177217 -0.032614
O19   O     O_R   0.699050 0.038480 0.960880 -0.539690
O20   O     O_R   0.366680 0.052470 0.047720 -0.532442
O21   O     O_R   0.193410 0.961530 0.039110 -0.535750
C85   C     C_R   0.535554 0.064684 0.064135 0.772899
O22   O     O_R   0.369510 0.044100 0.961740 -0.517095
O23   O     O_R   0.196260 0.953110 0.952520 -0.526225
C86   C     C_R   0.538958 0.055192 0.948941 0.819824
O24   O     O_R   0.696210 0.046900 0.047470 -0.516573
O25   O     O_3   0.528780 0.970170 0.997070 -0.369636
V3    V     V_3+5 0.255080 0.005530 0.000540 1.594489
O26   O     O_R   0.866350 0.947520 0.952280 -0.542093
C87   C     C_R   0.035900 0.935587 0.935579 0.733599
O27   O     O_R   0.863520 0.955880 0.038260 -0.525891
C88   C     C_R   0.030812 0.946462 0.052441 0.798804
V4    V     V_3+5 0.754720 0.994440 0.999470 1.572529
O28   O     O_3   0.030880 0.029830 0.002930 -0.349627
O29   O     O_3   0.904157 0.648950 0.572150 -0.615627
H16   H     H_    0.960147 0.631564 0.545185 0.289029
O30   O     O_3   0.084572 0.882216 0.303524 -0.570915
H17   H     H_    0.070032 0.891199 0.334733 0.361240
O31   O     O_3   0.080142 0.671919 0.134897 -0.604035
H18   H     H_    0.956106 0.683743 0.125804 0.339574
O32   O     O_3   0.144713 0.615589 0.194274 -0.579405
H19   H     H_    0.159793 0.606711 0.163068 0.356414
Br1   Br    Br    0.652311 0.949478 0.115293 -0.418900
O33   O     O_3   0.726141 0.873647 0.164378 -0.595062
H20   H     H_    0.738072 0.845010 0.176893 0.298922
O34   O     O_3   0.463399 0.674158 0.377226 -0.577169
H21   H     H_    0.455822 0.686008 0.350365 0.302250
O35   O     O_3   0.464280 0.625984 0.440497 -0.589031
H22   H     H_    0.417983 0.624904 0.469584 0.299225
O36   O     O_3   0.808443 0.614425 0.339293 -0.595985
H23   H     H_    0.809719 0.639216 0.321871 0.319533
O37   O     O_3   0.598506 0.175134 0.634891 -0.578169
H24   H     H_    0.585493 0.140283 0.631274 0.314362
O38   O     O_3   0.711241 0.379866 0.808494 -0.580818
H25   H     H_    0.810927 0.390316 0.789890 0.354613
Br2   Br    Br    0.025934 0.384532 0.677621 -0.392288
O39   O     O_3   0.945275 0.450648 0.617959 -0.568436
H26   H     H_    0.891244 0.480612 0.612425 0.316605
Br3   Br    Br    0.276668 0.375623 0.548038 -0.400929
O40   O     O_3   0.893175 0.110748 0.833972 -0.589505
H27   H     H_    0.983634 0.086918 0.841091 0.321248
Br4   Br    Br    0.391626 0.626173 0.725423 -0.313728
Br5   Br    Br    0.181772 0.129894 0.951462 -0.448652
Br6   Br    Br    0.216112 0.191685 0.874935 -0.373673
O41   O     O_3   0.940428 0.294197 0.340019 -0.608684
H28   H     H_    0.050500 0.302512 0.359566 0.343167
O42   O     O_3   0.967601 0.367180 0.411334 -0.621267
H29   H     H_    0.037943 0.395105 0.404976 0.285085
Br7   Br    Br    0.928746 0.065601 0.122658 -0.479996
Br8   Br    Br    0.423232 0.545087 0.637604 -0.409082
Br9   Br    Br    0.413791 0.941847 0.874270 -0.489744
O43   O     O_3   0.366955 0.861170 0.802226 -0.592554
H30   H     H_    0.322659 0.848484 0.772979 0.319720
O44   O     O_3   0.135421 0.825300 0.362993 -0.601750
H31   H     H_    0.249113 0.810278 0.373448 0.343660

loop_
_geom_bond_atom_site_label_1
_geom_bond_atom_site_label_2
_ccdc_geom_bond_type
C4    C10   S    
N8    C58   A    
O24   V4    S    
O37   H24   S    
C21   C22   A    
O26   V4    S    
C59   C60   A    
C47   C50   A    
C1    O6    A    
C82   C83   A    
C29   C30   A    
C83   H15   S    
C52   C53   A    
C79   H13   S    
C11   C18   S    
O40   H27   S    
N6    C32   A    
C65   O40   S    
C85   O24   A    
C3    C41   S    
C11   N3    A    
O33   H20   S    
C43   O36   S    
C8    C9    A    
N4    C12   A    
C81   C85   S    
C36   Br1   S    
C15   C16   A    
C71   C72   A    
O34   H21   S    
O5    C3    A    
C19   N5    A    
C79   C80   A    
C68   C69   A    
C33   C34   A    
V2    O10   S    
C34   C35   A    
C6    H1    S    
C45   N7    A    
C42   C43   A    
N1    C12   A    
C39   O34   S    
C46   O16   S    
C67   C86   S    
N8    C64   S    
O36   H23   S    
O8    V2    S    
C55   C56   A    
C66   C67   A    
C39   C44   A    
C73   C78   S    
C16   C17   A    
C41   C42   A    
C8    Br4   S    
C35   C88   S    
C37   O33   S    
C28   C29   A    
C77   C84   S    
N5    C44   S    
N1    N2    A    
C65   C70   A    
O1    V2    S    
O7    V1    S    
C50   H7    S    
C75   O42   S    
C71   C76   A    
C62   Br3   S    
C54   C58   A    
O23   C87   A    
N11   N12   A    
N9    C78   A    
O1    C2    A    
O9    C4    A    
C69   Br6   S    
C65   C66   A    
C31   O13   S    
N10   C77   A    
N2    C11   A    
C61   C62   A    
C7    C12   S    
C28   C32   A    
C15   C87   S    
N7    C46   A    
C36   C37   A    
C40   C41   A    
C27   C28   A    
O41   H28   S    
C5    O29   S    
C82   Br7   S    
C47   C48   A    
C73   C74   A    
O25   V4    S    
O38   H25   S    
O4    C2    A    
C32   O14   S    
C57   N8    A    
O27   C88   A    
C74   O41   S    
C16   Br9   S    
C48   C49   A    
C45   C49   A    
C26   C31   A    
C31   N6    A    
C13   C18   A    
C34   H5    S    
C14   C15   A    
C2    C76   S    
O2    C1    A    
C46   C47   A    
C9    Br8   S    
C56   H8    S    
C40   O35   S    
C33   C38   A    
C54   C55   A    
C19   O11   S    
C72   H12   S    
C69   C70   A    
C20   O12   S    
C60   C61   A    
C35   C36   A    
C5    C6    A    
O32   H19   S    
C72   C73   A    
C5    C10   A    
O25   V3    S    
C59   Br2   S    
N12   C78   A    
O3    C4    A    
C49   C56   A    
O27   V4    S    
C20   C21   A    
C63   C64   A    
C62   C63   A    
O6    V2    S    
O9    V2    S    
C80   H14   S    
C21   C24   A    
C22   C23   A    
C81   C82   A    
O2    V1    S    
C51   O37   S    
N5    C20   A    
O42   H29   S    
O22   C86   A    
C80   C81   A    
V4    O28   S    
O21   C88   A    
O23   V3    S    
C58   O18   S    
C17   C18   A    
C29   O31   S    
C79   C84   A    
C9    C10   A    
C24   C25   A    
C52   C57   A    
C51   C52   A    
O5    V1    S    
C77   N11   A    
C23   C30   A    
C74   C75   A    
C67   C68   A    
O20   V3    S    
O30   H17   S    
C63   H9    S    
O19   V4    S    
C14   H3    S    
C33   H4    S    
C45   O15   S    
C19   C23   A    
C55   O38   S    
C57   O17   S    
N9    N10   A    
C37   C38   A    
O21   V3    S    
C13   C14   A    
C25   O30   S    
O43   H30   S    
C13   H2    S    
V1    O10   S    
O35   H22   S    
C48   C53   A    
C30   O32   S    
O3    V1    S    
O22   V3    S    
C59   C64   A    
C39   C40   A    
C6    C7    A    
C22   C27   A    
O7    V2    S    
C42   H6    S    
C26   C27   A    
V3    O28   S    
C24   O44   S    
N7    C70   S    
C50   C51   A    
C25   C26   A    
O4    V1    S    
C43   C44   A    
C7    C8    A    
O44   H31   S    
C53   C54   A    
O39   H26   S    
C71   H11   S    
C66   H10   S    
O20   C85   A    
C68   Br5   S    
O26   C87   A    
C17   O43   S    
C60   O39   S    
O31   H18   S    
C83   C84   A    
C1    C61   S    
O19   C86   A    
O29   H16   S    
N6    C38   S    
C75   C76   A    
O8    C3    A    
N3    N4    A    
