data_mof_unit_30951.cif
_audit_creation_date              2012-12-10T17:47:12-0500
_audit_creation_method            fapswitch 2.2
_symmetry_space_group_name_H-M    P1
_symmetry_Int_Tables_number       1
_space_group_crystal_system       triclinic
_cell_length_a                    11.680521
_cell_length_b                    14.699626
_cell_length_c                    14.955504
_cell_angle_alpha                 64.335296
_cell_angle_beta                  105.444217
_cell_angle_gamma                 101.416366
_cell_volume                      2220.83279335

loop_
_atom_site_label
_atom_site_type_symbol
_atom_type_description
_atom_site_fract_x
_atom_site_fract_y
_atom_site_fract_z
_atom_type_partial_charge
C1    C     C_R   0.477886 0.119855 0.312515 0.792488
C2    C     C_R   0.519381 0.880466 0.687315 0.782013
C3    C     C_R   0.394800 0.326864 0.002054 0.098752
C4    C     C_R   0.594375 0.672851 0.996701 0.097576
C5    C     C_R   0.510732 0.465323 0.048552 0.006650
C6    C     C_R   0.467944 0.536837 0.950295 0.010419
C7    C     C_R   0.384458 0.501553 0.881213 -0.213277
C8    C     C_R   0.597843 0.498458 0.116859 -0.217080
C9    C     C_R   0.351026 0.397960 0.903644 0.127914
C10   C     C_R   0.634320 0.600909 0.095482 0.120697
C11   C     C_R   0.743544 0.300782 0.624827 0.040797
C12   C     C_R   0.285306 0.717400 0.335456 0.044428
C13   C     C_R   0.690241 0.211967 0.610977 0.053445
C14   C     C_R   0.324354 0.797810 0.366843 0.034003
C15   C     C_R   0.506197 0.282132 0.529999 0.277753
C16   C     C_R   0.495409 0.716218 0.479436 0.275895
C17   C     C_R   0.561743 0.381597 0.516951 -0.080617
C18   C     C_R   0.471279 0.641430 0.437155 -0.070329
C19   C     C_R   0.684443 0.391989 0.565417 -0.001914
C20   C     C_R   0.364543 0.642391 0.363751 0.024681
C21   C     C_R   0.497917 0.470186 0.460140 0.023259
C22   C     C_R   0.545737 0.561077 0.470551 0.052529
C23   C     C_R   0.284418 0.000665 0.499843 0.820973
C24   C     C_R   0.715627 0.999192 0.500385 0.818621
C25   C     C_R   0.669439 0.574591 0.497842 -0.201491
C26   C     C_R   0.399338 0.476760 0.380101 -0.243562
C27   C     C_R   0.741157 0.492985 0.548459 0.157399
C28   C     C_R   0.343051 0.567071 0.323220 0.170869
C29   C     C_1   0.162969 0.001194 0.500393 -0.193473
C30   C     C_1   0.837178 0.998395 0.500281 -0.192624
C31   C     C_1   0.060233 0.000416 0.500522 -0.008441
C32   C     C_1   0.939971 0.999023 0.500404 -0.008286
C33   C     C_R   0.456526 0.188106 0.204724 -0.048856
C34   C     C_R   0.535937 0.813353 0.795118 -0.042761
C35   C     C_R   0.363909 0.221484 0.030070 -0.212946
C36   C     C_R   0.638655 0.776116 0.967858 -0.211743
C37   C     C_R   0.396230 0.152910 0.130024 -0.184288
C38   C     C_R   0.610686 0.845151 0.867980 -0.190603
C39   C     C_R   0.490805 0.291240 0.177457 -0.250572
C40   C     C_R   0.482442 0.714400 0.823935 -0.243547
C41   C     C_R   0.467493 0.361415 0.076091 0.078941
C42   C     C_R   0.512431 0.641056 0.923484 0.076332
Cu1   Cu    Cu3+1 0.469550 0.918260 0.475690 0.920645
Cu2   Cu    Cu3+1 0.530450 0.081740 0.524310 0.917172
H1    H     H_    0.420774 0.697018 0.764957 0.145903
H2    H     H_    0.530457 0.315971 0.237882 0.151148
H3    H     H_    0.651681 0.922422 0.847092 0.148612
H4    H     H_    0.368778 0.072943 0.149482 0.148932
N1    N     N_R   0.576230 0.204580 0.560790 -0.205427
N2    N     N_R   0.423770 0.795420 0.439210 -0.209717
O1    O     O_R   0.459870 0.022090 0.338120 -0.585553
O2    O     O_R   0.540130 0.977910 0.661880 -0.593108
O3    O     O_R   0.511290 0.160150 0.379180 -0.581522
O4    O     O_R   0.488710 0.839850 0.620820 -0.587003
O5    O     O_R   0.311490 0.930960 0.479480 -0.577958
O6    O     O_R   0.688510 0.069040 0.520520 -0.585277
O7    O     O_R   0.362910 0.069020 0.520540 -0.574962
O8    O     O_R   0.637090 0.930980 0.479460 -0.592703
C43   C     C_3   0.265344 0.361741 0.825659 -0.393139
C44   C     C_3   0.216078 0.443287 0.722579 -0.869263
H5    H     H_    0.164272 0.493427 0.731602 0.251471
H6    H     H_    0.289430 0.488378 0.682966 0.255717
H7    H     H_    0.155026 0.406325 0.674481 0.241858
H8    H     H_    0.311913 0.311926 0.811231 0.200567
H9    H     H_    0.187225 0.316018 0.858551 0.202195
C45   C     C_3   0.717265 0.634198 0.176466 -0.417695
C46   C     C_3   0.740976 0.552313 0.284556 -0.843257
H10   H     H_    0.655644 0.514175 0.308785 0.265908
H11   H     H_    0.796054 0.495854 0.290100 0.246343
H12   H     H_    0.791252 0.587943 0.337244 0.250567
H13   H     H_    0.804399 0.667107 0.153502 0.202292
H14   H     H_    0.676452 0.694195 0.180465 0.202298
H15   H     H_    0.709211 0.651737 0.471557 0.153312
H16   H     H_    0.374622 0.415723 0.354459 0.145342
H17   H     H_    0.312582 0.190672 0.976076 0.127513
H18   H     H_    0.700212 0.804172 0.020437 0.130167
H19   H     H_    0.343418 0.553681 0.808887 0.157354
H20   H     H_    0.642143 0.444355 0.186784 0.163695
C47   C     C_3   0.876565 0.516543 0.576441 -0.419117
C48   C     C_3   0.924915 0.628505 0.544051 -0.884967
H21   H     H_    0.901829 0.669750 0.460579 0.256531
H22   H     H_    0.889411 0.664885 0.581187 0.253777
H23   H     H_    0.023625 0.634276 0.568375 0.251075
H24   H     H_    0.906400 0.484660 0.659596 0.208740
H25   H     H_    0.920894 0.482889 0.542326 0.206745
C49   C     C_3   0.276556 0.585054 0.215432 -0.449918
C50   C     C_3   0.354537 0.574849 0.153396 -0.790963
H26   H     H_    0.438333 0.625661 0.155654 0.262049
H27   H     H_    0.376086 0.495518 0.182521 0.250188
H28   H     H_    0.306441 0.597110 0.073259 0.240688
H29   H     H_    0.195701 0.530293 0.217059 0.200208
H30   H     H_    0.249935 0.663319 0.173282 0.208326
C51   C     C_3   0.585177 0.698016 0.579629 -0.337840
C52   C     C_3   0.536696 0.611878 0.667644 -0.831324
H31   H     H_    0.444835 0.623849 0.664586 0.246945
H32   H     H_    0.534696 0.537856 0.663767 0.253270
H33   H     H_    0.594382 0.609225 0.740791 0.247293
H34   H     H_    0.611846 0.764986 0.595731 0.247842
H35   H     H_    0.674443 0.683689 0.582068 0.159073
C53   C     C_3   0.374642 0.257281 0.534679 -0.374286
C54   C     C_3   0.357166 0.180859 0.640438 -0.773050
H36   H     H_    0.405253 0.112810 0.667884 0.281685
H37   H     H_    0.391090 0.216917 0.695434 0.222849
H38   H     H_    0.260640 0.156524 0.638896 0.229539
H39   H     H_    0.332578 0.324048 0.522369 0.186112
H40   H     H_    0.323834 0.232718 0.473867 0.211218
H41   H     H_    0.270624 0.860536 0.337728 0.144645
H42   H     H_    0.738679 0.146033 0.642833 0.159150
C55   C     C_3   0.856414 0.293900 0.706746 -0.420835
C56   C     C_3   0.883617 0.187152 0.785910 -0.877965
H43   H     H_    0.803986 0.145145 0.818311 0.253661
H44   H     H_    0.914143 0.144346 0.752330 0.244113
H45   H     H_    0.956973 0.193120 0.848589 0.245452
H46   H     H_    0.935451 0.327981 0.671586 0.206301
H47   H     H_    0.844994 0.334464 0.751000 0.216511
C57   C     C_3   0.155212 0.710106 0.282251 -0.442788
C58   C     C_3   0.070047 0.711169 0.343345 -0.853739
H48   H     H_    0.086867 0.649089 0.420090 0.268949
H49   H     H_    0.080172 0.784840 0.349862 0.250309
H50   H     H_    0.976689 0.698782 0.304837 0.244192
H51   H     H_    0.140918 0.774024 0.206446 0.198701
H52   H     H_    0.127569 0.637847 0.273008 0.218207

loop_
_geom_bond_atom_site_label_1
_geom_bond_atom_site_label_2
_ccdc_geom_bond_type
Cu2   N1    S    
C21   C26   A    
C4    C36   A    
C54   H36   S    
C11   C55   S    
C15   C53   S    
C50   H26   S    
Cu1   O1    S    
C1    C33   S    
C39   C41   A    
C35   H17   S    
C53   H39   S    
C51   C52   S    
C57   H52   S    
C44   H7    S    
C34   C40   A    
C23   C29   S    
C35   C37   A    
C16   N2    A    
C27   C47   S    
C49   H29   S    
C58   H49   S    
C5    C6    A    
C57   C58   S    
C44   H6    S    
C1    O3    A    
C56   H43   S    
C36   H18   S    
Cu1   O8    S    
C13   H42   S    
Cu2   O3    S    
C45   H14   S    
C45   H13   S    
C22   C25   A    
C19   C27   A    
C51   H35   S    
C25   H15   S    
C16   C51   S    
C7    H19   S    
Cu2   O2    S    
C40   C42   A    
C45   C46   S    
C43   C44   S    
C54   H37   S    
C34   C38   A    
C21   C22   A    
C8    H20   S    
C48   H23   S    
C24   C30   S    
C10   C45   S    
C40   H1    S    
C57   H51   S    
C46   H10   S    
C48   H22   S    
C2    O4    A    
C58   H50   S    
C49   C50   S    
C17   C19   A    
C20   C28   A    
C52   H33   S    
C33   C37   A    
C44   H5    S    
C46   H11   S    
Cu1   Cu2   S    
C47   H24   S    
C3    C9    A    
Cu2   O6    S    
Cu1   O4    S    
C31   C32   S    
C3    C35   A    
Cu2   O7    S    
C11   C19   A    
C12   C20   A    
C23   O7    A    
C43   H8    S    
C16   C18   A    
C33   C39   A    
C37   H4    S    
C52   H32   S    
C1    O1    A    
C56   H45   S    
C38   H3    S    
C2    O2    A    
C55   H46   S    
C39   H2    S    
C13   N1    A    
Cu1   O5    S    
C14   H41   S    
C12   C14   A    
C54   H38   S    
C50   H27   S    
C28   C49   S    
C24   O6    A    
C4    C10   A    
C47   H25   S    
C15   C17   A    
C5    C41   A    
C3    C41   A    
C18   C22   A    
C53   H40   S    
C8    C10   A    
C48   H21   S    
C5    C8    A    
Cu1   N2    S    
C23   O5    A    
C6    C7    A    
C25   C27   A    
C26   C28   A    
C46   H12   S    
C36   C38   A    
C29   C31   T    
C49   H30   S    
C58   H48   S    
C43   H9    S    
C30   C32   T    
C11   C13   A    
C2    C34   S    
C14   N2    A    
C4    C42   A    
C53   C54   S    
C26   H16   S    
C18   C20   A    
C15   N1    A    
C52   H31   S    
C56   H44   S    
C55   H47   S    
C47   C48   S    
C7    C9    A    
C24   O8    A    
C6    C42   A    
C50   H28   S    
C9    C43   S    
C55   C56   S    
C51   H34   S    
C12   C57   S    
C17   C21   A    
