data_mof_unit_39081.cif
_audit_creation_date              2012-12-10T18:06:01-0500
_audit_creation_method            fapswitch 2.2
_symmetry_space_group_name_H-M    P1
_symmetry_Int_Tables_number       1
_space_group_crystal_system       triclinic
_cell_length_a                    12.694848
_cell_length_b                    13.129088
_cell_length_c                    14.956869
_cell_angle_alpha                 92.776226
_cell_angle_beta                  102.653741
_cell_angle_gamma                 81.653205
_cell_volume                      2406.21820669

loop_
_atom_site_label
_atom_site_type_symbol
_atom_type_description
_atom_site_fract_x
_atom_site_fract_y
_atom_site_fract_z
_atom_type_partial_charge
C1    C     C_R   0.438919 0.690751 0.485127 0.835495
C2    C     C_R   0.573120 0.549987 0.830497 -0.341947
C3    C     C_R   0.506170 0.490750 0.769440 -0.187286
C4    C     C_R   0.501892 0.497722 0.672940 0.898091
C5    C     C_R   0.441933 0.426788 0.800418 0.501047
C6    C     C_R   0.713248 0.054203 0.460905 -0.218618
C7    C     C_R   0.596870 0.198416 0.509486 -0.067909
C8    C     C_R   0.296917 0.839749 0.487997 -0.182755
C9    C     C_R   0.266592 0.945339 0.492864 -0.146918
C10   C     C_R   0.341067 0.011617 0.487749 -0.201828
C11   C     C_R   0.446323 0.972639 0.473015 0.081529
C12   C     C_R   0.430456 0.438136 0.078512 -0.002393
C13   C     C_R   0.469246 0.867060 0.452687 0.087426
C14   C     C_R   0.530251 0.034253 0.478970 0.080903
C15   C     C_R   0.629239 0.993460 0.452883 0.179890
C16   C     C_R   0.561041 0.308728 0.511342 0.859610
C17   C     C_R   0.642211 0.893241 0.418241 -0.255688
C18   C     C_R   0.562406 0.831065 0.416838 -0.197393
C19   C     C_R   0.519299 0.134928 0.512279 -0.270322
C20   C     C_R   0.697095 0.156833 0.489343 -0.199686
C21   C     C_R   0.399545 0.800015 0.471035 -0.116233
C22   C     C_R   0.080622 0.393263 0.337651 -0.267155
C23   C     C_R   0.635579 0.615036 0.076414 -0.224868
C24   C     C_R   0.799160 0.625162 0.615273 -0.059933
C25   C     C_R   0.899476 0.660429 0.636040 -0.341122
C26   C     C_R   0.981511 0.620383 0.589295 0.574431
C27   C     C_R   0.960000 0.543450 0.519675 -0.167017
C28   C     C_R   0.498116 0.501693 0.327146 0.880125
C29   C     C_R   0.853331 0.513493 0.496943 0.048626
C30   C     C_R   0.039792 0.494412 0.471458 0.001229
C31   C     C_R   0.006124 0.439364 0.388958 0.106372
C32   C     C_R   0.900119 0.421578 0.361622 -0.386027
C33   C     C_R   0.828550 0.442787 0.421438 0.563665
C34   C     C_R   0.638440 0.611769 0.984063 -0.196644
C35   C     C_R   0.152647 0.492697 0.502885 0.035908
C36   C     C_R   0.189712 0.396995 0.371145 0.012501
C37   C     C_R   0.428022 0.443188 0.170942 -0.229631
C38   C     C_R   0.495255 0.503113 0.230891 -0.098120
C39   C     C_R   0.563624 0.560907 0.199829 -0.271669
C40   C     C_R   0.566686 0.557812 0.107912 0.151766
C41   C     C_R   0.500301 0.495889 0.046844 0.020625
C42   C     C_3   0.129640 0.669409 0.692595 -0.362170
C43   C     C_3   0.717174 0.325429 0.335304 -0.336903
C44   C     C_3   0.443345 0.269007 0.731516 -0.311864
C45   C     C_R   0.572794 0.550894 0.922922 0.145626
C46   C     C_3   0.343658 0.217478 0.059149 -0.353594
C47   C     C_R   0.503875 0.491976 0.954238 -0.016553
C48   C     C_R   0.437944 0.430046 0.892943 -0.081218
C49   C     C_R   0.368781 0.373093 0.924921 -0.289532
C50   C     C_R   0.365955 0.375355 0.017613 0.509733
H1    H     H_    0.376492 0.398259 0.197101 0.195188
H2    H     H_    0.188091 0.526501 0.567231 0.188735
H3    H     H_    0.911465 0.721970 0.686388 0.158030
H4    H     H_    0.686796 0.662481 0.123101 0.144294
H5    H     H_    0.691474 0.657117 0.960361 0.142140
H6    H     H_    0.623128 0.597828 0.805624 0.174215
H7    H     H_    0.316254 0.326706 0.878386 0.208073
H8    H     H_    0.789666 0.023362 0.442397 0.140820
H9    H     H_    0.248936 0.364097 0.331937 0.139702
H10   H     H_    0.614874 0.607729 0.247372 0.150960
H11   H     H_    0.736354 0.657371 0.651157 0.158248
H12   H     H_    0.714891 0.862244 0.393793 0.150618
H13   H     H_    0.132289 0.595376 0.727070 0.171197
H14   H     H_    0.093230 0.735076 0.730617 0.177796
H15   H     H_    0.215247 0.680606 0.695216 0.198741
H16   H     H_    0.781146 0.258455 0.333081 0.153724
H17   H     H_    0.700946 0.372897 0.272971 0.169664
H18   H     H_    0.640536 0.294294 0.335329 0.178777
H19   H     H_    0.392339 0.218291 0.684994 0.188909
H20   H     H_    0.472063 0.230154 0.798753 0.150439
H21   H     H_    0.514018 0.277650 0.701106 0.148517
H22   H     H_    0.288920 0.174616 0.086679 0.201020
H23   H     H_    0.448529 0.167496 0.537802 0.151086
H24   H     H_    0.423160 0.210979 0.109481 0.156181
H25   H     H_    0.354415 0.180303 0.992674 0.165920
H26   H     H_    0.760384 0.204254 0.491142 0.196054
H27   H     H_    0.241382 0.789283 0.500279 0.186300
H28   H     H_    0.313139 0.092691 0.493842 0.135950
H29   H     H_    0.186874 0.975876 0.504900 0.149295
H30   H     H_    0.574644 0.754415 0.387572 0.167463
H31   H     H_    0.879882 0.377369 0.298858 0.154464
H32   H     H_    0.054998 0.352454 0.273566 0.149269
N1    N     N_R   0.222190 0.444670 0.452360 -0.124482
N2    N     N_R   0.776970 0.554790 0.547140 -0.107211
O1    O     O_R   0.366740 0.627160 0.477250 -0.608781
O2    O     O_3   0.744377 0.385028 0.416573 -0.556367
O3    O     O_3   0.379267 0.364767 0.739733 -0.600591
O4    O     O_3   0.295108 0.320932 0.047495 -0.605916
O5    O     O_R   0.544830 0.662520 0.507680 -0.622985
O6    O     O_R   0.410940 0.482340 0.616930 -0.574351
O7    O     O_R   0.589030 0.517700 0.647360 -0.633735
O8    O     O_R   0.455170 0.337480 0.492320 -0.621340
O9    O     O_R   0.633260 0.372840 0.522750 -0.541418
O10   O     O_R   0.410970 0.482300 0.352640 -0.632838
O11   O     O_R   0.589060 0.517660 0.383070 -0.574872
O12   O     O_3   0.074024 0.668448 0.599734 -0.629013
Zn1   Zn    Zn3+2 0.381090 0.476390 0.479680 0.964280
Zn2   Zn    Zn3+2 0.618910 0.523610 0.520320 0.976230

loop_
_geom_bond_atom_site_label_1
_geom_bond_atom_site_label_2
_ccdc_geom_bond_type
C1    C21   S    
C24   H11   S    
C27   C29   A    
C6    H8    S    
C36   H9    S    
C10   H28   S    
O11   Zn2   S    
C32   H31   S    
C26   C27   A    
C37   C38   A    
C30   C35   A    
C28   O11   A    
C42   O12   S    
C22   H32   S    
C25   H3    S    
C38   C39   A    
C37   H1    S    
C11   C14   A    
C36   N1    A    
C23   C40   A    
C29   C33   A    
C49   H7    S    
C20   H26   S    
C44   H21   S    
C28   O10   A    
C9    H29   S    
C12   C37   A    
C49   C50   A    
C6    C15   A    
C47   C48   A    
C43   H18   S    
C42   H15   S    
C44   H20   S    
C44   O3    S    
C9    C10   A    
O6    Zn1   S    
C46   O4    S    
C50   O4    S    
C4    O7    A    
C34   H5    S    
C27   C30   A    
C1    O1    A    
C46   H25   S    
C41   C47   A    
O8    Zn1   S    
C8    C21   A    
C4    O6    A    
C45   C47   A    
C2    C45   A    
C26   O12   S    
C5    C48   A    
C22   C31   A    
C19   H23   S    
C24   C25   A    
C29   N2    A    
C39   C40   A    
C35   N1    A    
C8    C9    A    
O10   Zn1   S    
C25   C26   A    
C33   O2    S    
C12   C41   A    
C17   H12   S    
C31   C32   A    
C28   C38   S    
C23   C34   A    
C17   C18   A    
C16   O9    A    
C13   C21   A    
C44   H19   S    
C34   C45   A    
C13   C18   A    
C18   H30   S    
C7    C16   S    
C16   O8    A    
C7    C19   A    
C8    H27   S    
C3    C4    S    
C42   H14   S    
C46   H24   S    
C6    C20   A    
C23   H4    S    
C15   C17   A    
C48   C49   A    
C1    O5    A    
C43   O2    S    
C46   H22   S    
C14   C19   A    
C3    C5    A    
C12   C50   A    
C22   C36   A    
O5    Zn2   S    
N2    Zn2   S    
C32   C33   A    
C2    C3    A    
C24   N2    A    
C2    H6    S    
C11   C13   A    
C30   C31   A    
C43   H16   S    
C39   H10   S    
C42   H13   S    
O7    Zn2   S    
O1    Zn1   S    
C10   C11   A    
C5    O3    S    
C43   H17   S    
C7    C20   A    
N1    Zn1   S    
C35   H2    S    
C14   C15   A    
C40   C41   A    
O9    Zn2   S    
