data_mof_unit_62932.cif
_audit_creation_date              2013-03-05T16:06:09-0500
_audit_creation_method            fapswitch 2.2
_symmetry_space_group_name_H-M    P1
_symmetry_Int_Tables_number       1
_space_group_crystal_system       triclinic
_cell_length_a                    16.088023
_cell_length_b                    16.110281
_cell_length_c                    16.096459
_cell_angle_alpha                 95.927533
_cell_angle_beta                  84.429365
_cell_angle_gamma                 90.177745
_cell_volume                      4129.91720241

loop_
_atom_site_label
_atom_site_type_symbol
_atom_site_description
_atom_site_fract_x
_atom_site_fract_y
_atom_site_fract_z
_atom_type_partial_charge
Zn1   Zn    Zn3+2 0.430930 0.430930 0.430910 1.011655
Zn2   Zn    Zn3+2 0.575680 0.561790 0.430230 1.003474
Zn3   Zn    Zn3+2 0.562480 0.430910 0.562480 1.008800
Zn4   Zn    Zn3+2 0.430910 0.576380 0.576380 1.003138
O1    O     O_3   0.500000 0.500000 0.500000 -0.495173
O2    O     O_R   0.458120 0.689530 0.559970 -0.626331
O3    O     O_R   0.445170 0.315580 0.445130 -0.621228
O4    O     O_R   0.559480 0.536070 0.314410 -0.628928
O5    O     O_R   0.537220 0.458810 0.680490 -0.615495
O6    O     O_R   0.689040 0.536050 0.444000 -0.632214
O7    O     O_R   0.315570 0.560650 0.560630 -0.628084
O8    O     O_R   0.679800 0.444450 0.536560 -0.628060
O9    O     O_R   0.315590 0.458850 0.458810 -0.631192
O10   O     O_R   0.458170 0.444480 0.314880 -0.628816
O11   O     O_R   0.445130 0.560630 0.690220 -0.639118
O12   O     O_R   0.559450 0.679320 0.457680 -0.632645
O13   O     O_R   0.537250 0.315570 0.537220 -0.634584
C1    C     C_R   0.510803 0.724242 0.510868 0.822255
C2    C     C_R   0.489269 0.275752 0.489169 0.830666
C3    C     C_R   0.510679 0.488185 0.274574 0.836581
C4    C     C_R   0.489262 0.511823 0.725404 0.813681
C5    C     C_R   0.724296 0.488157 0.488171 0.819260
C6    C     C_R   0.275682 0.511841 0.511799 0.825207
C7    C     C_1   0.813718 0.483390 0.483367 -0.116733
C8    C     C_2   0.978667 0.474446 0.474372 -0.149978
C9    C     C_2   0.021317 0.525439 0.525391 -0.152696
C10   C     C_1   0.111126 0.520535 0.520481 0.028945
C11   C     C_1   0.888856 0.479356 0.479308 0.026663
C12   C     C_1   0.186263 0.516535 0.516483 -0.115801
H1    H     H_    0.988948 0.571365 0.571351 0.167864
H2    H     H_    0.011033 0.428518 0.428413 0.170540
C13   C     C_1   0.513907 0.813474 0.514218 -0.082834
C14   C     C_2   0.516338 0.978318 0.519474 -0.303670
C15   C     C_2   0.468323 0.022067 0.474919 0.330319
C16   C     C_1   0.477512 0.111737 0.480908 -0.044456
C17   C     C_1   0.515405 0.888505 0.516682 0.122037
C18   C     C_1   0.483741 0.186599 0.485161 -0.098071
H3    H     H_    0.559699 0.011096 0.558847 0.151619
C19   C     C_1   0.515331 0.482951 0.184728 -0.113211
C20   C     C_2   0.524769 0.472367 0.018886 0.430459
C21   C     C_2   0.478711 0.523547 0.980821 -0.271786
C22   C     C_1   0.482006 0.519871 0.890607 0.113700
C23   C     C_1   0.519474 0.478300 0.109199 -0.029407
C24   C     C_1   0.485090 0.516443 0.815194 -0.095578
H4    H     H_    0.437404 0.569476 0.017938 0.139821
N1    N     N_R   0.408907 0.983711 0.421158 0.232521
O14   O     O_R   0.376752 0.027219 0.368289 -0.349839
O15   O     O_R   0.380855 0.908811 0.429134 -0.374334
Cl1   Cl    Cl    0.592761 0.396774 0.961667 -0.548944

loop_
_geom_bond_atom_site_label_1
_geom_bond_atom_site_label_2
_geom_bond_distance
_ccdc_geom_bond_type
C8    H2    1.086485 S    
C13   C17   1.205551 T    
Zn3   O13   1.911583 S    
C15   N1    1.445991 S    
O10   C3    1.270646 A    
C10   C12   1.205832 T    
C4    C24   1.434543 S    
Zn2   O12   1.912173 S    
C21   C22   1.443029 S    
C14   H3    1.087004 S    
Zn3   O1    1.922276 S    
Zn4   O11   1.911089 S    
C14   C15   1.350227 D    
O6    C5    1.271553 A    
Zn4   O7    1.909674 S    
O5    C4    1.271068 A    
C9    C10   1.441294 S    
O4    C3    1.270627 A    
C22   C24   1.205608 T    
C15   C16   1.445921 S    
Zn3   O5    1.910592 S    
C6    C12   1.435042 S    
C5    C7    1.435052 S    
O7    C6    1.270851 A    
C20   C21   1.341864 D    
O13   C2    1.271206 A    
C9    H1    1.086489 S    
O3    C2    1.269621 A    
O2    C1    1.270452 A    
Zn1   O1    1.919996 S    
Zn2   O1    1.921586 S    
C1    C13   1.433892 S    
C20   Cl1   1.763197 S    
Zn2   O6    1.910305 S    
N1    O15   1.301358 A    
O8    C5    1.271542 A    
Zn1   O10   1.911179 S    
O11   C4    1.271463 A    
C14   C17   1.443057 S    
Zn1   O9    1.910209 S    
O9    C6    1.270902 A    
O12   C1    1.270714 A    
Zn4   O2    1.912154 S    
C3    C19   1.434603 S    
C21   H4    1.086609 S    
N1    O14   1.301558 A    
C19   C23   1.205636 T    
Zn3   O8    1.909833 S    
C2    C18   1.433934 S    
C16   C18   1.205324 T    
C8    C9    1.336656 D    
Zn1   O3    1.912827 S    
C20   C23   1.441185 S    
Zn2   O4    1.910318 S    
C7    C11   1.205838 T    
Zn4   O1    1.921425 S    
C8    C11   1.441307 S    
