data_mof_unit_34823.cif
_audit_creation_date              2012-12-11T14:45:25-0500
_audit_creation_method            fapswitch 2.2
_symmetry_space_group_name_H-M    P1
_symmetry_Int_Tables_number       1
_space_group_crystal_system       triclinic
_cell_length_a                    24.919314
_cell_length_b                    7.172675
_cell_length_c                    14.414374
_cell_angle_alpha                 89.669821
_cell_angle_beta                  102.837162
_cell_angle_gamma                 87.832975
_cell_volume                      2509.9407574

loop_
_atom_site_label
_atom_site_type_symbol
_atom_type_description
_atom_site_fract_x
_atom_site_fract_y
_atom_site_fract_z
_atom_type_partial_charge
O1    O     O_R   0.319150 0.364170 0.330530 -0.547221
O2    O     O_R   0.680850 0.635830 0.669470 -0.547226
O3    O     O_R   0.180850 0.864170 0.169470 -0.536160
O4    O     O_R   0.819150 0.135830 0.830530 -0.536148
O5    O     O_R   0.210330 0.696850 0.354180 -0.538300
O6    O     O_R   0.789670 0.303150 0.645820 -0.538301
O7    O     O_R   0.289670 0.196850 0.145820 -0.536764
O8    O     O_R   0.710330 0.803150 0.854180 -0.536771
C1    C     C_R   0.197364 0.526619 0.378315 0.682166
C2    C     C_R   0.802637 0.473382 0.621688 0.682169
C3    C     C_R   0.302399 0.024084 0.121452 0.686411
C4    C     C_R   0.697601 0.975918 0.878549 0.686401
O9    O     O_R   0.320550 0.694110 0.341970 -0.535855
O10   O     O_R   0.679450 0.305890 0.658030 -0.535855
O11   O     O_R   0.179450 0.194110 0.158030 -0.549070
O12   O     O_R   0.820550 0.805890 0.841970 -0.549074
O13   O     O_R   0.291860 0.861000 0.157170 -0.537751
O14   O     O_R   0.708140 0.139000 0.842830 -0.537739
O15   O     O_R   0.208140 0.361000 0.342830 -0.536489
O16   O     O_R   0.791860 0.639000 0.657170 -0.536491
C5    C     C_R   0.341799 0.521416 0.362586 0.702456
C6    C     C_R   0.658202 0.478584 0.637410 0.702440
C7    C     C_R   0.157865 0.029588 0.137587 0.702999
C8    C     C_R   0.842136 0.970412 0.862412 0.703008
O17   O     O_3   0.240460 0.529330 0.189380 -0.374159
O18   O     O_3   0.759540 0.470670 0.810620 -0.374150
O19   O     O_3   0.259540 0.029330 0.310620 -0.375213
O20   O     O_3   0.740460 0.970670 0.689380 -0.375224
V1    V     V_3+5 0.251770 0.805510 0.261240 1.462839
V2    V     V_3+5 0.748230 0.194490 0.738760 1.462852
V3    V     V_3+5 0.248230 0.305510 0.238760 1.446798
V4    V     V_3+5 0.751770 0.694490 0.761240 1.446773
C9    C     C_R   0.101588 0.037414 0.075167 -0.053096
C10   C     C_R   0.898412 0.962586 0.924832 -0.053114
C11   C     C_R   0.397499 0.495835 0.425330 -0.050336
C12   C     C_R   0.602504 0.504165 0.574661 -0.050196
C13   C     C_R   0.971011 0.783249 0.035044 -0.179333
C14   C     C_R   0.028990 0.216750 0.964954 -0.179349
C15   C     C_R   0.534289 0.710611 0.471161 -0.180373
C16   C     C_R   0.465716 0.289383 0.528822 -0.180322
C17   C     C_R   0.916538 0.804363 0.983550 -0.131545
C18   C     C_R   0.083463 0.195635 0.016447 -0.131479
C19   C     C_R   0.588298 0.670955 0.521180 -0.131633
C20   C     C_R   0.411706 0.329040 0.478804 -0.131565
C21   C     C_R   0.935980 0.101877 0.920211 -0.209849
C22   C     C_R   0.064020 0.898124 0.079788 -0.209867
C23   C     C_R   0.561627 0.375023 0.575407 -0.212291
C24   C     C_R   0.438376 0.624978 0.424582 -0.212343
C25   C     C_R   0.991118 0.080531 0.971217 0.148138
C26   C     C_R   0.008882 0.919469 0.028781 0.148133
C27   C     C_R   0.506941 0.415158 0.526070 0.146105
C28   C     C_R   0.493063 0.584841 0.473915 0.146168
H1    H     H_    0.077112 0.776499 0.125363 0.118227
H2    H     H_    0.922888 0.223502 0.874637 0.118231
H3    H     H_    0.428154 0.752767 0.382779 0.117099
H4    H     H_    0.571848 0.247235 0.617211 0.117078
H5    H     H_    0.111407 0.305205 0.011077 0.156989
H6    H     H_    0.888594 0.694790 0.988918 0.157033
H7    H     H_    0.380987 0.227058 0.480770 0.154444
H8    H     H_    0.619018 0.772932 0.519211 0.154283
H9    H     H_    0.983614 0.659276 0.079017 0.128321
H10   H     H_    0.016387 0.340721 0.920980 0.128302
H11   H     H_    0.524669 0.840802 0.431326 0.132229
H12   H     H_    0.475337 0.159187 0.568652 0.132303
C29   C     C_R   0.665778 0.988057 0.952388 -0.073243
C30   C     C_R   0.334225 0.012003 0.047617 -0.073242
C31   C     C_R   0.834481 0.476936 0.547593 -0.073857
C32   C     C_R   0.165524 0.523087 0.452416 -0.073871
C33   C     C_R   0.659393 0.015227 0.116369 -0.176013
C34   C     C_R   0.340606 0.985795 0.883598 -0.175971
C35   C     C_R   0.841800 0.446789 0.384104 -0.176556
C36   C     C_R   0.158196 0.553583 0.615884 -0.176547
C37   C     C_R   0.691463 0.004641 0.048553 -0.053155
C38   C     C_R   0.308535 0.996095 0.951417 -0.053175
C39   C     C_R   0.809575 0.450468 0.451761 -0.051906
C40   C     C_R   0.190422 0.549801 0.548230 -0.051892
C41   C     C_R   0.608530 0.983687 0.924632 -0.207553
C42   C     C_R   0.391478 0.016051 0.075401 -0.207469
C43   C     C_R   0.891268 0.498141 0.575043 -0.208407
C44   C     C_R   0.108742 0.501766 0.424980 -0.208448
C45   C     C_R   0.574799 0.996696 0.991693 0.087028
C46   C     C_R   0.425206 0.003721 0.008315 0.087013
C47   C     C_R   0.925317 0.489954 0.508239 0.086825
C48   C     C_R   0.074686 0.510194 0.491770 0.086825
C49   C     C_R   0.601346 0.010860 0.089518 0.074135
C50   C     C_R   0.398655 0.990008 0.910467 0.074104
C51   C     C_R   0.899410 0.465632 0.410805 0.074461
C52   C     C_R   0.100588 0.534683 0.589191 0.074475
C53   C     C_R   0.515833 0.995370 0.964423 0.051537
C54   C     C_R   0.484171 0.005253 0.035581 0.051541
C55   C     C_R   0.984022 0.504053 0.535421 0.051507
C56   C     C_R   0.015979 0.496168 0.464584 0.051508
C57   C     C_R   0.512423 0.015818 0.131900 -0.221286
C58   C     C_R   0.487577 0.985281 0.868086 -0.221282
C59   C     C_R   0.988237 0.475772 0.368600 -0.221403
C60   C     C_R   0.011759 0.524626 0.631395 -0.221405
C61   C     C_R   0.569543 0.019692 0.158755 -0.053500
C62   C     C_R   0.430456 0.981539 0.841220 -0.053440
C63   C     C_R   0.931431 0.460059 0.341817 -0.052771
C64   C     C_R   0.068564 0.540394 0.658172 -0.052775
H13   H     H_    0.407892 0.029574 0.150524 0.096867
H14   H     H_    0.592121 0.969291 0.849559 0.096953
H15   H     H_    0.092816 0.481564 0.350189 0.098086
H16   H     H_    0.907202 0.518034 0.649857 0.098035
H17   H     H_    0.680262 0.026934 0.190420 0.141743
H18   H     H_    0.319734 0.974510 0.809525 0.141746
H19   H     H_    0.821438 0.427474 0.310338 0.141176
H20   H     H_    0.178554 0.573053 0.689638 0.141165
H21   H     H_    0.491330 0.020941 0.189387 0.121536
H22   H     H_    0.508669 0.980736 0.810589 0.121496
H23   H     H_    0.009523 0.471654 0.311349 0.121089
H24   H     H_    0.990468 0.528954 0.688636 0.121110
C65   C     C_1   0.594341 0.031793 0.259369 0.310046
N1    N     N_1   0.614050 0.041446 0.339770 -0.341219
C66   C     C_1   0.405653 0.969935 0.740587 0.310141
N2    N     N_1   0.385937 0.960669 0.660172 -0.341559
C67   C     C_1   0.907192 0.438277 0.241546 0.309475
N3    N     N_1   0.887932 0.420869 0.161420 -0.341970
C68   C     C_1   0.092797 0.562382 0.758430 0.309470
N4    N     N_1   0.112051 0.579955 0.838546 -0.341921
C69   C     C_1   0.249305 0.991252 0.920900 0.291136
N5    N     N_1   0.201866 0.987400 0.896558 -0.333990
C70   C     C_1   0.750688 0.009832 0.079043 0.291121
N6    N     N_1   0.798123 0.013962 0.103363 -0.333929
C71   C     C_1   0.249098 0.571961 0.578635 0.291609
N7    N     N_1   0.296093 0.589618 0.602892 -0.331271
C72   C     C_1   0.750894 0.428453 0.421341 0.291517
N8    N     N_1   0.703893 0.410916 0.397072 -0.331193

loop_
_geom_bond_atom_site_label_1
_geom_bond_atom_site_label_2
_ccdc_geom_bond_type
O17   V3    S    
C24   H3    S    
C47   C51   A    
O1    C5    A    
C9    C22   A    
C35   H19   S    
O19   V1    S    
O13   V1    S    
O3    C7    A    
C44   C48   A    
O15   V3    S    
C70   N6    T    
C14   C25   A    
C2    C31   S    
O7    C3    A    
C60   H24   S    
C9    C18   A    
O9    V1    S    
C17   H6    S    
C14   C18   A    
O4    C8    A    
C59   C63   A    
C58   C62   A    
C20   H7    S    
C66   N2    T    
C30   C38   A    
O1    V3    S    
C29   C37   A    
C12   C23   A    
O2    V4    S    
C53   C58   A    
O3    V1    S    
C34   C38   A    
C55   C60   A    
C1    O15   A    
C36   H20   S    
C2    O16   A    
C7    C9    S    
O2    C6    A    
C33   C37   A    
O14   V2    S    
C21   C25   A    
C16   C20   A    
O5    V1    S    
C3    C30   S    
C36   C40   A    
C45   C53   A    
O11   C7    A    
C15   C28   A    
O12   C8    A    
C42   H13   S    
C40   C71   S    
C41   H14   S    
C10   C17   A    
O10   V2    S    
C11   C24   A    
C18   H5    S    
C36   C52   A    
C51   C63   A    
C30   C42   A    
C29   C41   A    
C44   H15   S    
C27   C28   A    
O8    V4    S    
O7    V3    S    
C34   H18   S    
C55   C56   A    
C10   C21   A    
C33   H17   S    
O18   V4    S    
C15   C19   A    
C37   C70   S    
C46   C50   A    
C58   H22   S    
C56   C59   A    
C8    C10   S    
O5    C1    A    
C63   C67   S    
C42   C46   A    
C13   H9    S    
C6    C12   S    
C41   C45   A    
O8    C4    A    
O9    C5    A    
C64   C68   S    
C32   C40   A    
C11   C20   A    
C69   N5    T    
C52   C64   A    
C19   H8    S    
C35   C51   A    
O6    V2    S    
C21   H2    S    
C71   N7    T    
C43   H16   S    
C31   C39   A    
C61   C65   S    
C32   C44   A    
C34   C50   A    
C57   C61   A    
C33   C49   A    
C54   C57   A    
C65   N1    T    
O16   V4    S    
C3    O13   A    
C48   C52   A    
C46   C54   A    
O6    C2    A    
C23   C27   A    
C68   N4    T    
O11   V3    S    
C5    C11   S    
O12   V4    S    
C16   C27   A    
C15   H11   S    
C4    C29   S    
C22   C26   A    
C16   H12   S    
O10   C6    A    
O20   V2    S    
C1    C32   S    
C59   H23   S    
C67   N3    T    
C35   C39   A    
C13   C26   A    
C62   C66   S    
C60   C64   A    
C22   H1    S    
C39   C72   S    
C47   C55   A    
C13   C17   A    
C50   C62   A    
O4    V2    S    
C49   C61   A    
C43   C47   A    
C24   C28   A    
C38   C69   S    
C25   C26   A    
C4    O14   A    
C12   C19   A    
C48   C56   A    
C53   C54   A    
C31   C43   A    
C45   C49   A    
C72   N8    T    
C57   H21   S    
C23   H4    S    
C14   H10   S    
