data_mof_unit_5464.cif
_audit_creation_date              2012-12-11T17:34:24-0500
_audit_creation_method            fapswitch 2.2
_symmetry_space_group_name_H-M    P1
_symmetry_Int_Tables_number       1
_space_group_crystal_system       triclinic
_cell_length_a                    23.851427
_cell_length_b                    7.220013
_cell_length_c                    20.620069
_cell_angle_alpha                 90.000974
_cell_angle_beta                  105.225751
_cell_angle_gamma                 90.000248
_cell_volume                      3426.29000076

loop_
_atom_site_label
_atom_site_type_symbol
_atom_type_description
_atom_site_fract_x
_atom_site_fract_y
_atom_site_fract_z
_atom_type_partial_charge
O1    O     O_R   0.449110 0.494310 0.552140 -0.539090
O2    O     O_R   0.550890 0.994310 0.447860 -0.539092
O3    O     O_R   0.440010 0.824420 0.415850 -0.535427
O4    O     O_R   0.559990 0.324420 0.584150 -0.535430
C1    C     C_R   0.425066 0.655645 0.391322 0.717509
C2    C     C_R   0.574935 0.155649 0.608677 0.717506
O5    O     O_R   0.442260 0.824040 0.549660 -0.514257
O6    O     O_R   0.557740 0.324040 0.450340 -0.514255
O7    O     O_R   0.553160 0.993960 0.582620 -0.525092
O8    O     O_R   0.446840 0.493960 0.417380 -0.525094
C3    C     C_R   0.429379 0.655986 0.568536 0.712957
C4    C     C_R   0.570620 0.155985 0.431463 0.712958
O9    O     O_3   0.536380 0.660670 0.510660 -0.370489
O10   O     O_3   0.463620 0.160670 0.489340 -0.370490
V1    V     V_3+5 0.493250 0.935680 0.498020 1.529732
V2    V     V_3+5 0.506750 0.435680 0.501980 1.529733
C5    C     C_R   0.823945 0.904953 0.170604 -0.107858
C6    C     C_R   0.176057 0.404951 0.829398 -0.107859
H1    H     H_    0.807142 0.777912 0.186249 0.115244
H2    H     H_    0.192862 0.277910 0.813753 0.115245
C7    C     C_R   0.863090 0.895437 0.130390 -0.149017
C8    C     C_R   0.136912 0.395435 0.869611 -0.149022
H3    H     H_    0.875555 0.760313 0.116139 0.124518
H4    H     H_    0.124448 0.260311 0.883863 0.124518
C9    C     C_R   0.885993 0.058111 0.109343 -0.055194
C10   C     C_R   0.114008 0.558109 0.890658 -0.055197
C11   C     C_R   0.868229 0.230290 0.129530 -0.152969
C12   C     C_R   0.131771 0.730288 0.870471 -0.152965
H5    H     H_    0.884641 0.358758 0.114554 0.126080
H6    H     H_    0.115357 0.858755 0.885446 0.126081
C13   C     C_R   0.829099 0.239315 0.169674 -0.109854
C14   C     C_R   0.170901 0.739312 0.830326 -0.109855
H7    H     H_    0.816315 0.373457 0.184553 0.113905
H8    H     H_    0.183683 0.873455 0.815447 0.113905
C15   C     C_R   0.806841 0.076884 0.190582 0.125781
C16   C     C_R   0.193160 0.576882 0.809420 0.125781
C17   C     C_1   0.766630 0.087327 0.232484 -0.024076
C18   C     C_1   0.233372 0.587325 0.767517 -0.024076
C19   C     C_1   0.732980 0.098334 0.267385 0.000863
C20   C     C_1   0.267022 0.598334 0.732616 0.000863
C21   C     C_R   0.687260 0.972065 0.352896 -0.082599
C22   C     C_R   0.312738 0.472071 0.647099 -0.082600
H9    H     H_    0.713677 0.848423 0.356772 0.138813
H10   H     H_    0.286319 0.348431 0.643221 0.138811
C23   C     C_R   0.647812 0.987860 0.392424 -0.156301
C24   C     C_R   0.352184 0.487866 0.607570 -0.156300
H11   H     H_    0.645128 0.875458 0.426270 0.161227
H12   H     H_    0.354866 0.375467 0.573720 0.161218
C25   C     C_R   0.612598 0.146521 0.388874 -0.111418
C26   C     C_R   0.387402 0.646523 0.611125 -0.111417
C27   C     C_R   0.617862 0.289845 0.343571 0.266076
C28   C     C_R   0.382141 0.789843 0.656433 0.266075
C29   C     C_R   0.657742 0.272491 0.304446 -0.130669
C30   C     C_R   0.342262 0.772489 0.695558 -0.130669
H13   H     H_    0.661131 0.382343 0.269857 0.154975
H14   H     H_    0.338875 0.882337 0.730151 0.154977
C31   C     C_R   0.692484 0.114353 0.308776 0.062227
C32   C     C_R   0.307517 0.614354 0.691224 0.062227
C33   C     C_R   0.644077 0.210025 0.793233 0.281938
C34   C     C_R   0.355930 0.709913 0.206762 0.281940
H15   H     H_    0.559962 0.252221 0.726123 0.192243
H16   H     H_    0.440046 0.752112 0.273871 0.192253
H17   H     H_    0.728628 0.185400 0.908783 0.179406
H18   H     H_    0.271380 0.685232 0.091212 0.179408
C35   C     C_R   0.620218 0.149903 0.673443 -0.181107
C36   C     C_R   0.379783 0.649885 0.326557 -0.181113
C37   C     C_R   0.904471 0.039462 0.767970 -0.191184
C38   C     C_R   0.095525 0.539555 0.232030 -0.191185
C39   C     C_R   0.867824 0.059505 0.703753 0.308402
C40   C     C_R   0.132171 0.559628 0.296247 0.308401
C41   C     C_R   0.808528 0.090107 0.694654 -0.130991
C42   C     C_R   0.191469 0.590193 0.305345 -0.130992
C43   C     C_R   0.783477 0.093717 0.749776 0.061758
C44   C     C_R   0.216522 0.593733 0.250225 0.061758
C45   C     C_R   0.822345 0.086740 0.815792 0.054233
C46   C     C_R   0.177655 0.586720 0.184208 0.054232
C47   C     C_R   0.721908 0.116991 0.741756 0.031041
C48   C     C_R   0.278092 0.616977 0.258244 0.031041
C49   C     C_R   0.702709 0.162060 0.799837 -0.000988
C50   C     C_R   0.297296 0.661979 0.200160 -0.000995
C51   C     C_R   0.742260 0.157770 0.863698 -0.112000
C52   C     C_R   0.257745 0.657654 0.136299 -0.112004
C53   C     C_R   0.800396 0.115319 0.871654 -0.177171
C54   C     C_R   0.199608 0.615231 0.128345 -0.177169
C55   C     C_R   0.678694 0.094900 0.678901 0.288917
C56   C     C_R   0.321304 0.594918 0.321102 0.288917
C57   C     C_R   0.604388 0.209774 0.730374 -0.183511
C58   C     C_R   0.395618 0.709692 0.269622 -0.183527
C59   C     C_R   0.882869 0.056632 0.824395 -0.129327
C60   C     C_R   0.117130 0.556650 0.175605 -0.129325
H19   H     H_    0.950498 0.017126 0.773995 0.143800
H20   H     H_    0.049496 0.517253 0.226005 0.143798
H21   H     H_    0.784049 0.121150 0.644133 0.200879
H22   H     H_    0.215948 0.621264 0.355864 0.200885
H23   H     H_    0.828559 0.111632 0.922270 0.106445
H24   H     H_    0.171445 0.611515 0.077728 0.106439
O11   O     O_R   0.053190 0.709680 0.082610 -0.530872
O12   O     O_R   0.946810 0.209680 0.917390 -0.530872
O13   O     O_R   0.057740 0.380240 0.950340 -0.540635
O14   O     O_R   0.942260 0.880240 0.049660 -0.540635
C61   C     C_R   0.071414 0.548796 0.932448 0.678910
C62   C     C_R   0.928586 0.048797 0.067552 0.678910
O15   O     O_R   0.060000 0.379940 0.084150 -0.531950
O16   O     O_R   0.940000 0.879940 0.915850 -0.531952
O17   O     O_R   0.949110 0.210100 0.052140 -0.538612
O18   O     O_R   0.050890 0.710100 0.947860 -0.538610
C63   C     C_R   0.074561 0.548417 0.108974 0.699035
C64   C     C_R   0.925439 0.048413 0.891026 0.699035
O19   O     O_3   0.963630 0.543720 0.989330 -0.373449
O20   O     O_3   0.036370 0.043720 0.010670 -0.373448
V3    V     V_3+5 0.006750 0.268680 0.001980 1.433086
V4    V     V_3+5 0.993250 0.768680 0.998020 1.433089
Br1   Br    Br    0.615026 0.283928 0.868000 -0.456819
Br2   Br    Br    0.384986 0.783729 0.131990 -0.456813
O21   O     O_3   0.693538 0.007881 0.625983 -0.650469
H25   H     H_    0.660529 0.006872 0.585341 0.280514
O22   O     O_3   0.306455 0.507959 0.374027 -0.650472
H26   H     H_    0.339466 0.506944 0.414667 0.280506
Br3   Br    Br    0.899389 0.051645 0.627654 -0.461311
Br4   Br    Br    0.100603 0.551865 0.372344 -0.461308
Br5   Br    Br    0.569820 0.507781 0.328507 -0.535799
Br6   Br    Br    0.430186 0.007775 0.671501 -0.535776

loop_
_geom_bond_atom_site_label_1
_geom_bond_atom_site_label_2
_ccdc_geom_bond_type
C11   H5    S    
C21   H9    S    
C34   Br2   S    
O1    C3    A    
O2    C4    A    
C46   C54   A    
C2    O7    A    
C4    C25   S    
C34   C58   A    
O18   V4    S    
O5    C3    A    
C44   C46   A    
H17   C51   S    
C14   C16   A    
C8    H4    S    
C15   C17   S    
C60   C63   S    
C10   C61   S    
C36   C58   A    
C48   C50   A    
C9    C62   S    
O21   H25   S    
C19   C31   S    
C37   C59   A    
O12   C64   A    
C62   O17   A    
O15   V3    S    
C22   C24   A    
C23   H11   S    
C39   C41   A    
O20   V3    S    
H15   C57   S    
C38   H20   S    
C28   Br6   S    
C2    C35   S    
C40   Br4   S    
C25   C27   A    
C38   C60   A    
C13   H7    S    
C33   Br1   S    
C42   H22   S    
C48   C56   A    
C29   H13   S    
O17   V3    S    
C53   H23   S    
O6    V2    S    
C43   C45   A    
C22   C32   A    
C22   H10   S    
C12   C14   A    
O14   C62   A    
C51   C53   A    
C28   C30   A    
C35   C57   A    
C24   H12   S    
C47   C49   A    
C30   H14   S    
C20   C32   S    
C11   C13   A    
C55   O21   S    
C42   C44   A    
O19   V4    S    
C33   C49   A    
C49   C51   A    
O11   V4    S    
C29   C31   A    
H16   C58   S    
C39   Br3   S    
C5    C7    A    
C37   C39   A    
C14   H8    S    
O4    V2    S    
C26   C28   A    
C23   C25   A    
O6    C4    A    
O13   V3    S    
C37   H19   S    
O1    V2    S    
O2    V1    S    
H18   C52   S    
O4    C2    A    
O13   C61   A    
O14   V4    S    
C52   C54   A    
C7    H3    S    
C8    C10   A    
C27   Br5   S    
C13   C15   A    
C16   C18   S    
C54   H24   S    
O16   C64   A    
O3    V1    S    
O16   V4    S    
C30   C32   A    
C61   O18   A    
C7    C9    A    
C34   C50   A    
C43   C47   A    
O12   V3    S    
C6    C8    A    
C1    C36   S    
O3    C1    A    
C36   C56   A    
C40   C42   A    
C35   C55   A    
C41   H21   S    
C9    C11   A    
C24   C26   A    
C10   C12   A    
C12   H6    S    
O7    V1    S    
C21   C31   A    
C1    O8    A    
C17   C19   T    
C3    C26   S    
O8    V2    S    
O22   H26   S    
C18   C20   T    
C45   C53   A    
C59   C64   S    
O5    V1    S    
C5    H1    S    
C50   C52   A    
C56   O22   S    
C6    H2    S    
C33   C57   A    
C45   C59   A    
C47   C55   A    
O11   C63   A    
C38   C40   A    
C44   C48   A    
O9    V2    S    
C41   C43   A    
C21   C23   A    
O10   V1    S    
O15   C63   A    
C5    C15   A    
C27   C29   A    
C6    C16   A    
C46   C60   A    
