data_mof_unit_33031.cif
_audit_creation_date              2012-12-10T18:03:16-0500
_audit_creation_method            fapswitch 2.2
_symmetry_space_group_name_H-M    P1
_symmetry_Int_Tables_number       1
_space_group_crystal_system       triclinic
_cell_length_a                    10.831096
_cell_length_b                    9.508909
_cell_length_c                    15.192359
_cell_angle_alpha                 89.99969
_cell_angle_beta                  90.135373
_cell_angle_gamma                 90.000013
_cell_volume                      1564.68564624

loop_
_atom_site_label
_atom_site_type_symbol
_atom_type_description
_atom_site_fract_x
_atom_site_fract_y
_atom_site_fract_z
_atom_type_partial_charge
C1    C     C_R   0.262035 0.500006 0.499842 0.862545
C2    C     C_R   0.737965 0.500006 0.500158 0.862549
C3    C     C_R   0.500127 0.499802 0.329619 0.944527
C4    C     C_R   0.499873 0.499801 0.670381 0.944520
C5    C     C_R   0.402960 0.074407 0.465406 0.054791
C6    C     C_R   0.597481 0.925730 0.533894 0.062582
C7    C     C_R   0.597040 0.074407 0.534594 0.054805
C8    C     C_R   0.402519 0.925730 0.466106 0.062577
C9    C     C_R   0.063827 0.372256 0.499551 -0.163412
C10   C     C_R   0.936159 0.627826 0.499866 -0.156223
C11   C     C_R   0.936173 0.372256 0.500449 -0.163414
C12   C     C_R   0.063841 0.627826 0.500134 -0.156225
C13   C     C_R   0.431884 0.595729 0.092219 -0.173192
C14   C     C_R   0.432950 0.394077 0.906113 -0.173473
C15   C     C_R   0.568111 0.595731 0.907780 -0.173193
C16   C     C_R   0.567051 0.394080 0.093887 -0.173474
C17   C     C_R   0.428679 0.597859 0.183929 0.386595
C18   C     C_R   0.428988 0.396174 0.814323 0.377750
C19   C     C_R   0.571317 0.597860 0.816071 0.386597
C20   C     C_R   0.571015 0.396178 0.185678 0.377749
C21   C     C_R   0.500239 0.498423 0.232407 -0.298374
C22   C     C_R   0.499761 0.498421 0.767593 -0.298373
C23   C     C_R   0.499358 0.494006 0.047837 -0.024714
C24   C     C_R   0.500640 0.494006 0.952164 -0.024715
C25   C     C_R   0.871808 0.500033 0.500229 0.022731
C26   C     C_R   0.128192 0.500033 0.499771 0.022732
Cu1   Cu    Cu3+1 0.500000 0.640660 0.500000 1.061534
Cu2   Cu    Cu3+1 0.500000 0.359340 0.500000 1.060523
H1    H     H_    0.325458 0.130045 0.437048 0.121325
H2    H     H_    0.675763 0.870245 0.561118 0.141380
H3    H     H_    0.674542 0.130044 0.562951 0.121324
H4    H     H_    0.324238 0.870246 0.438881 0.141386
H5    H     H_    0.379946 0.672215 0.054417 0.210609
H6    H     H_    0.380675 0.316564 0.942645 0.210125
H7    H     H_    0.620046 0.672218 0.945583 0.210609
H8    H     H_    0.619329 0.316570 0.057356 0.210126
H9    H     H_    0.111832 0.272325 0.499106 0.142755
H10   H     H_    0.888135 0.727747 0.499641 0.142058
H11   H     H_    0.888168 0.272325 0.500895 0.142761
H12   H     H_    0.111865 0.727747 0.500359 0.142059
N1    N     N_R   0.500000 0.852070 0.500000 -0.177422
N2    N     N_R   0.500000 0.147930 0.500000 -0.163257
O1    O     O_R   0.319640 0.618740 0.499990 -0.597347
O2    O     O_R   0.680360 0.381260 0.500010 -0.598089
O3    O     O_R   0.680360 0.618740 0.500010 -0.597350
O4    O     O_R   0.319640 0.381260 0.499990 -0.598098
O5    O     O_R   0.499990 0.618780 0.371460 -0.526616
O6    O     O_R   0.500010 0.381220 0.628540 -0.533823
O7    O     O_R   0.500010 0.618780 0.628540 -0.526617
O8    O     O_R   0.499990 0.381220 0.371460 -0.533821
S1    S     S_3+6 0.330240 0.724067 0.233376 0.026120
O9    O     O_2   0.407489 0.841726 0.269852 -0.260300
O10   O     O_2   0.241949 0.783328 0.166429 -0.252933
O11   O     O_3   0.248611 0.648814 0.314590 -0.563478
H13   H     H_    0.187639 0.720989 0.332348 0.362642
S2    S     S_3+6 0.328645 0.273601 0.762466 0.041141
O12   O     O_2   0.403557 0.159547 0.719670 -0.244895
O13   O     O_2   0.243567 0.207953 0.828892 -0.251756
O14   O     O_3   0.243213 0.356272 0.685972 -0.551395
H14   H     H_    0.185337 0.283672 0.663936 0.369654
S3    S     S_3+6 0.669756 0.724069 0.766624 0.026122
O15   O     O_2   0.592505 0.841726 0.730145 -0.260301
O16   O     O_2   0.758044 0.783334 0.833571 -0.252930
O17   O     O_3   0.751388 0.648817 0.685412 -0.563472
H15   H     H_    0.812354 0.720998 0.667649 0.362638
S4    S     S_3+6 0.671362 0.273610 0.237535 0.041139
O18   O     O_2   0.596456 0.159553 0.280333 -0.244889
O19   O     O_2   0.756442 0.207966 0.171109 -0.251767
O20   O     O_3   0.756793 0.356286 0.314028 -0.551395
H16   H     H_    0.814690 0.283696 0.336052 0.369652

loop_
_geom_bond_atom_site_label_1
_geom_bond_atom_site_label_2
_ccdc_geom_bond_type
C12   H12   S    
S3    O17   S    
S4    O19   D    
C23   C24   S    
C14   H6    S    
C6    C7    A    
C18   S2    S    
C16   C23   A    
C4    C22   S    
C15   H7    S    
C14   C18   A    
S2    O14   S    
C13   C17   A    
C4    O7    A    
C10   H10   S    
S1    O11   S    
Cu2   O4    S    
O17   H15   S    
Cu1   O3    S    
C9    H9    S    
S4    O18   D    
C2    O2    A    
O14   H14   S    
C18   C22   A    
C16   H8    S    
C11   H11   S    
C9    C11   A    
C17   S1    S    
C1    C26   S    
C1    O1    A    
C10   C12   A    
C19   S3    S    
C10   C25   A    
C3    O5    A    
C16   C20   A    
C6    H2    S    
C3    O8    A    
S2    O13   D    
C9    C26   A    
C2    C25   S    
C5    H1    S    
O20   H16   S    
C2    O3    A    
S3    O15   D    
C17   C21   A    
C1    O4    A    
C3    C21   S    
S4    O20   S    
C7    H3    S    
S2    O12   D    
C11   C25   A    
Cu1   O5    S    
S1    O9    D    
C8    H4    S    
Cu1   O1    S    
C20   S4    S    
C19   C22   A    
C20   C21   A    
C13   C23   A    
C5    N2    A    
C13   H5    S    
C4    O6    A    
C7    N2    A    
C14   C24   A    
Cu1   Cu2   S    
S3    O16   D    
C5    C8    A    
O11   H13   S    
C15   C24   A    
Cu2   N2    S    
C8    N1    A    
C15   C19   A    
Cu2   O8    S    
Cu2   O2    S    
Cu2   O6    S    
Cu1   O7    S    
C12   C26   A    
Cu1   N1    S    
S1    O10   D    
C6    N1    A    
