data_mof_unit_43188.cif
_audit_creation_date              2013-03-05T16:04:19-0500
_audit_creation_method            fapswitch 2.2
_symmetry_space_group_name_H-M    P1
_symmetry_Int_Tables_number       1
_space_group_crystal_system       triclinic
_cell_length_a                    9.501711
_cell_length_b                    10.855718
_cell_length_c                    13.47484
_cell_angle_alpha                 89.840294
_cell_angle_beta                  72.314347
_cell_angle_gamma                 89.503531
_cell_volume                      1324.16155329

loop_
_atom_site_label
_atom_site_type_symbol
_atom_site_description
_atom_site_fract_x
_atom_site_fract_y
_atom_site_fract_z
_atom_type_partial_charge
O1    O     O_R   0.381250 0.680340 0.500010 -0.587710
O2    O     O_R   0.618820 0.680370 0.500010 -0.582546
C1    C     C_R   0.499218 0.737705 0.500676 0.805583
O3    O     O_R   0.323240 0.499950 0.650980 -0.581723
O4    O     O_R   0.560810 0.499980 0.650980 -0.593908
C2    C     C_R   0.421045 0.494666 0.700248 0.782099
Cu1   Cu    Cu3+1 0.359340 0.499980 0.500000 0.946824
Cu2   Cu    Cu3+1 0.640660 0.500020 0.500000 0.974236
O5    O     O_R   0.381180 0.319630 0.499990 -0.592260
O6    O     O_R   0.618750 0.319660 0.499990 -0.589696
O7    O     O_R   0.439190 0.500020 0.349020 -0.589627
O8    O     O_R   0.676760 0.500050 0.349020 -0.520999
C3    C     C_R   0.500190 0.261827 0.502281 0.792677
C4    C     C_R   0.579641 0.498751 0.299535 0.836489
C5    C     C_R   0.790081 0.399075 0.025387 -0.265731
H1    H     H_    0.805242 0.320738 0.836633 0.148453
H2    H     H_    0.896195 0.359532 0.982230 0.174845
C6    C     C_R   0.626755 0.484744 0.185353 -0.168510
C7    C     C_R   0.232938 0.542454 0.867600 -0.221000
C8    C     C_R   0.191866 0.562292 0.974161 -0.091114
C9    C     C_R   0.290906 0.538044 0.029624 -0.123724
C10   C     C_R   0.433197 0.488161 0.979558 0.074989
C11   C     C_R   0.468831 0.456606 0.872487 0.085613
C12   C     C_R   0.541906 0.469189 0.031560 0.084278
C13   C     C_R   0.678938 0.412760 0.977719 0.100772
C14   C     C_R   0.703866 0.369416 0.876765 -0.216147
C15   C     C_R   0.599231 0.388568 0.825795 -0.197039
C16   C     C_R   0.519540 0.505442 0.135080 -0.294769
C17   C     C_R   0.766759 0.436670 0.128182 0.347288
C18   C     C_R   0.372568 0.493374 0.815052 -0.101299
H3    H     H_    0.417956 0.548938 0.179625 0.170519
H4    H     H_    0.156661 0.569476 0.825716 0.154377
H5    H     H_    0.251440 0.558274 0.111630 0.162602
H6    H     H_    0.084034 0.601048 0.013444 0.178335
H7    H     H_    0.621773 0.347651 0.749741 0.162105
C19   C     C_R   0.609471 0.931688 0.530978 -0.163431
H8    H     H_    0.693805 0.878975 0.551770 0.147785
C20   C     C_R   0.613307 0.059541 0.532867 0.182112
C21   C     C_R   0.502035 0.127393 0.505161 -0.033596
C22   C     C_R   0.389175 0.064986 0.479268 -0.218341
H9    H     H_    0.303112 0.114604 0.458058 0.160497
C23   C     C_R   0.386919 0.937631 0.478608 -0.186186
H10   H     H_    0.299696 0.891494 0.457223 0.160970
C24   C     C_R   0.497981 0.870959 0.503346 -0.065241
C25   C     C_R   0.896829 0.576142 0.565056 -0.018552
H11   H     H_    0.817652 0.637165 0.617110 0.123693
C26   C     C_R   0.045742 0.575948 0.565163 -0.030273
H12   H     H_    0.079041 0.636727 0.617300 0.119299
N1    N     N_R   0.147940 0.499970 0.499970 -0.164855
C27   C     C_R   0.103084 0.423703 0.435067 -0.009026
H13   H     H_    0.182181 0.362545 0.383099 0.133542
C28   C     C_R   0.954082 0.423584 0.435259 0.035777
H14   H     H_    0.920611 0.362255 0.383620 0.165078
N2    N     N_R   0.852060 0.500060 0.499990 -0.166866
N3    N     N_R   0.885675 0.424286 0.172500 0.105498
O9    O     O_R   0.934915 0.521582 0.206959 -0.396042
O10   O     O_R   0.965285 0.323921 0.156878 -0.391023
C29   C     C_3   0.735394 0.118248 0.566183 -0.837978
H15   H     H_    0.687647 0.182164 0.632013 0.226948
H16   H     H_    0.802279 0.048965 0.593303 0.211918
H17   H     H_    0.812151 0.167691 0.499633 0.244011

loop_
_geom_bond_atom_site_label_1
_geom_bond_atom_site_label_2
_geom_bond_distance
_ccdc_geom_bond_type
O4    Cu2   1.943375 S    
C27   C28   1.414999 A    
N3    O9    1.301299 A    
C5    H2    1.084752 S    
C11   C15   1.410551 A    
C12   C16   1.402624 A    
C4    C6    1.473904 S    
C7    C8    1.385732 A    
Cu2   O8    1.957695 S    
C8    H6    1.082236 S    
C8    C9    1.391172 A    
C29   H17   1.109464 S    
C19   C20   1.389234 A    
C27   H13   1.081740 S    
C13   C14   1.390635 A    
C6    C16   1.400592 A    
Cu1   Cu2   2.673026 S    
C26   N1    1.366305 A    
C6    C17   1.415279 A    
O1    Cu1   1.970772 S    
C9    C10   1.418253 A    
C12   C13   1.418317 A    
Cu1   O7    1.943377 S    
C14   C15   1.383436 A    
O4    C2    1.293483 A    
C23   C24   1.395605 A    
O3    Cu1   1.957694 S    
C7    H4    1.083419 S    
C22   C23   1.382977 A    
C19   H8    1.084261 S    
C2    C18   1.473940 S    
C28   N2    1.366054 A    
C25   N2    1.366946 A    
C5    C17   1.396199 A    
O2    C1    1.288613 A    
N3    O10   1.301480 A    
H1    C14   1.084350 S    
C20   C21   1.422867 A    
O7    C4    1.298007 A    
C10   C12   1.426750 A    
C1    C24   1.446979 S    
C3    C21   1.459875 S    
O3    C2    1.296679 A    
C19   C24   1.395920 A    
C23   H10   1.083436 S    
C29   H16   1.111031 S    
C11   C18   1.420201 A    
C25   H11   1.081729 S    
C9    H5    1.076134 S    
C28   H14   1.081326 S    
Cu1   N1    2.008786 S    
C5    C13   1.399562 A    
Cu2   O6    1.970772 S    
N1    C27   1.366969 A    
C25   C26   1.415348 A    
Cu2   N2    2.008625 S    
C21   C22   1.404250 A    
Cu1   O5    1.967002 S    
O5    C3    1.297001 A    
C10   C11   1.420382 A    
C22   H9    1.083521 S    
C17   N3    1.434663 S    
C15   H7    1.077473 S    
C29   H15   1.107956 S    
C20   C29   1.511364 S    
C7    C18   1.401607 A    
C16   H3    1.075431 S    
O2    Cu2   1.967004 S    
C26   H12   1.081785 S    
O8    C4    1.292491 A    
O1    C1    1.289388 A    
O6    C3    1.286541 A    
