data_mof_unit_39221.cif
_audit_creation_date              2012-12-11T16:26:34-0500
_audit_creation_method            fapswitch 2.2
_symmetry_space_group_name_H-M    P1
_symmetry_Int_Tables_number       1
_space_group_crystal_system       triclinic
_cell_length_a                    14.048849
_cell_length_b                    14.048739
_cell_length_c                    32.044126
_cell_angle_alpha                 89.999485
_cell_angle_beta                  90.001246
_cell_angle_gamma                 119.999879
_cell_volume                      5477.18841227

loop_
_atom_site_label
_atom_site_type_symbol
_atom_type_description
_atom_site_fract_x
_atom_site_fract_y
_atom_site_fract_z
_atom_type_partial_charge
C1    C     C_R   0.567181 0.444462 0.810300 0.536710
C2    C     C_R   0.443300 0.568275 0.189118 0.534679
C3    C     C_1   0.900520 0.628351 0.643028 0.230327
C4    C     C_1   0.727839 0.099513 0.856985 0.230317
C5    C     C_1   0.371658 0.272179 0.643023 0.230325
C6    C     C_1   0.622332 0.886133 0.358072 0.245944
C7    C     C_1   0.113907 0.736223 0.141928 0.245882
C8    C     C_1   0.263793 0.377667 0.358067 0.245921
C9    C     C_1   0.622362 0.886182 0.141940 0.245985
C10   C     C_1   0.113845 0.736196 0.358062 0.245949
C11   C     C_1   0.263792 0.377698 0.141917 0.245918
C12   C     C_1   0.112045 0.721531 0.053499 0.222103
C13   C     C_R   0.431727 0.875029 0.310881 0.534668
C14   C     C_1   0.609555 0.888092 0.446501 0.222135
C15   C     C_1   0.278537 0.390523 0.053487 0.222118
C16   C     C_1   0.111860 0.721466 0.446491 0.222139
C17   C     C_1   0.609644 0.888220 0.053511 0.222151
C18   C     C_1   0.278508 0.390460 0.446496 0.222123
C19   C     C_1   0.690416 0.047975 0.556426 0.185589
C20   C     C_1   0.952151 0.642560 0.943545 0.185750
C21   C     C_1   0.357498 0.309576 0.556437 0.185645
C22   C     C_1   0.690464 0.048039 0.943581 0.185561
C23   C     C_1   0.951997 0.642466 0.556435 0.185633
C24   C     C_R   0.124973 0.556700 0.189117 0.534664
C25   C     C_1   0.357573 0.309628 0.943578 0.185612
C26   C     C_3   0.868966 0.284426 0.053013 -0.016625
C27   C     C_3   0.803020 0.162318 0.062568 -0.340252
C28   C     C_3   0.415417 0.131155 0.446821 -0.016840
C29   C     C_3   0.358711 0.196700 0.437490 -0.340000
C30   C     C_3   0.715840 0.584636 0.053309 -0.016999
C31   C     C_3   0.838204 0.641785 0.062455 -0.339789
C32   C     C_3   0.868870 0.284325 0.446902 -0.016730
C33   C     C_3   0.803116 0.162151 0.437449 -0.340142
C34   C     C_3   0.415472 0.131224 0.053168 -0.016807
C35   C     C_1   0.040075 0.513422 0.014988 0.031283
C36   C     C_3   0.358863 0.196837 0.062547 -0.340063
C37   C     C_3   0.715663 0.584530 0.446885 -0.016736
C38   C     C_3   0.837858 0.641017 0.437467 -0.340090
C39   C     C_3   0.254540 0.997013 0.581203 -0.009043
C40   C     C_3   0.171616 0.977062 0.547047 -0.321488
C41   C     C_3   0.003015 0.257550 0.918792 -0.009108
C42   C     C_3   0.022944 0.194565 0.952949 -0.321497
C43   C     C_3   0.742446 0.745537 0.581233 -0.009082
C44   C     C_3   0.805442 0.828385 0.547058 -0.321455
C45   C     C_3   0.254595 0.997091 0.918812 -0.009042
C46   C     C_1   0.473338 0.959987 0.485003 0.031395
C47   C     C_3   0.171720 0.977192 0.952980 -0.321506
C48   C     C_3   0.002972 0.257537 0.581197 -0.009089
C49   C     C_3   0.022876 0.194560 0.547030 -0.321490
C50   C     C_3   0.742492 0.745514 0.918779 -0.008983
C51   C     C_3   0.805464 0.828421 0.952940 -0.321487
C52   C     C_1   0.486671 0.526721 0.014994 0.031504
C53   C     C_1   0.039963 0.513364 0.484999 0.031321
C54   C     C_1   0.473404 0.960086 0.015008 0.031378
C55   C     C_1   0.486617 0.526639 0.485004 0.031358
C56   C     C_1   0.478839 0.970557 0.522185 0.055230
C57   C     C_R   0.877280 0.432822 0.689700 0.536708
C58   C     C_1   0.029513 0.508363 0.977804 0.055143
C59   C     C_1   0.491682 0.521137 0.522187 0.055222
C60   C     C_1   0.478899 0.970646 0.977825 0.055220
C61   C     C_1   0.029401 0.508303 0.522182 0.055181
C62   C     C_1   0.491746 0.521211 0.977812 0.055315
C63   C     C_R   0.938269 0.472774 0.850289 -0.050168
C64   C     C_R   0.534512 0.061754 0.649705 -0.050163
C65   C     C_R   0.527252 0.465500 0.850294 -0.050155
C66   C     C_R   0.938239 0.472763 0.649705 -0.050162
C67   C     C_R   0.534528 0.061773 0.850299 -0.050162
C68   C     C_R   0.555543 0.122722 0.810301 0.536706
C69   C     C_R   0.527239 0.465487 0.649706 -0.050154
C70   C     C_R   0.464992 0.922161 0.353423 -0.063124
C71   C     C_R   0.077854 0.542845 0.146572 -0.063125
C72   C     C_R   0.457164 0.535004 0.353424 -0.063124
C73   C     C_R   0.465012 0.922196 0.146584 -0.063135
C74   C     C_R   0.077825 0.542828 0.353421 -0.063132
C75   C     C_R   0.457162 0.535025 0.146574 -0.063105
C76   C     C_R   0.935965 0.556066 0.874535 -0.047686
C77   C     C_R   0.620114 0.064097 0.625451 -0.047679
C78   C     C_R   0.443995 0.379906 0.874552 -0.047677
C79   C     C_R   0.567179 0.444460 0.689700 0.536709
C80   C     C_R   0.935901 0.556034 0.625455 -0.047672
C81   C     C_R   0.620139 0.064126 0.874554 -0.047671
C82   C     C_R   0.443964 0.379885 0.625455 -0.047681
C83   C     C_R   0.542160 0.908276 0.377477 -0.056623
C84   C     C_R   0.091769 0.633912 0.122520 -0.056614
C85   C     C_R   0.366105 0.457840 0.377475 -0.056618
C86   C     C_R   0.542199 0.908338 0.122533 -0.056617
C87   C     C_R   0.091697 0.633881 0.377471 -0.056618
C88   C     C_R   0.366108 0.457878 0.122515 -0.056625
C89   C     C_R   0.968406 0.568936 0.916672 -0.050764
C90   C     C_R   0.877285 0.432823 0.810299 0.536709
C91   C     C_R   0.600541 0.031681 0.583310 -0.050791
C92   C     C_R   0.431160 0.399492 0.916691 -0.050798
C93   C     C_R   0.968300 0.568879 0.583314 -0.050778
C94   C     C_R   0.600581 0.031735 0.916697 -0.050790
C95   C     C_R   0.431107 0.399453 0.583316 -0.050788
C96   C     C_R   0.542151 0.917271 0.421224 -0.075420
C97   C     C_R   0.082803 0.624927 0.078773 -0.075448
C98   C     C_R   0.375101 0.457849 0.421222 -0.075434
C99   C     C_R   0.542216 0.917368 0.078787 -0.075404
C100  C     C_R   0.082686 0.624879 0.421217 -0.075410
C101  C     C_R   0.555540 0.122720 0.689700 0.536707
C102  C     C_R   0.375118 0.457911 0.078768 -0.075455
C103  C     C_R   0.009543 0.504409 0.933717 0.029616
C104  C     C_R   0.494867 0.990526 0.566272 0.029622
C105  C     C_R   0.495685 0.505169 0.933726 0.029633
C106  C     C_R   0.009445 0.504359 0.566270 0.029624
C107  C     C_R   0.494914 0.990593 0.933738 0.029623
C108  C     C_R   0.495632 0.505119 0.566273 0.029645
C109  C     C_R   0.474397 0.951792 0.440385 -0.003780
C110  C     C_R   0.048249 0.522650 0.059607 -0.003829
C111  C     C_R   0.477376 0.525587 0.440386 -0.003805
C112  C     C_R   0.443302 0.568272 0.310882 0.534667
C113  C     C_R   0.474463 0.951892 0.059625 -0.003799
C114  C     C_R   0.048155 0.522605 0.440381 -0.003819
C115  C     C_R   0.477397 0.525666 0.059610 -0.003720
C116  C     C_R   0.021719 0.429198 0.908979 0.264285
C117  C     C_R   0.407479 0.978311 0.591017 0.264314
C118  C     C_R   0.570857 0.592550 0.908977 0.264339
C119  C     C_R   0.021661 0.429177 0.591010 0.264306
C120  C     C_R   0.407518 0.978366 0.908994 0.264312
C121  C     C_R   0.570826 0.592511 0.591013 0.264323
C122  C     C_R   0.410620 0.981863 0.415904 0.272298
C123  C     C_R   0.431730 0.875035 0.189120 0.534669
C124  C     C_R   0.018130 0.428781 0.084084 0.272383
C125  C     C_R   0.571232 0.589353 0.415908 0.272335
C126  C     C_R   0.410673 0.981946 0.084105 0.272326
C127  C     C_R   0.018088 0.428751 0.415903 0.272349
C128  C     C_R   0.571234 0.589432 0.084094 0.272229
C129  C     C_R   0.987788 0.415519 0.867100 -0.130445
C130  C     C_R   0.427734 0.012222 0.632898 -0.130433
C131  C     C_R   0.584506 0.572283 0.867097 -0.130443
C132  C     C_R   0.987759 0.415512 0.632892 -0.130437
C133  C     C_R   0.427757 0.012253 0.867111 -0.130426
C134  C     C_R   0.124969 0.556697 0.310881 0.534670
C135  C     C_R   0.584493 0.572262 0.632895 -0.130469
C136  C     C_R   0.403705 0.963506 0.373013 -0.107008
C137  C     C_R   0.036492 0.440213 0.126977 -0.106910
C138  C     C_R   0.559795 0.596282 0.373016 -0.106970
C139  C     C_R   0.403734 0.963555 0.126995 -0.106986
C140  C     C_R   0.036472 0.440195 0.373012 -0.106949
C141  C     C_R   0.559795 0.596319 0.126987 -0.107103
C142  C     C_1   0.900564 0.628371 0.856965 0.230343
C143  C     C_1   0.727823 0.099498 0.643016 0.230307
C144  C     C_1   0.371683 0.272195 0.856989 0.230304
Cr1   Cr    Cr6+3 0.504240 0.249200 0.750000 1.074683
Cr2   Cr    Cr6+3 0.744960 0.495760 0.750000 1.074679
Cr3   Cr    Cr6+3 0.750800 0.255040 0.750000 1.074681
Cr4   Cr    Cr6+3 0.249200 0.504240 0.250000 1.073879
Cr5   Cr    Cr6+3 0.495760 0.744960 0.250000 1.073872
Cr6   Cr    Cr6+3 0.255040 0.750800 0.250000 1.073878
H1    H     H_    0.020769 0.368347 0.144831 0.178090
H2    H     H_    0.360388 0.003611 0.848004 0.154700
H3    H     H_    0.996390 0.356777 0.651997 0.154691
H4    H     H_    0.643232 0.639640 0.847987 0.154680
H5    H     H_    0.868177 0.295487 0.018704 0.153931
H6    H     H_    0.826103 0.324299 0.068212 0.097797
H7    H     H_    0.798255 0.148812 0.096835 0.156032
H8    H     H_    0.718594 0.128356 0.049978 0.105358
H9    H     H_    0.842309 0.118898 0.047941 0.200990
H10   H     H_    0.497812 0.174126 0.431364 0.097971
H11   H     H_    0.428010 0.132243 0.481090 0.153570
H12   H     H_    0.347552 0.979211 0.355157 0.178092
H13   H     H_    0.276248 0.157216 0.452322 0.200985
H14   H     H_    0.409158 0.281206 0.450008 0.105428
H15   H     H_    0.349339 0.201282 0.403253 0.156220
H16   H     H_    0.703969 0.571420 0.019075 0.153281
H17   H     H_    0.676778 0.502527 0.068981 0.098086
H18   H     H_    0.852526 0.651686 0.096665 0.156367
H19   H     H_    0.872346 0.591351 0.050000 0.105492
H20   H     H_    0.880827 0.724041 0.047453 0.200964
H21   H     H_    0.825952 0.323988 0.431583 0.097889
H22   H     H_    0.867944 0.295591 0.481193 0.153763
H23   H     H_    0.631654 0.652458 0.144845 0.178078
H24   H     H_    0.842492 0.118934 0.452175 0.200971
H25   H     H_    0.718649 0.128142 0.450001 0.105393
H26   H     H_    0.798445 0.148440 0.403196 0.156133
H27   H     H_    0.427930 0.132272 0.018891 0.153636
H28   H     H_    0.497930 0.174170 0.068580 0.097941
H29   H     H_    0.349598 0.201430 0.096790 0.156187
H30   H     H_    0.409317 0.281337 0.050024 0.105418
H31   H     H_    0.276359 0.157400 0.047748 0.200971
H32   H     H_    0.676054 0.502001 0.431526 0.097894
H33   H     H_    0.704329 0.572220 0.481169 0.153723
H34   H     H_    0.020779 0.368338 0.355159 0.178099
H35   H     H_    0.881017 0.723576 0.452221 0.200993
H36   H     H_    0.871873 0.590556 0.450013 0.105382
H37   H     H_    0.851640 0.650145 0.403219 0.156140
H38   H     H_    0.316105 0.086534 0.581381 0.154241
H39   H     H_    0.210330 0.973273 0.611550 0.157902
H40   H     H_    0.109511 0.888660 0.545717 0.204463
H41   H     H_    0.129339 0.024315 0.553693 0.110135
H42   H     H_    0.213844 0.003180 0.516397 0.205311
H43   H     H_    0.026782 0.237095 0.888448 0.157919
H44   H     H_    0.913495 0.229592 0.918604 0.154217
H45   H     H_    0.347572 0.979245 0.144849 0.178098
H46   H     H_    0.996789 0.210647 0.983597 0.205309
H47   H     H_    0.975710 0.105039 0.946294 0.110122
H48   H     H_    0.111346 0.220872 0.954292 0.204472
H49   H     H_    0.770467 0.684025 0.581470 0.154262
H50   H     H_    0.762823 0.789828 0.611562 0.157885
H51   H     H_    0.779053 0.890411 0.545655 0.204558
H52   H     H_    0.894958 0.870765 0.553740 0.110074
H53   H     H_    0.789452 0.786068 0.516430 0.205255
H54   H     H_    0.210348 0.973324 0.888473 0.157926
H55   H     H_    0.316170 0.086608 0.918619 0.154225
H56   H     H_    0.631657 0.652431 0.355163 0.178087
H57   H     H_    0.213991 0.003361 0.983621 0.205291
H58   H     H_    0.129428 0.024429 0.946329 0.110131
H59   H     H_    0.109622 0.888793 0.954333 0.204511
H60   H     H_    0.913451 0.229574 0.581395 0.154229
H61   H     H_    0.026764 0.237079 0.611535 0.157917
H62   H     H_    0.111278 0.220876 0.545674 0.204509
H63   H     H_    0.975654 0.105033 0.553684 0.110143
H64   H     H_    0.996690 0.210645 0.516389 0.205292
H65   H     H_    0.762942 0.789742 0.888436 0.157877
H66   H     H_    0.770463 0.683962 0.918590 0.154274
H67   H     H_    0.360373 0.003587 0.652006 0.154689
H68   H     H_    0.789376 0.786168 0.983585 0.205280
H69   H     H_    0.894992 0.870721 0.946288 0.110090
H70   H     H_    0.779147 0.890508 0.954285 0.204472
H71   H     H_    0.996396 0.356769 0.847997 0.154689
H72   H     H_    0.643230 0.639622 0.652001 0.154657
N1    N     N_1   0.873244 0.686789 0.842890 -0.309073
N2    N     N_1   0.687278 0.869613 0.157265 -0.261534
N3    N     N_1   0.130408 0.817677 0.342736 -0.261538
N4    N     N_1   0.182310 0.312768 0.157237 -0.261538
N5    N     N_1   0.135666 0.798664 0.033428 -0.232997
N6    N     N_1   0.663099 0.864515 0.466575 -0.233026
N7    N     N_1   0.201421 0.336993 0.033410 -0.233003
N8    N     N_1   0.135431 0.798586 0.466564 -0.233057
N9    N     N_1   0.663207 0.864669 0.033438 -0.233037
N10   N     N_1   0.201383 0.336927 0.466567 -0.233021
N11   N     N_1   0.761506 0.061653 0.534515 -0.365159
N12   N     N_1   0.813562 0.126816 0.657089 -0.309107
N13   N     N_1   0.938499 0.700012 0.965443 -0.365250
N14   N     N_1   0.300060 0.238480 0.534532 -0.365177
N15   N     N_1   0.761558 0.061722 0.965493 -0.365085
N16   N     N_1   0.938310 0.699885 0.534529 -0.365143
N17   N     N_1   0.300155 0.238546 0.965491 -0.365177
N18   N     N_1   0.313259 0.186454 0.842918 -0.309112
N19   N     N_1   0.873219 0.686779 0.657106 -0.309082
N20   N     N_1   0.813572 0.126820 0.842910 -0.309108
N21   N     N_1   0.313238 0.186442 0.657097 -0.309086
N22   N     N_1   0.687255 0.869576 0.342749 -0.261528
N23   N     N_1   0.130458 0.817701 0.157254 -0.261587
N24   N     N_1   0.182315 0.312743 0.342741 -0.261549
O1    O     O_R   0.480350 0.140770 0.796330 -0.498226
O2    O     O_R   0.140770 0.480350 0.203670 -0.497753
O3    O     O_R   0.519650 0.660420 0.296330 -0.497759
O4    O     O_R   0.339580 0.859230 0.203670 -0.497756
O5    O     O_R   0.514930 0.348530 0.793250 -0.480973
O6    O     O_R   0.833600 0.485070 0.706750 -0.480983
O7    O     O_R   0.651470 0.166400 0.793250 -0.480980
O8    O     O_R   0.514930 0.348530 0.706750 -0.480980
O9    O     O_R   0.833600 0.485070 0.793250 -0.480982
O10   O     O_R   0.651470 0.166400 0.706750 -0.480978
O11   O     O_R   0.348530 0.514930 0.293250 -0.484738
O12   O     O_R   0.660420 0.519650 0.703670 -0.498233
O13   O     O_R   0.485070 0.833600 0.206750 -0.484741
O14   O     O_R   0.166400 0.651470 0.293250 -0.484737
O15   O     O_R   0.348530 0.514930 0.206750 -0.484741
O16   O     O_R   0.485070 0.833600 0.293250 -0.484739
O17   O     O_R   0.166400 0.651470 0.206750 -0.484729
O18   O     O_3   0.666667 0.333333 0.750000 -0.262186
O19   O     O_3   0.333333 0.666667 0.250000 -0.260415
O20   O     O_3   0.978758 0.325934 0.066449 -0.531701
O21   O     O_3   0.347142 0.021226 0.433538 -0.531676
O22   O     O_3   0.674068 0.652908 0.066460 -0.531649
O23   O     O_R   0.859230 0.339580 0.796330 -0.498230
O24   O     O_3   0.978726 0.325907 0.433537 -0.531690
O25   O     O_3   0.347196 0.021313 0.066472 -0.531683
O26   O     O_3   0.674075 0.652820 0.433544 -0.531666
O27   O     O_3   0.303165 0.931661 0.573449 -0.539770
O28   O     O_3   0.068353 0.371525 0.926555 -0.539786
O29   O     O_3   0.628479 0.696820 0.573438 -0.539787
O30   O     O_3   0.303211 0.931730 0.926566 -0.539763
O31   O     O_3   0.068303 0.371513 0.573435 -0.539779
O32   O     O_3   0.628517 0.696870 0.926541 -0.539757
O33   O     O_R   0.480350 0.140770 0.703670 -0.498229
O34   O     O_R   0.660420 0.519650 0.796330 -0.498242
O35   O     O_R   0.859230 0.339580 0.703670 -0.498225
O36   O     O_R   0.140770 0.480350 0.296330 -0.497759
O37   O     O_R   0.519650 0.660420 0.203670 -0.497769
O38   O     O_R   0.339580 0.859230 0.296330 -0.497766

loop_
_geom_bond_atom_site_label_1
_geom_bond_atom_site_label_2
_ccdc_geom_bond_type
C112  O11   A    
C141  H23   S    
C90   O9    A    
C72   C112  S    
C5    C82   S    
C55   C59   T    
Cr2   O9    S    
C64   C77   A    
C107  C120  A    
C26   H6    S    
C36   H30   S    
Cr5   O19   S    
C91   C104  A    
C77   C143  S    
C72   C85   A    
C17   N9    T    
C112  O3    A    
C71   C137  A    
C62   C105  S    
C136  H12   S    
C48   O31   S    
C27   H8    S    
C36   H29   S    
C26   C27   S    
C41   H44   S    
C28   O21   S    
Cr4   O36   S    
C47   H58   S    
C35   C58   T    
C84   C97   A    
C143  N12   T    
C28   C29   S    
C67   C133  A    
C30   H17   S    
C120  C133  A    
C45   H54   S    
C1    O34   A    
C3    N19   T    
C30   C31   S    
Cr3   O35   S    
C35   C110  S    
C109  C122  A    
C52   C115  S    
C2    O15   A    
C43   O29   S    
C13   C70   S    
C25   N17   T    
C27   H9    S    
C38   H37   S    
C37   H33   S    
C54   C113  S    
C49   H63   S    
Cr3   O10   S    
Cr4   O2    S    
C144  N18   T    
C63   C90   S    
C8    C85   S    
C41   C42   S    
C29   H15   S    
C33   H26   S    
C29   H13   S    
Cr5   O13   S    
C41   H43   S    
C85   C98   A    
C75   C141  A    
C110  C124  A    
C57   O35   A    
C68   O7    A    
C80   C93   A    
C132  H3    S    
C4    C81   S    
C58   C103  S    
C73   C123  S    
C127  O24   S    
C111  C125  A    
C10   N3    T    
C1    C65   S    
Cr2   O18   S    
C43   H50   S    
C102  C115  A    
C37   O26   S    
C7    N23   T    
C74   C87   A    
C82   C95   A    
C128  C141  A    
C57   C66   S    
C14   C96   S    
C76   C89   A    
C22   N15   T    
Cr6   O14   S    
C39   O27   S    
C72   C138  A    
C7    C84   S    
C32   H22   S    
C8    N24   T    
C69   C135  A    
C89   C103  A    
C44   H52   S    
C22   C94   S    
C29   H14   S    
C6    N22   T    
C26   H5    S    
Cr1   O33   S    
C133  H2    S    
C53   C61   T    
Cr2   O12   S    
Cr2   O34   S    
C3    C80   S    
C19   N11   T    
C4    N20   T    
C65   C131  A    
Cr5   O3    S    
C139  H45   S    
C122  O21   S    
Cr6   O4    S    
C66   C132  A    
C37   H32   S    
C45   C47   S    
C51   H68   S    
C138  H56   S    
C64   C101  S    
C94   C107  A    
C81   C94   A    
C126  C139  A    
C75   C88   A    
Cr1   O1    S    
C125  O26   S    
C67   C68   S    
C70   C83   A    
C124  C137  A    
C42   H48   S    
C101  O10   A    
C100  C114  A    
C28   H11   S    
C56   C104  S    
C123  O4    A    
C117  O27   S    
C32   O24   S    
C39   C40   S    
C118  O32   S    
C23   N16   T    
C16   C100  S    
C12   N5    T    
C54   C60   T    
C113  C126  A    
C31   H19   S    
C123  O13   A    
C68   O1    A    
C38   H36   S    
C74   C140  A    
C49   H64   S    
Cr3   O7    S    
C34   H28   S    
C121  C135  A    
C115  C128  A    
C6    C83   S    
Cr2   O6    S    
Cr4   O19   S    
C71   C84   A    
C130  H67   S    
C116  O28   S    
C43   C44   S    
C121  O29   S    
C14   N6    T    
C37   C38   S    
C117  C130  A    
C70   C136  A    
C78   C144  S    
C9    C86   S    
C44   H53   S    
C126  O25   S    
C88   C102  A    
C40   H42   S    
C48   H61   S    
C50   H66   S    
C11   C88   S    
C20   N13   T    
C122  C136  A    
C16   N8    T    
Cr1   O18   S    
C119  C132  A    
C128  O22   S    
C10   C87   S    
C50   C51   S    
Cr6   O38   S    
C5    N21   T    
C57   O6    A    
C42   H46   S    
C86   C99   A    
C17   C99   S    
Cr6   O19   S    
C30   H16   S    
C12   C97   S    
C60   C107  S    
C131  H4    S    
C108  C121  A    
C39   H38   S    
C129  H71   S    
C48   C49   S    
C32   H21   S    
C64   C130  A    
C67   C81   A    
C96   C109  A    
C21   C95   S    
C47   H59   S    
C28   H10   S    
C44   H51   S    
Cr4   O15   S    
C105  C118  A    
C24   O2    A    
C90   O23   A    
C30   O22   S    
C127  C140  A    
C18   N10   T    
C33   H24   S    
C45   O30   S    
C61   C106  S    
Cr5   O16   S    
C114  C127  A    
C53   C114  S    
C106  C119  A    
C101  O33   A    
C104  C117  A    
C13   O16   A    
C93   C106  A    
C134  O36   A    
C135  H72   S    
C50   O32   S    
C77   C91   A    
C25   C92   S    
C45   H55   S    
C98   C111  A    
C55   C111  S    
C119  O31   S    
C79   O12   A    
Cr1   O5    S    
Cr4   O11   S    
Cr1   O8    S    
C125  C138  A    
C48   H60   S    
C66   C80   A    
C99   C113  A    
C42   H47   S    
C1    O5    A    
C13   O38   A    
C2    O37   A    
C116  C129  A    
C31   H20   S    
C51   H70   S    
C27   H7    S    
C38   H35   S    
C73   C139  A    
C20   C89   S    
Cr6   O17   S    
C33   H25   S    
C59   C108  S    
C47   H57   S    
C65   C78   A    
C78   C92   A    
C32   C33   S    
C103  C116  A    
Cr3   O18   S    
Cr3   O23   S    
C52   C62   T    
C97   C110  A    
C9    N2    T    
C118  C131  A    
C40   H41   S    
C50   H65   S    
C11   N4    T    
C39   H39   S    
C83   C96   A    
C74   C134  S    
C24   O17   A    
C124  O20   S    
C51   H69   S    
Cr5   O37   S    
C79   O8    A    
C69   C82   A    
C34   C36   S    
C63   C129  A    
C15   C102  S    
C34   O25   S    
C73   C86   A    
C69   C79   S    
C95   C108  A    
C41   O28   S    
C21   N14   T    
C23   C93   S    
C92   C105  A    
C140  H34   S    
C40   H40   S    
C31   H18   S    
C24   C71   S    
C134  O14   A    
C63   C76   A    
C46   C109  S    
C46   C56   T    
C87   C100  A    
C19   C91   S    
C137  H1    S    
C34   H27   S    
C43   H49   S    
C36   H31   S    
C18   C98   S    
C49   H62   S    
C142  N1    T    
C15   N7    T    
C2    C75   S    
C120  O30   S    
C26   O20   S    
C76   C142  S    
