data_mof_unit_21919.cif
_audit_creation_date              2012-10-26T20:17:13-0400
_audit_creation_method            fapswitch 2.2
_symmetry_space_group_name_H-M    P1
_symmetry_Int_Tables_number       1
_space_group_crystal_system       triclinic
_cell_length_a                    10.650787
_cell_length_b                    10.86756
_cell_length_c                    9.766358
_cell_angle_alpha                 108.435543
_cell_angle_beta                  99.137765
_cell_angle_gamma                 91.262745
_cell_volume                      1055.65778523

loop_
_atom_site_label
_atom_site_type_symbol
_atom_type_description
_atom_site_fract_x
_atom_site_fract_y
_atom_site_fract_z
_atom_type_partial_charge
C1    C     C_R   0.489356 0.254221 0.444355 0.545107
C2    C     C_3   0.123026 0.505580 0.503274 0.031866
C3    C     C_3   0.978520 0.587849 0.631405 -0.120033
C4    C     C_3   0.021370 0.426190 0.372515 -0.122382
C5    C     C_2   0.481521 0.115301 0.421795 -0.130969
C6    C     C_2   0.478287 0.882072 0.569706 -0.136254
C7    C     C_2   0.404755 0.059511 0.486638 -0.000721
C8    C     C_2   0.411710 0.919523 0.459764 -0.009741
C9    C     C_2   0.508907 0.512992 0.081020 -0.035805
C10   C     C_2   0.489072 0.489237 0.919501 -0.029982
C11   C     C_3   0.116402 0.424538 0.739493 -0.250282
C12   C     C_R   0.499858 0.745532 0.554248 0.538744
C13   C     C_3   0.016533 0.379978 0.814069 -0.301546
C14   C     C_3   0.079534 0.340281 0.943572 -0.465048
C15   C     C_3   0.877705 0.597774 0.273857 -0.242142
C16   C     C_3   0.970604 0.664722 0.210463 -0.306091
C17   C     C_3   0.899019 0.712571 0.091079 -0.466456
C18   C     C_3   0.355714 0.825261 0.306728 -0.223414
C19   C     C_3   0.273421 0.883841 0.201783 -0.320689
C20   C     C_3   0.237495 0.783461 0.048856 -0.462519
C21   C     C_3   0.309794 0.134912 0.575947 -0.216940
C22   C     C_3   0.198373 0.052273 0.596205 -0.298982
C23   C     C_R   0.259379 0.501731 0.500871 0.539376
C24   C     C_3   0.228507 0.007027 0.730401 -0.438835
C25   C     C_R   0.740745 0.504093 0.500504 0.551562
C26   C     C_3   0.053835 0.465833 0.610612 0.011367
C27   C     C_3   0.946301 0.548695 0.394192 0.010673
C28   C     C_3   0.951481 0.385264 0.481013 -0.128672
C29   C     C_3   0.049411 0.628588 0.523694 -0.131266
C30   C     C_3   0.877491 0.507558 0.500865 0.033863
Cu1   Cu    Cu3+1 0.522260 0.521810 0.644920 0.903090
Cu2   Cu    Cu3+1 0.477740 0.478190 0.355080 0.893736
H1    H     H_    0.909211 0.286137 0.464032 0.094936
H2    H     H_    0.379057 0.372808 0.066357 0.198101
H3    H     H_    0.135931 0.255406 0.905302 0.148610
H4    H     H_    0.143651 0.421867 0.024038 0.150755
H5    H     H_    0.004864 0.313048 0.998406 0.142897
H6    H     H_    0.955006 0.460138 0.853753 0.172910
H7    H     H_    0.955296 0.295505 0.734256 0.162143
H8    H     H_    0.177361 0.344720 0.699571 0.136344
H9    H     H_    0.178125 0.508289 0.819702 0.153855
H10   H     H_    0.848289 0.629245 0.999015 0.149398
H11   H     H_    0.828810 0.781564 0.135896 0.142344
H12   H     H_    0.092835 0.727468 0.541749 0.095456
H13   H     H_    0.966892 0.763596 0.048403 0.143990
H14   H     H_    0.024312 0.749534 0.298390 0.153573
H15   H     H_    0.039746 0.595556 0.163893 0.167273
H16   H     H_    0.822733 0.514036 0.185457 0.155869
H17   H     H_    0.809806 0.668513 0.321504 0.143301
H18   H     H_    0.324331 0.755963 0.999983 0.165535
H19   H     H_    0.188001 0.694662 0.054207 0.149963
H20   H     H_    0.173408 0.825158 0.976520 0.138225
H21   H     H_    0.185077 0.916909 0.244456 0.155431
H22   H     H_    0.325867 0.967971 0.189752 0.172292
H23   H     H_    0.958532 0.653377 0.737328 0.105983
H24   H     H_    0.436339 0.783027 0.252660 0.165554
H25   H     H_    0.294516 0.746619 0.319323 0.169469
H26   H     H_    0.285935 0.921647 0.707966 0.161187
H27   H     H_    0.279855 0.086322 0.826970 0.140568
H28   H     H_    0.138031 0.976839 0.758027 0.129010
H29   H     H_    0.115973 0.113182 0.611375 0.139706
H30   H     H_    0.165896 0.967212 0.496559 0.154643
H31   H     H_    0.361746 0.198224 0.683948 0.142492
H32   H     H_    0.265442 0.199343 0.516369 0.120177
H33   H     H_    0.041466 0.360618 0.266853 0.108320
H34   H     H_    0.514472 0.954730 0.675413 0.096344
H35   H     H_    0.539640 0.055908 0.348072 0.080497
H36   H     H_    0.416944 0.415137 0.847868 0.134607
H37   H     H_    0.579685 0.588584 0.153078 0.136296
H38   H     H_    0.620999 0.627061 0.933510 0.197041
N1    N     N_2   0.444270 0.445410 0.137360 -0.357413
N2    N     N_2   0.555730 0.554590 0.862640 -0.356551
O1    O     O_R   0.511880 0.332340 0.577400 -0.490654
O2    O     O_R   0.488120 0.667660 0.422600 -0.509845
O3    O     O_R   0.474280 0.295500 0.332650 -0.486582
O4    O     O_R   0.525720 0.704500 0.667350 -0.487868
O5    O     O_R   0.335640 0.518390 0.622350 -0.508198
O6    O     O_R   0.664360 0.481610 0.377650 -0.499742
O7    O     O_R   0.298050 0.481550 0.377590 -0.504513
O8    O     O_R   0.701950 0.518450 0.622410 -0.494343

loop_
_geom_bond_atom_site_label_1
_geom_bond_atom_site_label_2
_ccdc_geom_bond_type
C12   O2    A    
C27   C29   S    
C25   O8    A    
C19   C20   S    
C5    H35   S    
Cu2   O3    S    
Cu1   O8    S    
C2    C29   S    
C1    C5    S    
C9    H37   S    
C20   H19   S    
C6    C12   S    
C4    H33   S    
Cu1   O1    S    
C15   C16   S    
C18   C19   S    
C3    C29   S    
C17   H10   S    
C14   H4    S    
C20   H18   S    
C3    H23   S    
C16   C17   S    
C21   H32   S    
C9    C10   S    
C18   H24   S    
C19   H21   S    
C13   C14   S    
C27   C30   S    
C15   H16   S    
C16   H15   S    
C4    C28   S    
Cu1   O5    S    
Cu2   N1    S    
C21   H31   S    
C25   O6    A    
C1    O3    A    
C7    C8    S    
C16   H14   S    
C14   H3    S    
C5    C7    D    
C6    C8    D    
C11   C26   S    
C7    C21   S    
C8    C18   S    
C3    C30   S    
C2    C4    S    
C17   H11   S    
C22   H30   S    
C18   H25   S    
C15   C27   S    
Cu1   Cu2   S    
C24   H28   S    
C2    C26   S    
C23   O5    A    
C13   H6    S    
C19   H22   S    
Cu1   N2    S    
C28   H1    S    
C12   O4    A    
C29   H12   S    
C22   C24   S    
C4    C27   S    
C25   C30   S    
C3    C26   S    
C9    N1    D    
C14   H5    S    
C17   H13   S    
C10   H36   S    
C26   C28   S    
C1    O1    A    
C28   C30   S    
C20   H20   S    
C22   H29   S    
Cu2   O2    S    
C11   C13   S    
Cu1   O4    S    
C24   H27   S    
C11   H9    S    
C15   H17   S    
C11   H8    S    
C13   H7    S    
Cu2   O6    S    
C6    H34   S    
C24   H26   S    
C2    C23   S    
H38   N2    S    
C23   O7    A    
C21   C22   S    
H2    N1    S    
Cu2   O7    S    
C10   N2    D    
