data_mof_unit_26436.cif
_audit_creation_date              2012-12-11T16:53:39-0500
_audit_creation_method            fapswitch 2.2
_symmetry_space_group_name_H-M    P1
_symmetry_Int_Tables_number       1
_space_group_crystal_system       triclinic
_cell_length_a                    14.775973
_cell_length_b                    14.90867
_cell_length_c                    17.001955
_cell_angle_alpha                 109.122115
_cell_angle_beta                  106.356974
_cell_angle_gamma                 108.633598
_cell_volume                      3025.02945185

loop_
_atom_site_label
_atom_site_type_symbol
_atom_type_description
_atom_site_fract_x
_atom_site_fract_y
_atom_site_fract_z
_atom_type_partial_charge
C1    C     C_R   0.084961 0.284691 0.078050 0.229716
C2    C     C_R   0.023925 0.579986 0.744862 0.073988
C3    C     C_R   0.769864 0.197279 0.726991 0.056089
C4    C     C_R   0.275625 0.448784 0.952043 0.054468
C5    C     C_R   0.272322 0.693000 0.255955 -0.105860
C6    C     C_R   0.702009 0.497175 0.916682 -0.147552
C7    C     C_R   0.888176 0.464118 0.186192 -0.153690
C8    C     C_R   0.094673 0.806867 0.029491 -0.245805
C9    C     C_R   0.897833 0.710667 0.943035 -0.177593
C10   C     C_R   0.063585 0.548652 0.265321 -0.102152
C11   C     C_R   0.280220 0.787110 0.178929 -0.137272
C12   C     C_R   0.933130 0.518802 0.747147 -0.163246
C13   C     C_R   0.696317 0.405317 0.995575 -0.136762
C14   C     C_R   0.334740 0.787379 0.259891 0.070156
C15   C     C_R   0.635946 0.435713 0.941700 0.074476
C16   C     C_R   0.969580 0.535122 0.273729 0.113875
C17   C     C_R   0.997453 0.702839 0.981036 0.289751
C18   C     C_R   0.381269 0.447433 0.860403 0.012814
C19   C     C_R   0.334846 0.404172 0.909358 0.028235
C20   C     C_R   0.365698 0.332821 0.932920 -0.163930
C21   C     C_R   0.459588 0.330835 0.932078 -0.195101
C22   C     C_R   0.521414 0.399028 0.906372 0.074356
C23   C     C_R   0.782872 0.202990 0.813015 -0.115090
C24   C     C_R   0.473501 0.444751 0.858970 0.059140
C25   C     C_3   0.517500 0.552329 0.862729 -0.595748
C26   C     C_3   0.417605 0.556548 0.865250 0.366148
C27   C     C_R   0.956995 0.576570 0.359456 0.041647
C28   C     C_R   0.027505 0.619572 0.676809 0.118372
C29   C     C_R   0.127647 0.713660 0.613549 -0.191297
C30   C     C_R   0.122584 0.693727 0.687187 -0.146652
C31   C     C_R   0.935272 0.575779 0.596324 -0.237467
C32   C     C_R   0.940483 0.591050 0.521347 0.150611
C33   C     C_R   0.038798 0.654907 0.527052 0.012260
C34   C     C_R   0.248825 0.525757 0.941030 -0.156489
C35   C     C_R   0.045693 0.651078 0.444788 0.423472
C36   C     C_R   0.857669 0.527044 0.357843 -0.254385
C37   C     C_R   0.849397 0.535158 0.438427 -0.216615
C38   C     C_R   0.737210 0.100904 0.642199 0.043247
C39   C     C_R   0.444658 0.862431 0.328783 0.123792
C40   C     C_R   0.601213 0.031466 0.396712 -0.222321
C41   C     C_R   0.503085 0.954153 0.324239 -0.173214
C42   C     C_R   0.489661 0.845542 0.403478 -0.244713
C43   C     C_R   0.584279 0.924548 0.478119 0.148992
C44   C     C_R   0.640528 0.020152 0.476622 0.144708
C45   C     C_R   0.784592 0.297396 0.735182 -0.140360
C46   C     C_R   0.728190 0.104899 0.558337 0.123465
C47   C     C_R   0.691993 0.001324 0.640127 -0.190043
C48   C     C_R   0.618083 0.912514 0.557619 -0.218312
C49   C     C_R   0.045397 0.105690 0.148177 -0.088282
C50   C     C_R   0.979169 0.091539 0.062143 -0.067067
C51   C     C_R   0.884524 0.991430 0.004915 0.089098
C52   C     C_R   0.855597 0.916897 0.039445 0.480011
C53   C     C_R   0.924126 0.935094 0.125289 -0.111526
C54   C     C_R   0.016529 0.029600 0.179309 0.065529
C55   C     C_3   0.123200 0.036988 0.218402 -0.534259
C56   C     C_R   0.244162 0.429765 0.017139 -0.129023
C57   C     C_3   0.156546 0.114571 0.181067 0.373170
C58   C     C_R   0.107547 0.605239 0.824048 -0.123750
C59   C     C_R   0.912239 0.200710 0.996234 -0.215707
C60   C     C_R   0.995479 0.185140 0.040776 0.024970
H1    H     H_    0.676613 0.514493 0.859865 0.108686
H2    H     H_    0.804307 0.435186 0.165620 0.101436
H3    H     H_    0.179087 0.837848 0.056341 0.145109
H4    H     H_    0.815421 0.660245 0.897242 0.138970
H5    H     H_    0.143056 0.595092 0.319131 0.142515
H6    H     H_    0.313706 0.839136 0.152286 0.089547
H7    H     H_    0.666920 0.343437 0.014774 0.087366
H8    H     H_    0.326912 0.290062 0.963909 0.128858
H9    H     H_    0.489190 0.286742 0.962444 0.124634
H10   H     H_    0.588774 0.612910 0.928043 0.191802
H11   H     H_    0.852833 0.499740 0.705888 0.091998
H12   H     H_    0.525410 0.548321 0.798679 0.209481
H13   H     H_    0.433598 0.621208 0.931066 0.093222
H14   H     H_    0.786869 0.473947 0.294118 0.143039
H15   H     H_    0.203085 0.769931 0.624303 0.136908
H16   H     H_    0.773145 0.489336 0.434472 0.136112
H17   H     H_    0.194133 0.733285 0.750517 0.125806
H18   H     H_    0.860181 0.520964 0.587533 0.108801
H19   H     H_    0.776061 0.139726 0.831748 0.100728
H20   H     H_    0.705063 0.992835 0.702410 0.126289
H21   H     H_    0.640904 0.103293 0.392473 0.141080
H22   H     H_    0.578080 0.838160 0.558505 0.134503
H23   H     H_    0.471709 0.969025 0.266869 0.123202
H24   H     H_    0.447902 0.775071 0.408470 0.116361
H25   H     H_    0.158663 0.074890 0.295047 0.170825
H26   H     H_    0.126785 0.961293 0.185557 0.218945
H27   H     H_    0.220041 0.193187 0.237770 0.087382
H28   H     H_    0.255197 0.555555 0.892330 0.148473
H29   H     H_    0.775913 0.321992 0.681726 0.097588
H30   H     H_    0.249057 0.370649 0.038920 0.119704
H31   H     H_    0.188464 0.664626 0.851854 0.104828
H32   H     H_    0.830379 0.154362 0.978696 0.141714
H33   H     H_    0.295666 0.659275 0.300389 0.087720
N1    N     N_R   0.055640 0.348550 0.045600 -0.044243
N2    N     N_R   0.798340 0.505430 0.954400 -0.045696
N3    N     N_R   0.931580 0.439470 0.128350 -0.039778
N4    N     N_R   0.051950 0.704140 0.002340 -0.096773
N5    N     N_R   0.944360 0.651450 0.954400 -0.104199
N6    N     N_R   0.039170 0.492150 0.176290 -0.051106
N7    N     N_R   0.188710 0.696600 0.128350 -0.043111
N8    N     N_R   0.794820 0.447010 0.002340 -0.036165
N9    N     N_R   0.960830 0.507850 0.823710 -0.042358
N10   N     N_R   0.811290 0.303400 0.871650 -0.038215
N11   N     N_R   0.205180 0.552990 0.997660 -0.042024
N12   N     N_R   0.814810 0.361830 0.823710 -0.038258
N13   N     N_R   0.201660 0.494570 0.045600 -0.035758
N14   N     N_R   0.068420 0.560530 0.871650 -0.046333
N15   N     N_R   0.948050 0.295860 0.997660 -0.052133
N16   N     N_R   0.185190 0.638170 0.176290 -0.037350
Ni1   Ni    Ni4+2 0.119330 0.493420 0.109950 0.212878
Ni2   Ni    Ni4+2 0.880670 0.506580 0.890050 0.192461
Ni3   Ni    Ni4+2 0.872590 0.372590 0.000000 0.210268
Ni4   Ni    Ni4+2 0.127410 0.627410 0.000000 0.198511
C61   C     C_3   0.184907 0.324078 0.163084 -0.386348
C62   C     C_3   0.254622 0.443576 0.222042 -0.950159
H34   H     H_    0.294621 0.482222 0.188084 0.268803
H35   H     H_    0.207802 0.481233 0.245112 0.260058
H36   H     H_    0.318334 0.457708 0.284994 0.247564
H37   H     H_    0.159078 0.301138 0.211465 0.191813
H38   H     H_    0.233562 0.285674 0.143259 0.217390
O1    O     O_3   0.354352 0.558065 0.786771 -0.747829
H39   H     H_    0.337272 0.494503 0.730848 0.327834
O2    O     O_3   0.136773 0.715630 0.445063 -0.772498
H40   H     H_    0.198438 0.719261 0.490640 0.301810
C63   C     C_3   0.811548 0.195259 0.556609 -0.407681
C64   C     C_3   0.866212 0.154132 0.499523 -0.853531
H41   H     H_    0.902568 0.109775 0.527125 0.262971
H42   H     H_    0.809823 0.101014 0.425914 0.255549
H43   H     H_    0.929708 0.222605 0.503528 0.250233
H44   H     H_    0.775935 0.240415 0.529650 0.180607
H45   H     H_    0.875650 0.251987 0.627000 0.212779
C65   C     C_3   0.819700 0.955407 0.903351 -0.292684
C66   C     C_3   0.705376 0.937799 0.880917 -0.826316
H46   H     H_    0.654066 0.855963 0.866443 0.297673
H47   H     H_    0.700413 0.995236 0.938617 0.240790
H48   H     H_    0.673031 0.946832 0.818262 0.215626
H49   H     H_    0.857591 0.011391 0.879431 0.168941
H50   H     H_    0.817801 0.879245 0.861429 0.199048
O3    O     O_3   0.763033 0.822803 0.985378 -0.771218
H51   H     H_    0.755989 0.780790 0.020048 0.311138
O4    O     O_3   0.184752 0.075994 0.108980 -0.747359
H52   H     H_    0.123017 0.009229 0.057815 0.335476

loop_
_geom_bond_atom_site_label_1
_geom_bond_atom_site_label_2
_ccdc_geom_bond_type
C9    N5    A    
C9    H4    S    
C46   C63   S    
C3    C23   A    
C19   C20   A    
C18   C26   S    
C8    N4    A    
C2    C12   A    
C26   H13   S    
N11   N13   A    
N4    N5    A    
O2    H40   S    
C39   C41   A    
C53   C54   A    
N8    Ni3   S    
C7    N3    A    
N3    Ni3   S    
N1    N15   A    
C64   H41   S    
C18   C24   A    
C6    H1    S    
C36   C37   A    
C18   C19   A    
N7    N16   A    
C13   H7    S    
C11   C14   A    
C65   H50   S    
C49   C54   A    
C41   H23   S    
N3    N6    A    
C29   C33   A    
C52   O3    S    
C49   C57   S    
C58   N14   A    
N14   Ni4   S    
C14   C39   S    
C30   H17   S    
C63   H44   S    
C15   C22   S    
C23   N10   A    
C31   C32   A    
C3    C38   S    
C45   N12   A    
C65   C66   S    
C62   H35   S    
C66   H48   S    
C26   O1    S    
C45   H29   S    
C43   C48   A    
C61   H37   S    
C11   H6    S    
C16   C27   S    
C56   H30   S    
N12   Ni2   S    
C59   C60   A    
C21   C22   A    
C4    C56   A    
C4    C19   S    
N9    Ni2   S    
C47   H20   S    
C44   C46   A    
C61   C62   S    
C39   C42   A    
O3    H51   S    
C4    C34   A    
C51   C52   A    
C20   H8    S    
C42   H24   S    
C24   C25   S    
C1    C60   A    
C10   C16   A    
C1    N1    A    
C64   H43   S    
C27   C35   A    
C65   H49   S    
N6    Ni1   S    
C5    C14   A    
N1    Ni1   S    
C34   N11   A    
N15   Ni3   S    
C21   H9    S    
C11   N7    A    
C55   H25   S    
C43   C44   A    
C7    H2    S    
C12   N9    A    
C29   C30   A    
C63   H45   S    
C47   C48   A    
C48   H22   S    
C6    C15   A    
C62   H36   S    
C50   C51   A    
C38   C47   A    
N9    N14   A    
N10   N12   A    
C25   H12   S    
C34   H28   S    
C32   C37   A    
C56   N13   A    
O1    H39   S    
C36   H14   S    
C9    C17   A    
C7    C16   A    
C37   H16   S    
C49   C50   A    
C13   C15   A    
C66   H46   S    
C22   C24   A    
C42   C43   A    
C13   N8    A    
C52   C53   A    
C31   H18   S    
C58   H31   S    
C10   H5    S    
C54   C55   S    
C40   C41   A    
C64   H42   S    
N5    Ni2   S    
C40   H21   S    
C12   H11   S    
C28   C31   A    
N7    Ni4   S    
C59   N15   A    
C5    H33   S    
C51   C65   S    
C2    C58   A    
C29   H15   S    
C27   C36   A    
N2    N8    A    
C8    C17   A    
C57   O4    S    
C50   C60   S    
C32   C33   A    
C55   H26   S    
C55   C57   S    
C25   C26   S    
C28   C30   A    
N2    Ni2   S    
N16   Ni1   S    
C63   C64   S    
C5    N16   A    
C35   O2    S    
C33   C35   A    
C3    C45   A    
C59   H32   S    
C10   N6    A    
C38   C46   A    
C8    H3    S    
N11   Ni4   S    
C57   H27   S    
C40   C44   A    
C20   C21   A    
N13   Ni1   S    
C6    N2    A    
C1    C61   S    
C66   H47   S    
N10   Ni3   S    
C2    C28   S    
C25   H10   S    
C23   H19   S    
O4    H52   S    
N4    Ni4   S    
C61   H38   S    
C62   H34   S    
