data_mof_unit_17217.cif
_audit_creation_date              2013-03-05T15:50:59-0500
_audit_creation_method            fapswitch 2.2
_symmetry_space_group_name_H-M    P1
_symmetry_Int_Tables_number       1
_space_group_crystal_system       triclinic
_cell_length_a                    6.939182
_cell_length_b                    17.51342
_cell_length_c                    19.300739
_cell_angle_alpha                 109.44097
_cell_angle_beta                  90.04881
_cell_angle_gamma                 90.603541
_cell_volume                      2211.71510877

loop_
_atom_site_label
_atom_site_type_symbol
_atom_site_description
_atom_site_fract_x
_atom_site_fract_y
_atom_site_fract_z
_atom_type_partial_charge
O1    O     O_R   0.505810 0.439670 0.562310 -0.580356
O2    O     O_R   0.169070 0.404920 0.411210 -0.605169
O3    O     O_R   0.005550 0.560330 0.437690 -0.612369
C1    C     C_R   0.338501 0.381404 0.382985 0.868894
O4    O     O_R   0.175650 0.430000 0.560110 -0.608567
O5    O     O_R   0.012170 0.585580 0.587650 -0.571280
C2    C     C_R   0.344416 0.414879 0.581789 1.023570
O6    O     O_R   0.499180 0.414420 0.412350 -0.608712
O7    O     O_3   0.341430 0.551020 0.508860 -0.229403
V1    V     V_3+5 0.063930 0.490540 0.498360 1.204485
O8    O     O_R   0.682850 0.595080 0.588790 -0.523195
C3    C     C_R   0.852756 0.617788 0.616911 1.119727
O9    O     O_R   0.676280 0.570000 0.439890 -0.592555
C4    C     C_R   0.845443 0.585117 0.418390 0.968809
V2    V     V_3+5 0.564760 0.509460 0.501640 1.259893
O10   O     O_3   0.837130 0.448980 0.491140 -0.306158
C5    C     C_R   0.061888 0.861467 0.175257 -0.240658
C6    C     C_R   0.910239 0.859649 0.126362 -0.192110
C7    C     C_R   0.748109 0.807896 0.122991 -0.129187
C8    C     C_R   0.736891 0.762014 0.171261 0.096307
C9    C     C_R   0.889484 0.766582 0.221229 0.027632
C10   C     C_R   0.052668 0.815773 0.222555 0.156635
C11   C     C_R   0.575132 0.712568 0.171905 -0.163698
C12   C     C_R   0.564476 0.669298 0.220840 -0.219652
C13   C     C_R   0.714617 0.673890 0.270473 0.152151
C14   C     C_R   0.878829 0.722001 0.270368 0.039226
C15   C     C_R   0.032246 0.725699 0.319540 0.134829
C16   C     C_R   0.193885 0.774559 0.319908 -0.189903
C17   C     C_R   0.203645 0.819413 0.272073 -0.221584
C18   C     C_R   0.703153 0.630930 0.320073 -0.248081
C19   C     C_R   0.856347 0.633404 0.368441 -0.126065
C20   C     C_R   0.021185 0.680566 0.367523 -0.219406
H1    H     H_    0.186618 0.900096 0.177595 0.118853
H2    H     H_    0.453517 0.707818 0.135542 0.167809
H3    H     H_    0.437391 0.632536 0.220152 0.143285
H4    H     H_    0.576462 0.594086 0.319928 0.129582
H5    H     H_    0.139773 0.682966 0.404832 0.154402
H6    H     H_    0.313011 0.778111 0.357229 0.155724
H7    H     H_    0.330044 0.856829 0.273641 0.135209
C21   C     C_3   0.708851 0.777632 0.775672 -0.191662
C22   C     C_3   0.802004 0.774405 0.701923 0.451828
H8    H     H_    0.563292 0.801035 0.794793 0.181920
C23   C     C_3   0.868092 0.686889 0.687772 -0.383042
C24   C     C_3   0.780485 0.689908 0.762445 -0.237610
C25   C     C_3   0.971846 0.724218 0.801271 0.242605
C26   C     C_3   0.058409 0.721511 0.727673 0.301168
C27   C     C_3   0.994410 0.809482 0.740247 -0.370995
C28   C     C_3   0.903899 0.811112 0.814298 -0.317655
H9    H     H_    0.082555 0.858141 0.730451 0.194631
C29   C     C_3   0.481880 0.236266 0.304742 -0.129048
C30   C     C_3   0.321144 0.180950 0.257591 -0.134280
H10   H     H_    0.268892 0.123427 0.263750 0.100447
H11   H     H_    0.560607 0.224865 0.350371 0.103261
C31   C     C_3   0.414400 0.189268 0.187842 -0.083580
C32   C     C_3   0.574945 0.243845 0.234253 -0.098565
C33   C     C_3   0.449958 0.319189 0.242315 -0.131702
C34   C     C_3   0.289221 0.263870 0.195161 -0.123649
C35   C     C_3   0.196157 0.256291 0.265652 -0.099117
C36   C     C_3   0.356700 0.310867 0.312063 -0.075686
H12   H     H_    0.730464 0.238507 0.220597 0.105106
H13   H     H_    0.502211 0.376715 0.236161 0.102341
H14   H     H_    0.210496 0.275270 0.149532 0.107050
H15   H     H_    0.040638 0.261629 0.279308 0.103948
C37   C     C_R   0.569075 0.135399 0.821265 -0.213800
C38   C     C_R   0.417121 0.135602 0.869661 -0.151025
C39   C     C_R   0.253263 0.182699 0.870239 -0.246315
C40   C     C_R   0.241031 0.229461 0.823685 0.151702
C41   C     C_R   0.392643 0.227885 0.774553 0.033429
C42   C     C_R   0.556803 0.180383 0.773129 0.142865
C43   C     C_R   0.079700 0.277771 0.825304 -0.219024
C44   C     C_R   0.067331 0.323327 0.778035 -0.163268
C45   C     C_R   0.215649 0.321202 0.728014 0.129497
C46   C     C_R   0.379854 0.273734 0.726634 0.031722
C47   C     C_R   0.531380 0.272068 0.677447 0.154155
C48   C     C_R   0.692880 0.223894 0.675923 -0.221859
C49   C     C_R   0.705285 0.178376 0.723207 -0.178078
C50   C     C_R   0.203055 0.365901 0.679637 -0.185543
C51   C     C_R   0.354640 0.365324 0.630983 -0.149505
C52   C     C_R   0.518782 0.318489 0.630636 -0.225030
H16   H     H_    0.695110 0.098851 0.819962 0.143455
H17   H     H_    0.135848 0.183620 0.907551 0.138701
H18   H     H_    0.962216 0.279956 0.862864 0.144140
H19   H     H_    0.940793 0.359814 0.780255 0.161062
H20   H     H_    0.076982 0.402409 0.680862 0.157665
H21   H     H_    0.636063 0.317416 0.593229 0.131323
H22   H     H_    0.810353 0.221703 0.638356 0.139836
H23   H     H_    0.831852 0.141910 0.720997 0.151248
O11   O     O_R   0.271890 0.085690 0.087580 -0.597272
O12   O     O_R   0.595690 0.070020 0.939870 -0.601404
O13   O     O_R   0.758900 0.914390 0.912370 -0.601853
C53   C     C_R   0.426983 0.085475 0.918400 0.960499
O14   O     O_R   0.602020 0.095100 0.088770 -0.596496
O15   O     O_R   0.765280 0.939660 0.062330 -0.630244
C54   C     C_R   0.432582 0.118689 0.116949 0.888465
O16   O     O_R   0.265520 0.060430 0.937620 -0.600090
O17   O     O_3   0.429560 0.949050 0.991100 -0.268896
V3    V     V_3+5 0.707160 0.009450 0.001650 1.157748
O18   O     O_R   0.094540 0.929890 0.060190 -0.583276
C55   C     C_R   0.924385 0.912472 0.079783 0.974396
O19   O     O_R   0.088200 0.904800 0.911290 -0.575058
C56   C     C_R   0.918394 0.881383 0.883849 1.077382
V4    V     V_3+5 0.206300 0.990390 0.998440 1.188200
O20   O     O_3   0.934030 0.050940 0.008900 -0.287461
C57   C     C_2   0.668112 0.624950 0.779453 0.759271
H24   H     H_    0.598204 0.638409 0.832347 0.057505
O21   O     O_2   0.656579 0.556790 0.734722 -0.575846
N1    N     N_R   0.067306 0.694445 0.854512 0.238522
O22   O     O_R   0.112985 0.618498 0.836221 -0.359356
O23   O     O_R   0.099475 0.742357 0.921274 -0.390534
N2    N     N_R   0.247513 0.690103 0.701406 0.234065
O24   O     O_R   0.351358 0.726388 0.665547 -0.375779
O25   O     O_R   0.292837 0.617510 0.699151 -0.370092
C58   C     C_2   0.593696 0.799561 0.067792 0.540201
H25   H     H_    0.495786 0.849070 0.073330 0.046591
O26   O     O_2   0.574703 0.736666 0.016132 -0.536161
N3    N     N_R   0.710989 0.805450 0.648796 0.262504
O27   O     O_R   0.654332 0.880195 0.669394 -0.387545
O28   O     O_R   0.695624 0.760601 0.580107 -0.391968

loop_
_geom_bond_atom_site_label_1
_geom_bond_atom_site_label_2
_geom_bond_distance
_ccdc_geom_bond_type
C9    C14   1.416468 A    
C10   C17   1.404059 A    
O17   V4    1.702976 S    
C22   C23   1.539634 S    
C46   C47   1.411245 A    
C7    C8    1.420162 A    
C4    C19   1.480458 S    
C1    O6    1.290707 A    
C57   O21   1.220073 D    
C24   C57   1.496775 S    
C34   H14   1.110144 S    
C27   H9    1.110206 S    
C50   C51   1.408527 A    
C33   C34   1.549054 S    
C14   C15   1.412152 A    
C29   C36   1.543604 S    
C16   C17   1.398513 A    
C3    C23   1.497231 S    
O5    C3    1.289557 A    
C18   C19   1.404930 A    
C7    C58   1.481780 S    
V2    O10   2.152935 S    
C13   C18   1.402556 A    
N3    O27   1.300342 A    
C42   C49   1.403977 A    
C38   C53   1.487001 S    
C6    C7    1.425003 A    
C26   C27   1.547740 S    
N2    O24   1.298497 A    
C37   H16   1.084593 S    
O8    V2    2.010497 S    
C27   C28   1.553308 S    
C41   C42   1.412550 A    
N1    O22   1.300294 A    
C43   C44   1.400736 A    
O1    V2    1.993855 S    
O12   C53   1.302309 A    
O7    V1    2.164371 S    
O15   C55   1.294743 A    
O13   V3    1.993452 S    
O16   V4    2.000049 S    
C32   H12   1.108615 S    
C21   H8    1.110442 S    
C39   C40   1.405857 A    
O9    C4    1.299092 A    
N1    O23   1.300044 A    
C5    H1    1.084490 S    
O14   C54   1.307913 A    
C57   H24   1.084524 S    
O14   V3    1.988942 S    
C29   C30   1.549000 S    
C44   H19   1.083905 S    
O11   C54   1.290725 A    
C29   H11   1.110145 S    
C20   H5    1.084248 S    
C47   C48   1.404304 A    
C40   C41   1.411273 A    
C12   H3    1.083843 S    
C12   C13   1.398163 A    
O4    C2    1.302357 A    
C51   C52   1.409335 A    
C50   H20   1.084649 S    
C41   C46   1.415544 A    
O18   V4    1.992341 S    
C30   H10   1.110223 S    
O12   V3    2.000778 S    
O2    C1    1.307908 A    
C48   C49   1.400479 A    
O13   C56   1.290263 A    
C45   C50   1.407186 A    
C48   H22   1.083910 S    
C19   C20   1.407406 A    
C8    C11   1.413054 A    
C16   H6    1.083585 S    
C11   C12   1.395405 A    
C11   H2    1.081816 S    
O17   V3    2.164289 S    
C17   H7    1.083642 S    
C32   C33   1.550894 S    
O19   V4    2.010281 S    
C5    C6    1.405908 A    
C22   C27   1.544565 S    
C30   C35   1.550854 S    
C37   C42   1.406976 A    
C49   H23   1.083874 S    
V3    O20   1.712837 S    
O3    C4    1.295625 A    
C2    C51   1.486444 S    
C21   C22   1.547884 S    
C38   C39   1.409608 A    
O6    V2    2.005189 S    
C47   C52   1.405405 A    
C26   N2    1.453350 S    
C23   C24   1.549513 S    
C35   C36   1.537202 S    
C6    C55   1.491811 S    
C22   N3    1.457112 S    
O2    V1    1.989037 S    
O15   V3    1.997672 S    
C52   H21   1.084553 S    
C24   C25   1.538719 S    
C58   H25   1.084291 S    
C25   C28   1.536888 S    
C35   H15   1.108615 S    
C21   C28   1.556303 S    
C31   C32   1.537216 S    
C15   C20   1.405159 A    
O1    C2    1.297395 A    
C29   C32   1.550978 S    
C45   C46   1.412597 A    
O5    V1    1.993400 S    
O11   V4    2.005991 S    
O8    C3    1.299288 A    
C5    C10   1.401152 A    
C33   C36   1.543497 S    
C18   H4    1.084481 S    
C40   C43   1.404473 A    
C37   C38   1.408506 A    
C30   C31   1.543482 S    
O9    V2    1.992213 S    
C13   C14   1.410441 A    
O4    V1    2.000625 S    
O3    V1    1.997895 S    
V1    O10   1.712904 S    
C39   H17   1.084553 S    
C34   C35   1.550999 S    
C28   C56   1.491353 S    
C1    C36   1.514499 S    
O19   C56   1.296648 A    
N3    O28   1.300286 A    
O7    V2    1.705130 S    
V4    O20   2.152953 S    
C43   H18   1.083902 S    
C23   C26   1.541227 S    
N2    O25   1.299521 A    
C31   C54   1.514510 S    
C53   O16   1.297699 A    
C25   C26   1.529083 S    
C21   C24   1.558150 S    
C44   C45   1.404035 A    
C8    C9    1.415210 A    
O18   C55   1.303905 A    
C15   C16   1.402168 A    
C33   H13   1.110242 S    
C9    C10   1.410611 A    
C25   N1    1.459253 S    
C58   O26   1.220860 D    
C31   C34   1.543618 S    
