data_mof_unit_66311.cif
_audit_creation_date              2012-12-10T19:50:17-0500
_audit_creation_method            fapswitch 2.2
_symmetry_space_group_name_H-M    P1
_symmetry_Int_Tables_number       1
_space_group_crystal_system       triclinic
_cell_length_a                    36.81635
_cell_length_b                    18.272415
_cell_length_c                    18.273235
_cell_angle_alpha                 89.993236
_cell_angle_beta                  119.705083
_cell_angle_gamma                 90.00741
_cell_volume                      10677.4050605

loop_
_atom_site_label
_atom_site_type_symbol
_atom_type_description
_atom_site_fract_x
_atom_site_fract_y
_atom_site_fract_z
_atom_type_partial_charge
C1    C     C_R   0.500003 0.000004 0.358776 0.935427
C2    C     C_R   0.499997 0.999996 0.641224 0.935376
C3    C     C_R   0.000003 0.500004 0.358776 0.935435
C4    C     C_R   0.999997 0.499996 0.641224 0.935375
C5    C     C_1   0.837266 0.003336 0.838233 -0.015235
C6    C     C_1   0.162735 0.003134 0.161597 -0.015178
C7    C     C_1   0.337266 0.503362 0.838203 -0.015242
C8    C     C_1   0.662735 0.503158 0.161617 -0.015177
C9    C     C_1   0.662773 0.001196 0.664146 0.019158
C10   C     C_1   0.337228 0.001041 0.335719 0.019114
C11   C     C_1   0.162773 0.501214 0.664127 0.019169
C12   C     C_1   0.837227 0.501057 0.335731 0.019118
C13   C     C_1   0.625387 0.000285 0.625934 -0.196403
C14   C     C_1   0.374614 0.000232 0.374006 -0.196411
C15   C     C_1   0.125387 0.500290 0.625927 -0.196404
C16   C     C_1   0.874613 0.500237 0.374010 -0.196412
C17   C     C_1   0.499974 0.000010 0.282322 -0.192721
C18   C     C_1   0.500026 0.999989 0.717678 -0.192809
C19   C     C_1   0.999974 0.500010 0.282322 -0.192713
C20   C     C_1   0.000026 0.499989 0.717678 -0.192809
C21   C     C_1   0.499960 0.000008 0.217559 -0.190607
C22   C     C_1   0.500040 0.999991 0.782440 -0.190654
C23   C     C_1   0.999960 0.500008 0.217560 -0.190604
C24   C     C_1   0.000040 0.499991 0.782440 -0.190652
C25   C     C_R   1.000000 0.141046 0.999996 0.935692
C26   C     C_R   0.000001 0.858953 0.000004 0.932350
C27   C     C_R   0.500000 0.641046 0.999996 0.935627
C28   C     C_R   0.500001 0.358953 0.000004 0.932372
C29   C     C_R   0.918887 0.999927 0.918903 0.912345
C30   C     C_R   0.081113 0.999920 0.081095 0.912498
C31   C     C_R   0.418886 0.499928 0.918902 0.912321
C32   C     C_R   0.581113 0.499921 0.081095 0.912479
C33   C     C_R   0.499999 0.858750 0.999995 0.933577
C34   C     C_R   0.500001 0.141248 0.000004 0.933642
C35   C     C_R   0.999999 0.358750 0.999995 0.933580
C36   C     C_R   0.000001 0.641248 0.000004 0.933648
C37   C     C_R   0.499984 0.000002 0.141157 0.933930
C38   C     C_R   0.500015 0.999996 0.858843 0.933886
C39   C     C_R   0.999984 0.500002 0.141157 0.933935
C40   C     C_R   0.000015 0.499996 0.858843 0.933891
C41   C     C_1   0.999998 0.217509 0.999987 -0.194689
C42   C     C_1   0.000003 0.782489 0.000013 -0.195428
C43   C     C_1   0.499998 0.717509 0.999987 -0.194721
C44   C     C_1   0.500003 0.282489 0.000013 -0.195428
C45   C     C_R   0.581122 0.000025 0.581052 0.907592
C46   C     C_R   0.418878 0.000016 0.418950 0.907599
C47   C     C_R   0.081122 0.500025 0.581053 0.907585
C48   C     C_R   0.918878 0.500016 0.418949 0.907600
C49   C     C_1   0.499997 0.782282 0.999987 -0.191144
C50   C     C_1   0.500004 0.217716 0.000012 -0.190796
C51   C     C_1   0.999997 0.282282 0.999987 -0.191137
C52   C     C_1   0.000004 0.717715 0.000012 -0.190787
C53   C     C_3   0.724525 0.066339 0.674818 -0.176938
C54   C     C_3   0.274290 0.930917 0.311682 -0.111322
C55   C     C_3   0.275491 0.070450 0.319077 -0.176981
C56   C     C_3   0.725722 0.927921 0.694688 -0.111318
C57   C     C_3   0.224526 0.565659 0.673920 -0.176928
C58   C     C_3   0.774288 0.430559 0.310997 -0.111326
C59   C     C_3   0.775490 0.570025 0.319765 -0.176978
C60   C     C_3   0.225724 0.427508 0.695682 -0.111317
C61   C     C_3   0.775618 0.924991 0.747101 0.191739
C62   C     C_3   0.225453 0.074594 0.268496 0.246456
C63   C     C_3   0.224392 0.927748 0.259585 0.191872
C64   C     C_3   0.774562 0.070547 0.725084 0.246542
C65   C     C_3   0.275620 0.424617 0.748141 0.191724
C66   C     C_3   0.725453 0.574178 0.269220 0.246462
C67   C     C_3   0.724390 0.427415 0.258865 0.191851
C68   C     C_3   0.274563 0.569875 0.724137 0.246556
C69   C     C_1   0.874650 0.001414 0.874886 -0.231612
C70   C     C_1   0.125351 0.001312 0.125081 -0.231637
C71   C     C_1   0.374650 0.501427 0.874879 -0.231612
C72   C     C_1   0.625351 0.501325 0.125086 -0.231631
C73   C     C_3   0.708728 0.002590 0.711447 0.062897
C74   C     C_3   0.291272 0.002281 0.288340 0.062885
C75   C     C_3   0.208728 0.502632 0.711413 0.062893
C76   C     C_3   0.791272 0.502315 0.288361 0.062880
C77   C     C_3   0.791401 0.003856 0.793792 0.143652
C78   C     C_3   0.208600 0.003532 0.205966 0.143620
C79   C     C_3   0.291401 0.503899 0.793751 0.143649
C80   C     C_3   0.708600 0.503569 0.205992 0.143616
C81   C     C_3   0.775156 0.014611 0.860650 0.093579
C82   C     C_3   0.224819 0.006835 0.138436 0.093628
C83   C     C_3   0.275153 0.515787 0.860450 0.093575
C84   C     C_3   0.724821 0.507693 0.138502 0.093624
C85   C     C_3   0.724669 0.013670 0.808889 0.241141
C86   C     C_3   0.275307 0.006030 0.190224 0.241154
C87   C     C_3   0.224666 0.514825 0.808696 0.241147
C88   C     C_3   0.775309 0.506872 0.190286 0.241153
H1    H     H_    0.714734 0.046862 0.610179 0.166486
H2    H     H_    0.282006 0.941222 0.377813 0.170850
H3    H     H_    0.285303 0.055960 0.385252 0.166481
H4    H     H_    0.718023 0.932960 0.627879 0.170842
H5    H     H_    0.214738 0.545434 0.609554 0.166484
H6    H     H_    0.782002 0.440290 0.377225 0.170850
H7    H     H_    0.785301 0.554981 0.385794 0.166485
H8    H     H_    0.218028 0.431738 0.628811 0.170842
O1    O     O_R   0.500010 0.060620 0.392670 -0.620007
O2    O     O_R   0.499990 0.939380 0.607330 -0.620442
O3    O     O_R   0.499990 0.060620 0.607330 -0.619937
O4    O     O_R   0.500010 0.939380 0.392670 -0.620441
O5    O     O_R   0.000010 0.560620 0.392670 -0.620001
O6    O     O_R   0.999990 0.439380 0.607330 -0.620453
O7    O     O_R   0.999990 0.560620 0.607330 -0.619926
O8    O     O_R   0.000010 0.439380 0.392670 -0.620452
O9    O     O_R   0.561430 0.060620 0.561430 -0.619623
O10   O     O_R   0.438570 0.939380 0.438570 -0.617822
O11   O     O_R   0.438570 0.060620 0.438570 -0.620002
O12   O     O_R   0.561430 0.939380 0.561430 -0.618174
O13   O     O_R   0.061430 0.560620 0.561430 -0.619565
O14   O     O_R   0.938570 0.439380 0.438570 -0.617854
O15   O     O_R   0.938570 0.560620 0.438570 -0.619970
O16   O     O_R   0.061430 0.439380 0.561430 -0.618223
O17   O     O_R   1.000000 0.107140 0.939380 -0.619955
O18   O     O_R   0.000000 0.892860 0.060620 -0.620608
O19   O     O_R   1.000000 0.107140 0.060620 -0.620052
O20   O     O_R   1.000000 0.892860 0.939380 -0.620674
O21   O     O_R   0.500000 0.607140 0.939380 -0.619966
O22   O     O_R   0.500000 0.392860 0.060620 -0.620591
O23   O     O_R   0.500000 0.607140 0.060620 -0.620064
O24   O     O_R   0.500000 0.392860 0.939380 -0.620658
O25   O     O_R   0.938580 0.000000 0.877970 -0.613635
O26   O     O_R   0.061420 0.000000 0.122030 -0.613868
O27   O     O_R   0.438580 0.500000 0.877970 -0.613605
O28   O     O_R   0.561420 0.500000 0.122030 -0.613838
O29   O     O_R   0.938570 0.000000 0.999140 -0.625158
O30   O     O_R   0.061430 0.000000 0.000860 -0.625149
O31   O     O_R   0.438570 0.500000 0.999140 -0.625156
O32   O     O_R   0.561430 0.500000 0.000860 -0.625152
O33   O     O_R   0.534690 0.892630 0.034650 -0.622428
O34   O     O_R   0.465310 0.107370 0.965350 -0.621895
O35   O     O_R   0.465310 0.892630 0.965350 -0.622408
O36   O     O_R   0.534690 0.107370 0.034650 -0.621888
O37   O     O_R   0.034690 0.392630 0.034650 -0.622430
O38   O     O_R   0.965310 0.607370 0.965350 -0.621892
O39   O     O_R   0.965310 0.392630 0.965350 -0.622415
O40   O     O_R   0.034690 0.607370 0.034650 -0.621890
O41   O     O_R   0.534680 0.000000 0.141990 -0.622870
O42   O     O_R   0.465320 0.000000 0.858010 -0.622927
O43   O     O_R   0.034680 0.500000 0.141990 -0.622861
O44   O     O_R   0.965320 0.500000 0.858010 -0.622916
O45   O     O_R   0.465320 0.000000 0.072630 -0.620996
O46   O     O_R   0.534680 0.000000 0.927370 -0.621039
O47   O     O_R   0.965320 0.500000 0.072630 -0.621006
O48   O     O_R   0.034680 0.500000 0.927370 -0.621047
Zn1   Zn    Zn3+2 0.500000 0.080950 0.500000 0.962438
Zn2   Zn    Zn3+2 0.500000 0.919050 0.500000 0.962613
Zn3   Zn    Zn3+2 0.000000 0.580950 0.500000 0.962472
Zn4   Zn    Zn3+2 0.000000 0.419050 0.500000 0.962569
Zn5   Zn    Zn3+2 0.000010 0.000000 0.919080 0.956403
Zn6   Zn    Zn3+2 0.999990 0.000000 0.080920 0.956374
Zn7   Zn    Zn3+2 0.500010 0.500000 0.919080 0.956417
Zn8   Zn    Zn3+2 0.499990 0.500000 0.080920 0.956400
Zn9   Zn    Zn3+2 0.546310 0.000000 0.046300 0.956271
Zn10  Zn    Zn3+2 0.453690 0.000000 0.953700 0.956401
Zn11  Zn    Zn3+2 0.046310 0.500000 0.046300 0.956263
Zn12  Zn    Zn3+2 0.953690 0.500000 0.953700 0.956378
N1    N     N_3   0.790363 0.060481 0.664885 -0.438120
H9    H     H_    0.771375 0.026713 0.614119 0.175827
H10   H     H_    0.790141 0.109715 0.635473 0.182283
N2    N     N_3   0.208840 0.925436 0.320186 -0.475642
H11   H     H_    0.223176 0.883668 0.364516 0.198818
H12   H     H_    0.176468 0.917352 0.289515 0.214308
N3    N     N_3   0.209683 0.071338 0.329342 -0.438234
H13   H     H_    0.228683 0.040545 0.382988 0.175754
H14   H     H_    0.209917 0.122979 0.354248 0.182211
N4    N     N_3   0.791192 0.915901 0.687045 -0.475566
H15   H     H_    0.776863 0.871620 0.646564 0.198855
H16   H     H_    0.823564 0.907709 0.718472 0.213986
N5    N     N_3   0.290368 0.558774 0.664088 -0.438109
H17   H     H_    0.271383 0.524573 0.613787 0.175834
H18   H     H_    0.290145 0.607606 0.634006 0.182288
N6    N     N_3   0.708835 0.424355 0.319435 -0.475629
H19   H     H_    0.723170 0.382294 0.363354 0.198830
H20   H     H_    0.676463 0.416256 0.288681 0.214276
N7    N     N_3   0.709680 0.570172 0.330026 -0.438217
H21   H     H_    0.728677 0.539037 0.383367 0.175767
H22   H     H_    0.709915 0.621568 0.355439 0.182220
N8    N     N_3   0.291197 0.414496 0.688221 -0.475559
H23   H     H_    0.276869 0.369861 0.648347 0.198855
H24   H     H_    0.323570 0.406293 0.719764 0.213929
C89   C     C_3   0.700436 0.856739 0.691746 -0.364033
C90   C     C_3   0.681320 0.817085 0.606760 -0.916963
H25   H     H_    0.658018 0.852900 0.556086 0.266220
H26   H     H_    0.705938 0.801835 0.591345 0.254845
H27   H     H_    0.665221 0.766512 0.609220 0.257817
H28   H     H_    0.718414 0.816123 0.740903 0.220192
H29   H     H_    0.674078 0.869481 0.702589 0.230316
C91   C     C_3   0.300471 0.144549 0.333945 -0.366087
C92   C     C_3   0.306057 0.186393 0.411638 -0.926894
H30   H     H_    0.275597 0.196152 0.408471 0.254346
H31   H     H_    0.326503 0.154937 0.469820 0.263153
H32   H     H_    0.321111 0.240079 0.415785 0.258434
H33   H     H_    0.332395 0.135065 0.344496 0.237804
H34   H     H_    0.286607 0.182613 0.280136 0.194734
C93   C     C_3   0.299570 0.858035 0.321066 -0.364100
C94   C     C_3   0.318679 0.824401 0.409324 -0.917383
H35   H     H_    0.341989 0.862505 0.456699 0.265818
H36   H     H_    0.294060 0.812782 0.425943 0.254923
H37   H     H_    0.334767 0.772372 0.411444 0.257932
H38   H     H_    0.281589 0.814804 0.275647 0.220156
H39   H     H_    0.325932 0.867421 0.309241 0.230467
C95   C     C_3   0.699540 0.141028 0.653230 -0.366275
C96   C     C_3   0.693998 0.176273 0.572116 -0.927223
H40   H     H_    0.724474 0.183577 0.574589 0.254436
H41   H     H_    0.673575 0.141565 0.516882 0.263242
H42   H     H_    0.678938 0.230708 0.563091 0.258329
H43   H     H_    0.667602 0.133466 0.643367 0.237672
H44   H     H_    0.713380 0.182509 0.703479 0.194809
C97   C     C_3   0.200439 0.356637 0.693708 -0.364013
C98   C     C_3   0.181323 0.316086 0.609271 -0.916914
H45   H     H_    0.158021 0.351523 0.558109 0.266281
H46   H     H_    0.205942 0.300292 0.594069 0.254836
H47   H     H_    0.165225 0.265770 0.612419 0.257793
H48   H     H_    0.218417 0.316450 0.743417 0.220194
H49   H     H_    0.174080 0.369884 0.704373 0.230285
C99   C     C_3   0.800472 0.644218 0.335368 -0.366091
C100  C     C_3   0.806055 0.685354 0.413465 -0.926964
H50   H     H_    0.775594 0.694846 0.410387 0.254351
H51   H     H_    0.826499 0.653528 0.471339 0.263165
H52   H     H_    0.821110 0.739143 0.418142 0.258420
H53   H     H_    0.832398 0.634941 0.345835 0.237792
H54   H     H_    0.786612 0.682673 0.281935 0.194736
C101  C     C_3   0.799568 0.357835 0.319668 -0.364084
C102  C     C_3   0.818676 0.323524 0.407593 -0.917321
H55   H     H_    0.841986 0.361389 0.455342 0.265861
H56   H     H_    0.794056 0.311503 0.424096 0.254908
H57   H     H_    0.834762 0.271633 0.409203 0.257919
H58   H     H_    0.781587 0.314876 0.273827 0.220157
H59   H     H_    0.825929 0.367593 0.307937 0.230451
C103  C     C_3   0.199539 0.640386 0.651303 -0.366325
C104  C     C_3   0.194003 0.674597 0.569720 -0.927224
H60   H     H_    0.224480 0.681522 0.572104 0.254458
H61   H     H_    0.173582 0.639418 0.514959 0.263252
H62   H     H_    0.178941 0.729109 0.559947 0.258310
H63   H     H_    0.167599 0.633123 0.641529 0.237647
H64   H     H_    0.213375 0.682361 0.700982 0.194825
C105  C     C_3   0.794059 0.858081 0.811222 -0.338096
C106  C     C_3   0.797640 0.784261 0.774646 -0.932923
H65   H     H_    0.768431 0.769145 0.716856 0.274161
H66   H     H_    0.823576 0.785515 0.760171 0.258225
H67   H     H_    0.804903 0.740487 0.822115 0.253492
H68   H     H_    0.826406 0.870346 0.861480 0.210254
H69   H     H_    0.776390 0.847813 0.844317 0.208729
C107  C     C_3   0.209750 0.151532 0.222378 -0.331065
C108  C     C_3   0.162447 0.165962 0.176202 -0.854258
H70   H     H_    0.147620 0.144664 0.211990 0.273392
H71   H     H_    0.156722 0.225899 0.168380 0.236649
H72   H     H_    0.146992 0.142401 0.112006 0.256578
H73   H     H_    0.222741 0.195071 0.270992 0.199166
H74   H     H_    0.221998 0.166091 0.180301 0.205098
C109  C     C_3   0.205940 0.857021 0.201639 -0.338149
C110  C     C_3   0.202374 0.787074 0.244675 -0.932458
H75   H     H_    0.231596 0.774568 0.303670 0.274135
H76   H     H_    0.176460 0.791920 0.258938 0.258328
H77   H     H_    0.195089 0.739890 0.201268 0.253443
H78   H     H_    0.173586 0.867626 0.150384 0.210012
H79   H     H_    0.223591 0.842273 0.169629 0.208637
C111  C     C_3   0.790251 0.149900 0.764208 -0.331355
C112  C     C_3   0.837555 0.164192 0.809162 -0.853531
H80   H     H_    0.852399 0.138498 0.775500 0.273994
H81   H     H_    0.843280 0.224081 0.811657 0.236461
H82   H     H_    0.852994 0.145050 0.875257 0.255969
H83   H     H_    0.777277 0.190081 0.711844 0.199110
H84   H     H_    0.777980 0.169239 0.804725 0.205089
C113  C     C_3   0.294061 0.358339 0.813172 -0.338091
C114  C     C_3   0.297643 0.283976 0.777612 -0.932966
H85   H     H_    0.268436 0.268471 0.720027 0.274162
H86   H     H_    0.323582 0.284678 0.763132 0.258214
H87   H     H_    0.304903 0.240756 0.825673 0.253497
H88   H     H_    0.326407 0.370849 0.863265 0.210294
H89   H     H_    0.276390 0.348764 0.846400 0.208738
C115  C     C_3   0.709753 0.651412 0.223859 -0.331089
C116  C     C_3   0.662450 0.665834 0.177819 -0.854193
H90   H     H_    0.647621 0.644045 0.213394 0.273462
H91   H     H_    0.656727 0.725790 0.170584 0.236631
H92   H     H_    0.646995 0.642751 0.113396 0.256507
H93   H     H_    0.722743 0.694597 0.272900 0.199160
H94   H     H_    0.722003 0.666502 0.181931 0.205095
C117  C     C_3   0.705938 0.357081 0.200224 -0.338130
C118  C     C_3   0.702370 0.286679 0.242567 -0.932524
H95   H     H_    0.731590 0.273880 0.301440 0.274139
H96   H     H_    0.676453 0.291130 0.256868 0.258315
H97   H     H_    0.695088 0.239852 0.198698 0.253446
H98   H     H_    0.673585 0.367873 0.149070 0.210034
H99   H     H_    0.723591 0.342820 0.168074 0.208648
C119  C     C_3   0.290249 0.649542 0.762175 -0.331408
C120  C     C_3   0.337552 0.663807 0.806942 -0.853389
H100  H     H_    0.352399 0.637459 0.773636 0.274083
H101  H     H_    0.343275 0.723647 0.808623 0.236424
H102  H     H_    0.352989 0.645355 0.873291 0.255885
H103  H     H_    0.277276 0.689181 0.709265 0.199102
H104  H     H_    0.277973 0.669599 0.802417 0.205089
N9    N     N_3   0.706486 0.082404 0.819401 -0.445931
H105  H     H_    0.709260 0.084792 0.879132 0.172594
H106  H     H_    0.721810 0.128374 0.814915 0.179955
N10   N     N_3   0.292629 0.942448 0.167484 -0.454087
H107  H     H_    0.277923 0.893745 0.167028 0.181207
H108  H     H_    0.288597 0.948585 0.107015 0.174284
N11   N     N_3   0.293480 0.071932 0.173642 -0.446169
H109  H     H_    0.290687 0.069220 0.113910 0.172705
H110  H     H_    0.278161 0.119483 0.173951 0.180054
N12   N     N_3   0.707334 0.953914 0.837135 -0.454217
H111  H     H_    0.722045 0.904141 0.842032 0.181346
H112  H     H_    0.711347 0.965072 0.896813 0.174375
N13   N     N_3   0.206481 0.583945 0.818262 -0.445890
H113  H     H_    0.209254 0.587111 0.877953 0.172574
H114  H     H_    0.221805 0.629641 0.813150 0.179941
N14   N     N_3   0.792630 0.443686 0.166923 -0.454096
H115  H     H_    0.777924 0.394845 0.165988 0.181225
H116  H     H_    0.788599 0.450377 0.106518 0.174298
N15   N     N_3   0.793483 0.573112 0.174356 -0.446143
H117  H     H_    0.790690 0.570960 0.114600 0.172692
H118  H     H_    0.778165 0.620507 0.175133 0.180042
N16   N     N_3   0.207330 0.455698 0.837753 -0.454236
H119  H     H_    0.222042 0.405795 0.843332 0.181360
H120  H     H_    0.211342 0.467616 0.897271 0.174383
N17   N     N_3   0.791121 0.083759 0.907537 -0.488840
H121  H     H_    0.781133 0.089503 0.951753 0.171017
H122  H     H_    0.823741 0.082320 0.943078 0.196567
N18   N     N_3   0.208569 0.944230 0.079644 -0.513296
H123  H     H_    0.217527 0.948902 0.033749 0.177184
H124  H     H_    0.175879 0.944940 0.046283 0.187499
N19   N     N_3   0.208844 0.072942 0.085493 -0.488851
H125  H     H_    0.218813 0.073829 0.040949 0.171045
H126  H     H_    0.176223 0.071242 0.050128 0.196884
N20   N     N_3   0.791392 0.956059 0.924872 -0.513244
H127  H     H_    0.782418 0.965603 0.970105 0.177189
H128  H     H_    0.824082 0.956841 0.958195 0.187796
N21   N     N_3   0.291116 0.585352 0.906390 -0.488837
H129  H     H_    0.281126 0.591835 0.950519 0.171014
H130  H     H_    0.323736 0.583955 0.941954 0.196515
N22   N     N_3   0.708571 0.445510 0.079096 -0.513287
H131  H     H_    0.717530 0.450720 0.033251 0.177186
H132  H     H_    0.675881 0.446229 0.045739 0.187534
N23   N     N_3   0.708848 0.574161 0.086210 -0.488850
H133  H     H_    0.718818 0.575583 0.041680 0.171040
H134  H     H_    0.676227 0.572490 0.050827 0.196852
N24   N     N_3   0.291388 0.457897 0.925468 -0.513238
H135  H     H_    0.282412 0.468180 0.970563 0.177187
H136  H     H_    0.324078 0.458689 0.958783 0.187837

loop_
_geom_bond_atom_site_label_1
_geom_bond_atom_site_label_2
_ccdc_geom_bond_type
N1    H9    S    
N21   H130  S    
C64   C77   S    
C63   C109  S    
C101  C102  S    
C89   H29   S    
N7    H22   S    
C96   H41   S    
C59   H7    S    
C105  H68   S    
N3    H14   S    
C59   C66   S    
O30   Zn5   S    
O45   Zn10  S    
C65   N8    S    
C86   N11   S    
C22   C38   S    
C55   C62   S    
C116  H92   S    
C107  C108  S    
C61   N4    S    
C9    C13   T    
C90   H25   S    
C54   C74   S    
C55   C74   S    
C11   C15   T    
C12   C16   T    
C45   O9    A    
C115  C116  S    
C4    O6    A    
C64   N1    S    
C120  H101  S    
C103  H64   S    
N20   H127  S    
C45   O12   A    
O42   Zn10  S    
C108  H70   S    
C29   C69   S    
C27   O21   A    
C106  H66   S    
C95   C96   S    
N19   H125  S    
C32   C72   S    
C25   C41   S    
N23   H134  S    
C82   N18   S    
N16   H119  S    
C28   C44   S    
C17   C21   T    
C90   H27   S    
C19   C23   T    
C113  H88   S    
C26   O18   A    
C68   N5    S    
C78   C82   S    
C62   N3    S    
C106  H67   S    
C38   O42   A    
O41   Zn9   S    
N22   H131  S    
O44   Zn12  S    
C119  H103  S    
N10   H107  S    
N2    H12   S    
C60   C65   S    
C28   O24   A    
C83   N24   S    
O18   Zn6   S    
C5    C77   S    
O26   Zn6   S    
C7    C79   S    
C44   C50   T    
C115  H94   S    
C56   C73   S    
O1    Zn1   S    
C111  H84   S    
C84   C88   S    
C94   H35   S    
C112  H81   S    
C58   C101  S    
C93   H39   S    
C83   N21   S    
C28   O22   A    
C13   C45   S    
C57   C103  S    
C109  H78   S    
C40   O44   A    
C53   C64   S    
O25   Zn5   S    
C104  H62   S    
C93   C94   S    
C4    C20   S    
C58   C67   S    
C54   C63   S    
C108  H72   S    
C33   C49   S    
C20   C24   T    
C42   C52   T    
C110  H75   S    
C48   O14   A    
C65   C79   S    
C29   O29   A    
C31   O31   A    
N8    H23   S    
C58   C76   S    
C97   H49   S    
C54   H2    S    
C6    C78   S    
C92   H31   S    
C61   C77   S    
N13   H114  S    
C55   H3    S    
C53   C95   S    
C36   C52   S    
C3    O5    A    
C68   C79   S    
C31   C71   S    
O3    Zn1   S    
C105  C106  S    
N4    H16   S    
N5    H18   S    
O13   Zn3   S    
C94   H37   S    
O14   Zn4   S    
O20   Zn5   S    
N14   H116  S    
C116  H90   S    
N12   H112  S    
C107  H73   S    
C30   O26   A    
C118  H95   S    
O34   Zn10  S    
C10   C14   T    
C35   O39   A    
O40   Zn11  S    
C100  H50   S    
C47   O13   A    
O39   Zn12  S    
N23   H133  S    
N19   H126  S    
N18   H124  S    
O22   Zn8   S    
N9    H105  S    
O43   Zn11  S    
C85   N9    S    
C97   C98   S    
C35   C51   S    
O21   Zn7   S    
C55   C91   S    
C3    C19   S    
C73   C85   S    
C114  H86   S    
C110  H77   S    
C75   C87   S    
C91   H33   S    
C88   N14   S    
C98   H46   S    
C95   H43   S    
N15   H118  S    
C57   C68   S    
C67   C117  S    
C26   C42   S    
O23   Zn8   S    
O5    Zn3   S    
O24   Zn7   S    
C18   C22   T    
C62   C78   S    
O35   Zn10  S    
C114  H87   S    
C36   O38   A    
C2    O3    A    
C89   H28   S    
C67   N6    S    
C98   H47   S    
C66   C80   S    
N24   H136  S    
C119  H104  S    
C57   C75   S    
C111  C112  S    
C11   C75   S    
O33   Zn9   S    
C46   O10   A    
C116  H91   S    
C41   C51   T    
C90   H26   S    
N20   H128  S    
C59   C76   S    
C81   C85   S    
C63   C78   S    
C83   C87   S    
O8    Zn4   S    
C118  H97   S    
C80   C84   S    
C65   C113  S    
C102  H55   S    
C35   O37   A    
C109  C110  S    
C14   C46   S    
C89   C90   S    
N6    H19   S    
C100  H52   S    
C84   N23   S    
C37   O45   A    
C117  H99   S    
C95   H44   S    
C56   C89   S    
N16   H120  S    
C86   N10   S    
N21   H129  S    
N17   H122  S    
C99   H53   S    
C5    C69   T    
O38   Zn12  S    
N3    H13   S    
N6    H20   S    
C29   O25   A    
C117  C118  S    
C60   C97   S    
O12   Zn2   S    
N10   H108  S    
C85   N12   S    
N1    H10   S    
C82   N19   S    
C36   O40   A    
C1    O4    A    
C30   C70   S    
C39   O43   A    
C96   H42   S    
O27   Zn7   S    
C8    C72   T    
C105  H69   S    
O7    Zn3   S    
C94   H36   S    
C59   C99   S    
C82   C86   S    
N11   H109  S    
O15   Zn3   S    
C120  H100  S    
C77   C81   S    
O9    Zn1   S    
C84   N22   S    
C120  H102  S    
C103  H63   S    
C104  H61   S    
C117  H98   S    
C68   C119  S    
C60   H8    S    
C12   C76   S    
C66   N7    S    
C87   N13   S    
C102  H57   S    
C110  H76   S    
C33   O33   A    
C6    C70   T    
C106  H65   S    
C88   N15   S    
C54   C93   S    
C1    C17   S    
C67   C80   S    
C118  H96   S    
N8    H24   S    
C62   C107  S    
C60   C75   S    
C97   H48   S    
C113  H89   S    
C103  C104  S    
C109  H79   S    
C79   C83   S    
C32   O32   A    
C92   H30   S    
O29   Zn6   S    
C27   C43   S    
C21   C37   S    
N13   H113  S    
C56   C61   S    
C101  H59   S    
C3    O8    A    
C96   H40   S    
C30   O30   A    
C115  H93   S    
C2    C18   S    
N5    H17   S    
C32   O28   A    
C111  H83   S    
C15   C47   S    
C112  H82   S    
C16   C48   S    
C107  H74   S    
N22   H132  S    
C25   O17   A    
C25   O19   A    
C7    C71   T    
C119  C120  S    
O11   Zn1   S    
C47   O16   A    
C4    O7    A    
O6    Zn4   S    
N7    H21   S    
O4    Zn2   S    
C113  C114  S    
C76   C88   S    
C33   O35   A    
O28   Zn8   S    
C91   H34   S    
C57   H5    S    
C38   O46   A    
C9    C73   S    
C63   N2    S    
C64   C111  S    
C26   O20   A    
C34   C50   S    
O17   Zn5   S    
C99   C100  S    
C1    O1    A    
C101  H58   S    
C43   C49   T    
O2    Zn2   S    
N15   H117  S    
O16   Zn4   S    
C91   C92   S    
C92   H32   S    
O31   Zn8   S    
O32   Zn7   S    
C46   O11   A    
O36   Zn9   S    
C74   C86   S    
N11   H110  S    
C34   O34   A    
C39   O47   A    
C98   H45   S    
C87   N16   S    
C40   O48   A    
N4    H15   S    
C112  H80   S    
N14   H115  S    
C93   H38   S    
C81   N20   S    
N12   H111  S    
O37   Zn11  S    
C53   C73   S    
C102  H56   S    
C27   O23   A    
C100  H51   S    
O10   Zn2   S    
C61   C105  S    
N18   H123  S    
O48   Zn11  S    
C108  H71   S    
C58   H6    S    
C31   O27   A    
N9    H106  S    
C53   H1    S    
C10   C74   S    
C81   N17   S    
O47   Zn12  S    
C23   C39   S    
O19   Zn6   S    
C24   C40   S    
O46   Zn9   S    
N17   H121  S    
N2    H11   S    
C99   H54   S    
C66   C115  S    
C114  H85   S    
C34   O36   A    
C56   H4    S    
C48   O15   A    
C2    O2    A    
N24   H135  S    
C104  H60   S    
C8    C80   S    
C37   O41   A    
