data_mof_unit_17080.cif
_audit_creation_date              2012-12-11T16:27:26-0500
_audit_creation_method            fapswitch 2.2
_symmetry_space_group_name_H-M    P1
_symmetry_Int_Tables_number       1
_space_group_crystal_system       triclinic
_cell_length_a                    21.644339
_cell_length_b                    6.90823
_cell_length_c                    14.745426
_cell_angle_alpha                 89.727625
_cell_angle_beta                  105.493857
_cell_angle_gamma                 89.679093
_cell_volume                      2124.59384964

loop_
_atom_site_label
_atom_site_type_symbol
_atom_type_description
_atom_site_fract_x
_atom_site_fract_y
_atom_site_fract_z
_atom_type_partial_charge
O1    O     O_R   0.835850 0.638310 0.002120 -0.529316
O2    O     O_R   0.164150 0.361690 0.997880 -0.529317
O3    O     O_R   0.664150 0.138310 0.997880 -0.544125
O4    O     O_R   0.335850 0.861690 0.002120 -0.544132
O5    O     O_R   0.717530 0.306070 0.861970 -0.532226
O6    O     O_R   0.282470 0.693930 0.138030 -0.532228
O7    O     O_R   0.782470 0.806070 0.138030 -0.518495
O8    O     O_R   0.217530 0.193930 0.861970 -0.518484
C1    C     C_R   0.705184 0.477936 0.824507 0.694061
C2    C     C_R   0.294814 0.522064 0.175493 0.694060
C3    C     C_R   0.794987 0.976192 0.175559 0.694526
C4    C     C_R   0.205010 0.023809 0.824441 0.694533
O9    O     O_R   0.838690 0.308440 0.993250 -0.549354
O10   O     O_R   0.161310 0.691560 0.006750 -0.549353
O11   O     O_R   0.661310 0.808440 0.006750 -0.534817
O12   O     O_R   0.338690 0.191560 0.993250 -0.534809
O13   O     O_R   0.786170 0.140510 0.130090 -0.531247
O14   O     O_R   0.213830 0.859490 0.869910 -0.531247
O15   O     O_R   0.713830 0.640510 0.869910 -0.516804
O16   O     O_R   0.286170 0.359490 0.130090 -0.516808
C5    C     C_R   0.865457 0.476692 0.998738 0.804883
C6    C     C_R   0.134543 0.523308 0.001264 0.804883
C7    C     C_R   0.634592 0.977735 0.001337 0.809000
C8    C     C_R   0.365408 0.022264 0.998663 0.808999
O17   O     O_3   0.732630 0.472520 0.044740 -0.366694
O18   O     O_3   0.267370 0.527480 0.955260 -0.366693
O19   O     O_3   0.767370 0.972520 0.955260 -0.367015
O20   O     O_3   0.232630 0.027480 0.044740 -0.367020
V1    V     V_3+5 0.753220 0.196740 0.991700 1.571467
V2    V     V_3+5 0.246780 0.803260 0.008300 1.571452
V3    V     V_3+5 0.746780 0.696740 0.008300 1.608514
V4    V     V_3+5 0.253220 0.303260 0.991700 1.608525
C9    C     C_R   0.531822 0.931718 0.827133 0.482799
C10   C     C_R   0.468179 0.068248 0.172871 0.482811
C11   C     C_R   0.966104 0.549837 0.172657 0.484149
C12   C     C_R   0.033897 0.450178 0.827345 0.484146
C13   C     C_R   0.483164 0.908354 0.744317 -0.272213
C14   C     C_R   0.516838 0.091557 0.255693 -0.272228
C15   C     C_R   0.013394 0.591787 0.254788 -0.271257
C16   C     C_R   0.986606 0.408267 0.745214 -0.271246
C17   C     C_R   0.419315 0.917367 0.745310 0.681239
C18   C     C_R   0.580687 0.082514 0.254703 0.681245
C19   C     C_R   0.076894 0.609627 0.253283 0.677200
C20   C     C_R   0.923106 0.390445 0.746719 0.677179
C21   C     C_R   0.403329 0.950739 0.829280 -0.218592
C22   C     C_R   0.596672 0.049183 0.170729 -0.218593
C23   C     C_R   0.093952 0.584499 0.169544 -0.221101
C24   C     C_R   0.906048 0.415544 0.830458 -0.221069
C25   C     C_R   0.451302 0.975401 0.914944 -0.102288
C26   C     C_R   0.548699 0.024570 0.085060 -0.102290
C27   C     C_R   0.047343 0.542725 0.084417 -0.099707
C28   C     C_R   0.952658 0.457287 0.915585 -0.099715
C29   C     C_R   0.517079 0.964790 0.914438 -0.042599
C30   C     C_R   0.482922 0.035192 0.085564 -0.042598
C31   C     C_R   0.981790 0.526680 0.085328 -0.041131
C32   C     C_R   0.018211 0.473324 0.914674 -0.041141
C33   C     C_R   0.434229 0.011233 0.999933 -0.084279
C34   C     C_R   0.565771 0.988762 0.000068 -0.084278
C35   C     C_R   0.065628 0.514671 0.999737 -0.085731
C36   C     C_R   0.934373 0.485328 0.000264 -0.085732
H1    H     H_    0.495216 0.883322 0.678603 0.178547
H2    H     H_    0.504786 0.116564 0.321410 0.178547
H3    H     H_    0.000612 0.609310 0.320471 0.178046
H4    H     H_    0.999388 0.390763 0.679531 0.178051
H5    H     H_    0.352870 0.957212 0.826187 0.113638
H6    H     H_    0.647132 0.042689 0.173824 0.113639
H7    H     H_    0.144203 0.597868 0.172515 0.119514
H8    H     H_    0.855797 0.402187 0.827487 0.119487
C37   C     C_R   0.177232 0.020352 0.722520 -0.043790
C38   C     C_R   0.822761 0.979650 0.277482 -0.043787
C39   C     C_R   0.322817 0.509942 0.277140 -0.040507
C40   C     C_R   0.677177 0.490052 0.722861 -0.040490
C41   C     C_R   0.187224 0.083129 0.566171 -0.022154
C42   C     C_R   0.812774 0.916770 0.433823 -0.022171
C43   C     C_R   0.311150 0.456550 0.433242 -0.021129
C44   C     C_R   0.688852 0.543238 0.566741 -0.021122
C45   C     C_R   0.214811 0.067856 0.662522 -0.118140
C46   C     C_R   0.785188 0.931995 0.337473 -0.118115
C47   C     C_R   0.283963 0.475999 0.336917 -0.127380
C48   C     C_R   0.716039 0.523822 0.663068 -0.127413
C49   C     C_R   0.111562 0.989352 0.686187 -0.111204
C50   C     C_R   0.888424 0.010804 0.313821 -0.111258
C51   C     C_R   0.389165 0.523490 0.313451 -0.102896
C52   C     C_R   0.610824 0.476625 0.686562 -0.102872
C53   C     C_R   0.081447 0.009288 0.588456 0.040616
C54   C     C_R   0.918542 0.990856 0.411548 0.040620
C55   C     C_R   0.418617 0.502310 0.411222 0.040628
C56   C     C_R   0.581375 0.497691 0.588781 0.040620
C57   C     C_R   0.120816 0.056465 0.528063 0.030327
C58   C     C_R   0.879176 0.943592 0.471936 0.030327
C59   C     C_R   0.378102 0.468397 0.471513 0.030907
C60   C     C_R   0.621895 0.531485 0.528479 0.030912
C61   C     C_R   0.013697 0.987371 0.549420 -0.004927
C62   C     C_R   0.986291 0.012817 0.450585 -0.004895
C63   C     C_R   0.486684 0.512262 0.450496 -0.003127
C64   C     C_R   0.513308 0.487726 0.549506 -0.003148
C65   C     C_R   0.027505 0.058373 0.393761 -0.201762
C66   C     C_R   0.972484 0.941830 0.606241 -0.201752
C67   C     C_R   0.471056 0.454349 0.606206 -0.211866
C68   C     C_R   0.528940 0.545556 0.393788 -0.211894
C69   C     C_R   0.093161 0.079206 0.431059 0.434420
C70   C     C_R   0.906831 0.920919 0.568940 0.434435
C71   C     C_R   0.405082 0.445446 0.568655 0.429837
C72   C     C_R   0.594915 0.554398 0.431333 0.429822
H9    H     H_    0.914431 0.043746 0.262906 0.111722
H10   H     H_    0.085549 0.956538 0.737108 0.111667
H11   H     H_    0.584043 0.452440 0.737407 0.108314
H12   H     H_    0.415938 0.547872 0.262624 0.108322
H13   H     H_    0.734486 0.904451 0.309473 0.185656
H14   H     H_    0.265520 0.095267 0.690516 0.185675
H15   H     H_    0.767451 0.536398 0.691083 0.182557
H16   H     H_    0.232556 0.463327 0.308892 0.182531
H17   H     H_    0.218354 0.119949 0.522321 0.195587
H18   H     H_    0.781648 0.879847 0.477668 0.195585
H19   H     H_    0.279132 0.430427 0.477066 0.196161
H20   H     H_    0.720874 0.569242 0.522906 0.196173
H21   H     H_    0.010506 0.079775 0.318952 0.152256
H22   H     H_    0.989484 0.920474 0.681048 0.152246
H23   H     H_    0.487427 0.434092 0.681143 0.152242
H24   H     H_    0.512570 0.565730 0.318844 0.152240
F1    F     F_    0.627519 0.105151 0.335853 -0.643022
F2    F     F_    0.372484 0.894660 0.664169 -0.643034
F3    F     F_    0.877529 0.351053 0.666136 -0.644950
F4    F     F_    0.122471 0.649068 0.333865 -0.644894
F5    F     F_    0.592920 0.922882 0.819697 -0.689978
F6    F     F_    0.407081 0.077110 0.180303 -0.689977
F7    F     F_    0.905589 0.528706 0.181062 -0.689319
F8    F     F_    0.094413 0.471290 0.818941 -0.689310
Cl1   Cl    Cl    0.138912 0.136236 0.351714 -0.640798
Cl2   Cl    Cl    0.861082 0.863883 0.648282 -0.640738
Cl3   Cl    Cl    0.358027 0.404043 0.647947 -0.642880
Cl4   Cl    Cl    0.641975 0.595671 0.352029 -0.642876

loop_
_geom_bond_atom_site_label_1
_geom_bond_atom_site_label_2
_ccdc_geom_bond_type
O17   V3    S    
C7    C34   S    
C51   C55   A    
C4    C37   S    
C56   C64   A    
O1    C5    A    
C61   C62   A    
C55   C59   A    
O19   V1    S    
O13   V1    S    
C37   C45   A    
O3    C7    A    
C63   C64   A    
C1    C40   S    
C68   C72   A    
O4    V2    S    
O15   V3    S    
C39   C47   A    
C3    C38   S    
C25   C33   A    
O7    C3    A    
C26   C30   A    
C47   H16   S    
O9    V1    S    
C22   H6    S    
O4    C8    A    
C38   C46   A    
C72   Cl4   S    
C42   H18   S    
C64   C67   A    
O1    V3    S    
C52   H11   S    
C41   H17   S    
C51   H12   S    
O2    V4    S    
C18   C22   A    
C50   H9    S    
O3    V1    S    
C58   C70   A    
C54   C62   A    
C53   C61   A    
C1    O15   A    
C23   C27   A    
C56   C60   A    
C2    O16   A    
C8    C33   S    
C55   C63   A    
O2    C6    A    
C68   H24   S    
C21   C25   A    
C28   C36   A    
C16   C20   A    
C39   C51   A    
O8    C4    A    
C2    C39   S    
O11   C7    A    
O12   C8    A    
C65   H21   S    
C31   C36   A    
O17   V1    S    
C12   F8    S    
O10   V2    S    
C23   H7    S    
C66   H22   S    
O5    V1    S    
C9    C29   A    
O7    V3    S    
O19   V3    S    
O8    V4    S    
C44   C48   A    
O20   V4    S    
C5    C36   S    
C67   C71   A    
C54   C58   A    
C6    C35   S    
C53   C57   A    
C63   C68   A    
C15   C19   A    
C62   C65   A    
C66   C70   A    
C11   C31   A    
C9    C13   A    
C26   C34   A    
C17   F2    S    
C11   C15   A    
O5    C1    A    
C12   C32   A    
C12   C16   A    
C10   F6    S    
C9    F5    S    
O9    C5    A    
C24   H8    S    
C11   F7    S    
C40   C52   A    
C44   C60   A    
O14   V2    S    
O6    V2    S    
O18   V2    S    
C21   H5    S    
C27   C35   A    
O16   V4    S    
C49   H10   S    
C3    O13   A    
C17   C21   A    
C57   C69   A    
C10   C14   A    
C52   C56   A    
C59   C71   A    
C19   C23   A    
O6    C2    A    
C13   H1    S    
C29   C34   A    
O11   V3    S    
O18   V4    S    
C43   C59   A    
O12   V4    S    
C15   H3    S    
C22   C26   A    
C20   F3    S    
C16   H4    S    
C32   C35   A    
C42   C58   A    
O20   V2    S    
C41   C57   A    
C40   C48   A    
C50   C54   A    
C10   C30   A    
O10   C6    A    
C43   C47   A    
C25   C29   A    
C61   C66   A    
C48   H15   S    
C44   H20   S    
C46   H13   S    
C27   C31   A    
C13   C17   A    
C45   H14   S    
C38   C50   A    
C65   C69   A    
C37   C49   A    
C60   C72   A    
C67   H23   S    
C14   C18   A    
C28   C32   A    
C24   C28   A    
C43   H19   S    
C42   C46   A    
C4    O14   A    
C41   C45   A    
C71   Cl3   S    
C19   F4    S    
C49   C53   A    
C20   C24   A    
C18   F1    S    
C69   Cl1   S    
C14   H2    S    
C30   C33   A    
C70   Cl2   S    
