data_mof_unit_63220.cif
_audit_creation_date              2012-12-10T19:04:16-0500
_audit_creation_method            fapswitch 2.2
_symmetry_space_group_name_H-M    P1
_symmetry_Int_Tables_number       1
_space_group_crystal_system       triclinic
_cell_length_a                    10.675535
_cell_length_b                    13.059137
_cell_length_c                    13.636068
_cell_angle_alpha                 85.677448
_cell_angle_beta                  90.031725
_cell_angle_gamma                 93.189517
_cell_volume                      1892.69236461

loop_
_atom_site_label
_atom_site_type_symbol
_atom_type_description
_atom_site_fract_x
_atom_site_fract_y
_atom_site_fract_z
_atom_type_partial_charge
C1    C     C_R   0.498739 0.481179 0.685084 0.929471
C2    C     C_1   0.497946 0.466354 0.788103 -0.113497
C3    C     C_2   0.461813 0.032530 0.474598 0.031147
C4    C     C_R   0.742590 0.499584 0.501387 0.987165
C5    C     C_2   0.538260 0.967466 0.525387 0.027081
C6    C     C_1   0.526826 0.854777 0.518971 0.158894
C7    C     C_1   0.473210 0.145221 0.481025 0.136873
C8    C     C_R   0.501301 0.518859 0.314919 0.899154
C9    C     C_R   0.257493 0.499913 0.501024 1.044622
C10   C     C_3   0.921506 0.386896 0.507187 0.350685
C11   C     C_3   0.063566 0.387538 0.515234 -0.547688
C12   C     C_3   0.121469 0.500053 0.500867 -0.212839
C13   C     C_3   0.930787 0.553402 0.402016 -0.270185
C14   C     C_3   0.932859 0.556237 0.592690 0.567692
C15   C     C_3   0.878909 0.499924 0.502104 -0.179575
C16   C     C_3   0.077122 0.554713 0.401656 0.556957
C17   C     C_3   0.078214 0.559657 0.588343 0.325815
C18   C     C_1   0.502145 0.534181 0.211925 -0.156410
C19   C     C_2   0.502795 0.547736 0.020608 0.127972
C20   C     C_2   0.497681 0.458465 0.979115 -0.159706
C21   C     C_1   0.497581 0.458466 0.875437 0.062812
C22   C     C_1   0.502654 0.544060 0.124629 -0.055521
F1    F     F_    0.128002 0.655419 0.393800 -0.664800
F2    F     F_    0.866714 0.325602 0.584887 -0.637283
F3    F     F_    0.896460 0.656927 0.587764 -0.671043
F4    F     F_    0.129814 0.520452 0.675963 -0.699278
H1    H     H_    0.892678 0.350474 0.438770 0.121467
H2    H     H_    0.589675 0.686405 0.983083 0.191477
H3    H     H_    0.720278 0.986169 0.563313 0.208247
H4    H     H_    0.618667 0.975023 0.658716 0.198630
H5    H     H_    0.279806 0.013813 0.436643 0.198624
H6    H     H_    0.381445 0.024954 0.341258 0.188379
H7    H     H_    0.077424 0.431647 0.312904 0.129341
H8    H     H_    0.101340 0.547971 0.252682 0.210401
H9    H     H_    0.903133 0.554465 0.742134 0.232443
H10   H     H_    0.928323 0.438057 0.705117 0.260930
H11   H     H_    0.114164 0.641393 0.577501 0.202181
H12   H     H_    0.493548 0.385300 0.023034 0.137407
H13   H     H_    0.090269 0.352220 0.588620 0.277905
H14   H     H_    0.099560 0.338052 0.459827 0.183676
H15   H     H_    0.893965 0.505454 0.342914 0.109805
H16   H     H_    0.906253 0.679631 0.305725 0.205765
H17   H     H_    0.926978 0.710410 0.422109 0.307156
H18   H     H_    0.431603 0.685229 0.983183 0.200159
N1    N     N_1   0.479840 0.234530 0.484780 -0.086063
N2    N     N_1   0.520150 0.765470 0.515220 -0.076311
N3    N     N_3   0.883598 0.656197 0.378922 -0.371435
N4    N     N_3   0.508279 0.644749 0.963300 -0.421885
N5    N     N_3   0.633841 0.008852 0.587458 -0.426799
N6    N     N_3   0.366252 0.991135 0.412515 -0.437298
N7    N     N_3   0.123290 0.503993 0.317064 -0.446125
N8    N     N_3   0.883418 0.505693 0.685992 -0.402006
O1    O     O_R   0.492620 0.402510 0.634760 -0.603608
O2    O     O_R   0.505570 0.572960 0.644530 -0.600702
O3    O     O_R   0.678730 0.414780 0.495130 -0.598007
O4    O     O_R   0.691680 0.585220 0.504900 -0.556063
O5    O     O_R   0.494430 0.427040 0.355470 -0.625328
O6    O     O_R   0.507380 0.597490 0.365240 -0.602821
O7    O     O_R   0.308320 0.414780 0.495100 -0.640182
O8    O     O_R   0.321270 0.585220 0.504870 -0.575257
Zn1   Zn    Zn3+2 0.491360 0.386190 0.493470 1.009039
Zn2   Zn    Zn3+2 0.508640 0.613810 0.506530 1.058343

loop_
_geom_bond_atom_site_label_1
_geom_bond_atom_site_label_2
_ccdc_geom_bond_type
C10   H1    S    
C12   C17   S    
H18   N4    S    
C1    O2    A    
C14   N8    S    
O5    Zn1   S    
C8    O5    A    
H7    N7    S    
C20   H12   S    
C19   C20   D    
H10   N8    S    
C16   N7    S    
C11   C12   S    
C9    O8    A    
C5    N5    S    
C3    C5    D    
C2    C21   T    
C13   H15   S    
C14   F3    S    
H3    N5    S    
C4    O4    A    
C11   H13   S    
C14   C17   S    
H6    N6    S    
H8    N7    S    
C5    C6    S    
H17   N3    S    
O6    Zn2   S    
C4    C15   S    
C17   F4    S    
C7    N1    T    
N1    Zn1   S    
O2    Zn2   S    
C3    N6    S    
N2    Zn2   S    
C16   F1    S    
C3    C7    S    
H16   N3    S    
C13   C15   S    
C4    O3    A    
C11   H14   S    
C9    C12   S    
O4    Zn2   S    
O7    Zn1   S    
C10   C11   S    
H5    N6    S    
O3    Zn1   S    
C19   C22   S    
C20   C21   S    
O8    Zn2   S    
C1    C2    S    
C13   C16   S    
H9    N8    S    
C13   N3    S    
C1    O1    A    
C14   C15   S    
H2    N4    S    
C10   F2    S    
C17   H11   S    
C6    N2    T    
C8    O6    A    
C10   C15   S    
C18   C22   T    
O1    Zn1   S    
H4    N5    S    
C8    C18   S    
C12   C16   S    
C19   N4    S    
C9    O7    A    
