data_mof_unit_46414.cif
_audit_creation_date              2013-03-05T15:43:42-0500
_audit_creation_method            fapswitch 2.2
_symmetry_space_group_name_H-M    P1
_symmetry_Int_Tables_number       1
_space_group_crystal_system       triclinic
_cell_length_a                    15.002797
_cell_length_b                    10.746299
_cell_length_c                    10.123915
_cell_angle_alpha                 93.453612
_cell_angle_beta                  87.358481
_cell_angle_gamma                 91.331985
_cell_volume                      1627.18512327

loop_
_atom_site_label
_atom_site_type_symbol
_atom_site_description
_atom_site_fract_x
_atom_site_fract_y
_atom_site_fract_z
_atom_type_partial_charge
O1    O     O_R   0.499990 0.319060 0.613040 -0.634437
O2    O     O_R   0.500010 0.319100 0.386900 -0.581302
C1    C     C_R   0.493109 0.261995 0.495452 0.871810
O3    O     O_R   0.367830 0.499950 0.613080 -0.630578
O4    O     O_R   0.367860 0.499990 0.386940 -0.576511
C2    C     C_R   0.326903 0.499871 0.503295 0.996751
Zn1   Zn    Zn3+2 0.499980 0.499970 0.650990 1.023327
Zn2   Zn    Zn3+2 0.500020 0.500030 0.349010 1.047279
O5    O     O_R   0.499990 0.680900 0.613100 -0.632138
O6    O     O_R   0.500010 0.680940 0.386960 -0.608116
O7    O     O_R   0.632140 0.500010 0.613060 -0.556177
O8    O     O_R   0.632170 0.500050 0.386920 -0.653545
C3    C     C_R   0.506622 0.739447 0.504020 0.852623
C4    C     C_R   0.673197 0.507893 0.497530 0.989506
C5    C     C_R   0.815036 0.619600 0.561957 0.235968
C6    C     C_R   0.769874 0.521265 0.491106 -0.292326
C7    C     C_R   0.818462 0.429877 0.417403 0.467825
C8    C     C_R   0.905894 0.410697 0.451637 -0.135331
C9    C     C_R   0.953627 0.512411 0.509823 -0.054852
C10   C     C_R   0.909379 0.622752 0.555123 -0.132634
C11   C     C_R   0.946462 0.294215 0.425503 0.188283
C12   C     C_R   0.039125 0.286620 0.432785 0.225940
C13   C     C_R   0.089438 0.396177 0.465451 -0.115374
C14   C     C_R   0.045813 0.505298 0.516243 -0.059888
C15   C     C_R   0.094958 0.607816 0.570423 -0.117784
C16   C     C_R   0.053350 0.723165 0.601116 0.182868
C17   C     C_R   0.960546 0.731732 0.590357 0.218739
C18   C     C_R   0.182453 0.400851 0.447118 0.243160
C19   C     C_R   0.230561 0.497370 0.512560 -0.320880
C20   C     C_R   0.185919 0.592590 0.587868 0.454844
C21   C     C_2   0.535304 0.931900 0.392727 0.374106
C22   C     C_2   0.522710 0.876962 0.510225 0.235518
C23   C     C_2   0.505481 0.060914 0.376452 0.142863
C24   C     C_2   0.469271 0.129497 0.480793 0.102532
C25   C     C_2   0.546337 0.576943 0.930235 0.405726
N1    N     N_2   0.500970 0.501330 0.852150 0.005355
C26   C     C_2   0.521600 0.594418 0.075957 -0.042219
N2    N     N_2   0.500990 0.501360 0.147810 0.069059
H1    H     H_    0.529449 0.686082 0.123863 0.172768
N3    N     N_R   0.766694 0.712338 0.642824 0.277620
O9    O     O_R   0.694316 0.758795 0.602677 -0.439113
O10   O     O_R   0.796060 0.752483 0.757003 -0.279644
O11   O     O_3   0.527211 0.956076 0.625900 -0.680700
C27   C     C_3   0.510497 0.905433 0.750150 0.179746
H2    H     H_    0.535208 0.976080 0.824524 0.177611
H3    H     H_    0.551291 0.823794 0.763754 0.231338
C28   C     C_3   0.410394 0.886552 0.783393 -0.357042
H4    H     H_    0.376037 0.975146 0.773836 0.278918
H5    H     H_    0.380272 0.815663 0.713990 0.278884
C29   C     C_3   0.393619 0.848252 0.925190 -0.887830
H6    H     H_    0.418853 0.753612 0.935062 0.259960
H7    H     H_    0.320964 0.848026 0.950930 0.278580
H8    H     H_    0.427018 0.914468 0.996255 0.313018
N4    N     N_R   0.491165 0.097409 0.244010 0.225981
O12   O     O_R   0.539277 0.052057 0.143646 -0.445346
O13   O     O_R   0.419536 0.156423 0.220014 -0.307667
N5    N     N_R   0.388144 0.085554 0.546770 0.241290
O14   O     O_R   0.346442 0.157560 0.635527 -0.424411
O15   O     O_R   0.346769 0.985328 0.500895 -0.304600
N6    N     N_R   0.627882 0.633830 0.884617 0.181644
O16   O     O_R   0.647826 0.745943 0.930927 -0.429017
O17   O     O_R   0.692653 0.561746 0.842398 -0.400737
O18   O     O_3   0.417575 0.479593 0.903521 -0.613151
C30   C     C_3   0.392286 0.355023 0.870868 0.229413
H9    H     H_    0.449740 0.290890 0.867978 0.174948
H10   H     H_    0.361261 0.348907 0.774214 0.199492
C31   C     C_3   0.322028 0.313889 0.974630 -0.335376
H11   H     H_    0.347198 0.333471 0.075290 0.317927
H12   H     H_    0.260529 0.368057 0.967723 0.208262
C32   C     C_3   0.298868 0.175212 0.956367 -0.719629
H13   H     H_    0.266438 0.154444 0.861114 0.287652
H14   H     H_    0.251713 0.147123 0.037303 0.317772
H15   H     H_    0.360136 0.119965 0.959540 0.267405
O19   O     O_3   0.514779 0.386836 0.087448 -0.541305
C33   C     C_3   0.603963 0.351856 0.104618 0.256113
H16   H     H_    0.603766 0.276175 0.173984 0.210684
H17   H     H_    0.644970 0.428758 0.149897 0.115599
C34   C     C_3   0.649856 0.310604 0.969637 -0.445209
H18   H     H_    0.606084 0.323784 0.886722 0.258382
H19   H     H_    0.710267 0.369619 0.953139 0.230655
C35   C     C_3   0.679124 0.175405 0.959083 -0.782604
H20   H     H_    0.713940 0.152029 0.048264 0.250781
H21   H     H_    0.725393 0.159921 0.871095 0.286225
H22   H     H_    0.620557 0.112838 0.945200 0.294387
O20   O     O_3   0.780682 0.364602 0.310460 -0.628993
C36   C     C_3   0.833794 0.380938 0.191915 0.100205
H23   H     H_    0.805125 0.320116 0.112481 0.177852
H24   H     H_    0.902758 0.347481 0.197513 0.169843
C37   C     C_3   0.837106 0.516362 0.149195 -0.462575
H25   H     H_    0.768737 0.549915 0.137907 0.235469
H26   H     H_    0.869222 0.578712 0.225473 0.225755
C38   C     C_3   0.891026 0.526202 0.018256 -0.811212
H27   H     H_    0.960574 0.496186 0.028670 0.255037
H28   H     H_    0.893213 0.624172 0.989176 0.286717
H29   H     H_    0.860211 0.466963 0.938337 0.280525
N7    N     N_R   0.892627 0.183468 0.401273 0.262020
O21   O     O_R   0.824048 0.160318 0.480095 -0.322067
O22   O     O_R   0.904730 0.114715 0.292088 -0.357754
N8    N     N_R   0.080057 0.166742 0.426742 0.268136
O23   O     O_R   0.078621 0.093747 0.319589 -0.256809
O24   O     O_R   0.124983 0.134616 0.525732 -0.250195
N9    N     N_R   0.226696 0.313761 0.355223 0.243639
O25   O     O_R   0.199020 0.295918 0.235612 -0.399799
O26   O     O_R   0.291109 0.247517 0.392548 -0.286948
O27   O     O_3   0.230974 0.670104 0.677681 -0.607043
C39   C     C_3   0.229232 0.613987 0.801368 0.102819
H30   H     H_    0.295037 0.632242 0.844453 0.213092
H31   H     H_    0.220237 0.510270 0.793524 0.128900
C40   C     C_3   0.157227 0.671165 0.897166 -0.357716
H32   H     H_    0.168490 0.773616 0.908833 0.278447
H33   H     H_    0.090283 0.652189 0.857041 0.228381
C41   C     C_3   0.158847 0.617503 0.033285 -0.889248
H34   H     H_    0.143319 0.515786 0.025688 0.264992
H35   H     H_    0.107661 0.663579 0.101099 0.285789
H36   H     H_    0.225426 0.633945 0.075873 0.283285
N10   N     N_R   0.106754 0.835013 0.619495 0.276370
O28   O     O_R   0.165354 0.865249 0.527567 -0.239962
O29   O     O_R   0.101581 0.902010 0.730799 -0.320482
N11   N     N_R   0.921746 0.853096 0.592453 0.266433
O30   O     O_R   0.876426 0.883836 0.493388 -0.343379
O31   O     O_R   0.930020 0.932483 0.693530 -0.264708
O32   O     O_3   0.565468 0.864459 0.278651 -0.614260
C42   C     C_3   0.657634 0.838733 0.283544 0.072884
H37   H     H_    0.666691 0.739452 0.249277 0.163457
H38   H     H_    0.684572 0.850298 0.384221 0.179719
C43   C     C_3   0.712588 0.921947 0.191517 -0.291841
H39   H     H_    0.678289 0.928606 0.097652 0.295180
H40   H     H_    0.718998 0.017076 0.240111 0.246330
C44   C     C_3   0.805130 0.870355 0.157185 -0.745924
H41   H     H_    0.841020 0.856352 0.248170 0.297850
H42   H     H_    0.844377 0.936497 0.096226 0.295663
H43   H     H_    0.799146 0.780134 0.098893 0.266460

loop_
_geom_bond_atom_site_label_1
_geom_bond_atom_site_label_2
_geom_bond_distance
_ccdc_geom_bond_type
C43   H39   1.108128 S    
C8    C11   1.409961 A    
Zn1   N1    2.036434 S    
C3    C22   1.489855 S    
C25   N1    1.301898 D    
C33   H16   1.105948 S    
C41   H35   1.111016 S    
C35   H20   1.108147 S    
C42   H37   1.111258 S    
C28   H5    1.107715 S    
O20   C36   1.427172 S    
Zn1   O7    2.002156 S    
C10   C17   1.421685 A    
C16   C17   1.407138 A    
C26   N2    1.295136 D    
C7    O20   1.389997 S    
C18   C19   1.400777 A    
C25   C26   1.506259 S    
C40   H33   1.110602 S    
O4    C2    1.303313 A    
O7    C4    1.302966 A    
C34   H19   1.106179 S    
C42   H38   1.112660 S    
C39   H30   1.106253 S    
C5    C6    1.417908 A    
C23   N4    1.446231 S    
N10   O28   1.300912 A    
N6    O17   1.297640 A    
C8    C9    1.406951 A    
O5    C3    1.302276 A    
C28   H4    1.104528 S    
C6    C7    1.395522 A    
N7    O22   1.300023 A    
C24   N5    1.444611 S    
C29   H7    1.108981 S    
C13   C14   1.414184 A    
C21   C23   1.487502 S    
C32   H13   1.108482 S    
C37   H26   1.111031 S    
N1    O18   1.353340 S    
C27   C28   1.535372 S    
C44   H43   1.108262 S    
N3    O10   1.301706 A    
C11   C12   1.400074 A    
Zn2   N2    2.037222 S    
O3    Zn1   2.036712 S    
C41   H34   1.111172 S    
C35   H21   1.110660 S    
C27   H3    1.100234 S    
C23   C24   1.351332 D    
C28   C29   1.525316 S    
N11   O31   1.300751 A    
C5    C10   1.413620 A    
N4    O13   1.300131 A    
C29   H8    1.109061 S    
O19   C33   1.419321 S    
C31   H11   1.109648 S    
C30   C31   1.530419 S    
C14   C15   1.408863 A    
O3    C2    1.294263 A    
C40   C41   1.526983 S    
C36   H23   1.102006 S    
C42   C43   1.530591 S    
C1    C24   1.460499 S    
C29   H6    1.105128 S    
C15   C16   1.412261 A    
O6    C3    1.314457 A    
C38   H29   1.110117 S    
N6    O16   1.299619 A    
O1    C1    1.313134 A    
C30   H10   1.100589 S    
O11   C27   1.410107 S    
C19   C20   1.402752 A    
C21   C22   1.363069 D    
Zn2   O8    2.036709 S    
N7    O21   1.301380 A    
C32   H15   1.108525 S    
C38   H28   1.109511 S    
C7    C8    1.395098 A    
C13   C18   1.399398 A    
C37   C38   1.528693 S    
N9    O26   1.296715 A    
C33   H17   1.108291 S    
N3    O9    1.297651 A    
N8    O24   1.300992 A    
O8    C4    1.299878 A    
C20   O27   1.384476 S    
C4    C6    1.453039 S    
C35   H22   1.102910 S    
C27   H2    1.106589 S    
C44   H41   1.107813 S    
N2    O19   1.356636 S    
C15   C20   1.398701 A    
Zn1   O5    2.004345 S    
N4    O12   1.296168 A    
C43   H40   1.111551 S    
C12   N8    1.436751 S    
O1    Zn1   1.958878 S    
O2    Zn2   2.004343 S    
C21   O32   1.389269 S    
C36   C37   1.542055 S    
O4    Zn2   2.002158 S    
N11   O30   1.300185 A    
C11   N7    1.437817 S    
C17   N11   1.439130 S    
O27   C39   1.421114 S    
C43   C44   1.524431 S    
N8    O23   1.300559 A    
C31   C32   1.524619 S    
C30   H9    1.114310 S    
C9    C10   1.414239 A    
O2    C1    1.289517 A    
O32   C42   1.420081 S    
C26   H1    1.077829 S    
C40   H32   1.110028 S    
C34   H18   1.106981 S    
C34   C35   1.523728 S    
N5    O14   1.297905 A    
C39   H31   1.118089 S    
C38   H27   1.110754 S    
C22   O11   1.408362 S    
N10   O29   1.300348 A    
C9    C14   1.391650 A    
C36   H24   1.108217 S    
N9    O25   1.300071 A    
C33   C34   1.546762 S    
C16   N10   1.436417 S    
C5    N3    1.438765 S    
N5    O15   1.302414 A    
O18   C30   1.407090 S    
C18   N9    1.431466 S    
C2    C19   1.443845 S    
Zn2   O6    1.958878 S    
C12   C13   1.414230 A    
C25   N6    1.425095 S    
C32   H14   1.108806 S    
C31   H12   1.109438 S    
C37   H25   1.108224 S    
C41   H36   1.112284 S    
C44   H42   1.110252 S    
C39   C40   1.532206 S    
