data_mof_unit_42390.cif
_audit_creation_date              2013-03-05T16:04:17-0500
_audit_creation_method            fapswitch 2.2
_symmetry_space_group_name_H-M    P1
_symmetry_Int_Tables_number       1
_space_group_crystal_system       triclinic
_cell_length_a                    8.413768
_cell_length_b                    14.48173
_cell_length_c                    19.06827
_cell_angle_alpha                 98.032268
_cell_angle_beta                  91.487353
_cell_angle_gamma                 91.883411
_cell_volume                      2298.25872628

loop_
_atom_site_label
_atom_site_type_symbol
_atom_site_description
_atom_site_fract_x
_atom_site_fract_y
_atom_site_fract_z
_atom_type_partial_charge
P1    P     P_3+3 0.064140 0.407250 0.340900 0.517801
O1    O     O_2   0.890230 0.433890 0.328780 -0.350592
O2    O     O_3   0.136580 0.442380 0.417110 -0.374702
O3    O     O_3   0.636390 0.607640 0.365630 -0.380320
O4    O     O_2   0.775610 0.550178 0.250005 -0.441760
O5    O     O_3   0.051136 0.285009 0.327990 -0.536947
O6    O     O_3   0.628679 0.708016 0.250870 -0.527313
H1    H     H_    0.761974 0.757855 0.341669 0.129935
C1    C     C_3   0.670915 0.873490 0.294069 -0.825105
H2    H     H_    0.795762 0.894111 0.286630 0.283183
H3    H     H_    0.603489 0.880690 0.244504 0.303525
P2    P     P_3+3 0.622060 0.719380 0.547490 0.576952
P3    P     P_3+3 0.067101 0.781105 0.398259 0.561340
O7    O     O_2   0.794910 0.731270 0.525620 -0.307391
O8    O     O_3   0.045950 0.658760 0.399470 -0.299014
O9    O     O_2   0.935250 0.827583 0.444219 -0.393827
O10   O     O_3   0.623147 0.753678 0.639354 -0.535258
O11   O     O_3   0.021100 0.808294 0.312172 -0.589726
C2    C     C_3   0.089486 0.744375 0.259765 0.626568
H4    H     H_    0.040819 0.672549 0.262559 0.025123
C3    C     C_3   0.057892 0.766446 0.183091 0.152821
C4    C     C_3   0.258541 0.763286 0.703007 0.851708
H5    H     H_    0.363459 0.720269 0.698929 -0.017615
C5    C     C_3   0.223179 0.791046 0.781878 -0.667232
H6    H     H_    0.184102 0.729645 0.805314 0.185259
H7    H     H_    0.333942 0.818966 0.811517 0.223567
Ba1   Ba    Ba6+2 0.843770 0.541130 0.463760 1.700776
C6    C     C_3   0.012358 0.251546 0.390913 0.406321
H8    H     H_    0.892587 0.274156 0.406471 0.080500
H9    H     H_    0.100852 0.276426 0.434141 0.121684
C7    C     C_3   0.012785 0.145339 0.377796 -0.854306
H10   H     H_    0.919157 0.117608 0.337585 0.300081
H11   H     H_    0.990027 0.115926 0.427236 0.204722
H12   H     H_    0.130517 0.122232 0.358544 0.256690
C8    C     C_3   0.699487 0.692721 0.678675 0.349996
H13   H     H_    0.826140 0.689506 0.664884 0.120822
H14   H     H_    0.640958 0.622031 0.668831 0.088992
C9    C     C_3   0.684529 0.734231 0.757106 -0.329804
H15   H     H_    0.714700 0.810307 0.763822 0.278338
H16   H     H_    0.560828 0.725442 0.773793 0.185778
P4    P     P_3+3 0.125560 0.592830 0.659110 0.504860
O12   O     O_2   0.299470 0.566150 0.671260 -0.379882
O13   O     O_3   0.053110 0.557700 0.582890 -0.316894
O14   O     O_3   0.553300 0.392440 0.634370 -0.340461
O15   O     O_3   0.124826 0.716364 0.665655 -0.557681
P5    P     P_3+3 0.121790 0.220530 0.599575 0.466989
O16   O     O_3   0.638180 0.384440 0.468210 -0.398428
O17   O     O_3   0.143740 0.341320 0.600540 -0.355686
O18   O     O_2   0.244912 0.174978 0.548400 -0.380426
O19   O     O_3   0.188960 0.191310 0.681048 -0.510272
Ba2   Ba    Ba6+2 0.346040 0.458940 0.536250 1.628904
P6    P     P_3+3 0.619729 0.594621 0.274444 0.473533
C10   C     C_3   0.654958 0.773920 0.312432 0.538266
H17   H     H_    0.556121 0.771812 0.349206 0.103089
H18   H     H_    0.626662 0.923793 0.337820 0.220677
O20   O     O_3   0.551510 0.615640 0.531790 -0.354225
C11   C     C_3   0.510992 0.299970 0.322713 0.233003
H19   H     H_    0.389569 0.319576 0.339060 0.048383
H20   H     H_    0.594369 0.361802 0.333501 0.107714
C12   C     C_3   0.505494 0.266610 0.243029 -0.097409
H21   H     H_    0.466224 0.324257 0.214660 0.046468
H22   H     H_    0.417315 0.207401 0.230201 0.156040
P7    P     P_3+3 0.571616 0.266616 0.449607 0.439524
O21   O     O_2   0.394780 0.268760 0.474430 -0.365051
O22   O     O_3   0.561549 0.227594 0.358542 -0.548288
H23   H     H_    0.135925 0.720575 0.148669 0.071428
C13   C     C_3   0.068972 0.197908 0.731698 0.468929
H24   H     H_    0.950549 0.213817 0.710036 0.018687
C14   C     C_3   0.055357 0.103594 0.760301 -0.112772
H25   H     H_    0.163451 0.093183 0.792273 0.116395
H26   H     H_    0.048342 0.046845 0.714447 0.153022
P8    P     P_3+3 0.582605 0.409826 0.725886 0.449624
C15   C     C_3   0.588480 0.254503 0.780302 0.261227
H27   H     H_    0.597119 0.262389 0.839072 0.089404
O23   O     O_2   0.491130 0.498383 0.751155 -0.416233
O24   O     O_3   0.481161 0.319927 0.760698 -0.495430
H28   H     H_    0.710484 0.261562 0.760413 0.051882
H29   H     H_    0.588694 0.105052 0.779899 0.243618
C16   C     C_3   0.524739 0.156109 0.752837 -0.318585
H30   H     H_    0.398858 0.148663 0.765688 0.213813
C17   C     C_R   0.068592 0.539956 0.796115 -0.294294
H31   H     H_    0.166510 0.587177 0.812765 0.133689
C18   C     C_R   0.016887 0.533600 0.724441 0.233854
C19   C     C_R   0.858214 0.431341 0.816502 -0.366409
H32   H     H_    0.798887 0.385439 0.848036 0.143578
C20   C     C_R   0.793735 0.436922 0.748800 0.208642
C21   C     C_R   0.375685 0.527260 0.171868 -0.319037
H33   H     H_    0.458848 0.552911 0.137227 0.141701
C22   C     C_R   0.435234 0.526347 0.241238 0.329912
C23   C     C_R   0.139407 0.443278 0.198802 -0.295336
H34   H     H_    0.045464 0.391964 0.182247 0.185896
C24   C     C_R   0.187655 0.452882 0.271227 0.262713
C25   C     C_R   0.991868 0.487902 0.844731 0.128075
C26   C     C_R   0.878543 0.482724 0.701865 -0.361923
H35   H     H_    0.830645 0.484123 0.648811 0.135456
C27   C     C_R   0.218190 0.494141 0.149216 0.085628
C28   C     C_R   0.338869 0.491242 0.290486 -0.369535
H36   H     H_    0.383911 0.492088 0.343964 0.181410
C29   C     C_R   0.764803 0.484411 0.963386 -0.189646
C30   C     C_R   0.656269 0.455657 0.010105 -0.126349
C31   C     C_R   0.707033 0.445537 0.077639 -0.015184
C32   C     C_R   0.863783 0.468336 0.098732 -0.133626
C33   C     C_R   0.982483 0.484138 0.050923 0.062094
C34   C     C_R   0.930604 0.486525 0.978405 0.109931
C35   C     C_R   0.144676 0.508223 0.074590 -0.047324
C36   C     C_R   0.235803 0.547981 0.023189 0.023554
C37   C     C_R   0.201707 0.520348 0.949521 0.090307
C38   C     C_R   0.043173 0.495025 0.924290 -0.043052
C39   C     C_R   0.348915 0.622504 0.040874 -0.197133
C40   C     C_R   0.453011 0.648348 0.990108 0.347770
C41   C     C_R   0.446160 0.597702 0.922141 -0.189356
C42   C     C_R   0.326596 0.529270 0.903628 -0.239580
H37   H     H_    0.716105 0.506052 0.916019 0.142391
H38   H     H_    0.531482 0.445681 0.995210 0.144076
H39   H     H_    0.622623 0.427295 0.115597 0.135980
H40   H     H_    0.885422 0.480972 0.153461 0.178056
H41   H     H_    0.353510 0.662909 0.093022 0.153939
H42   H     H_    0.531022 0.612357 0.883253 0.163662
H43   H     H_    0.325042 0.488225 0.851962 0.205553
C43   C     C_R   0.697709 0.944980 0.540727 0.394653
C44   C     C_R   0.510059 0.804676 0.502115 0.075714
C45   C     C_R   0.362439 0.772455 0.470363 0.066967
C46   C     C_R   0.264357 0.829536 0.436459 0.261958
C47   C     C_R   0.315608 0.921019 0.432540 -0.235302
C48   C     C_R   0.461239 0.957233 0.465179 0.015309
C49   C     C_R   0.559074 0.901005 0.503094 -0.172716
C50   C     C_R   0.644142 0.092558 0.496755 -0.043914
C51   C     C_R   0.744869 0.037446 0.532893 -0.074191
C52   C     C_R   0.683548 0.189113 0.499218 0.256094
C53   C     C_R   0.819891 0.228362 0.536741 -0.469196
C54   C     C_R   0.925698 0.172271 0.566424 0.170649
C55   C     C_R   0.889056 0.077880 0.564661 -0.248619
C56   C     C_R   0.504807 0.050960 0.462307 -0.111196
H44   H     H_    0.239840 0.964621 0.405343 0.169023
H45   H     H_    0.975341 0.037371 0.588369 0.203801
H46   H     H_    0.850359 0.301826 0.538137 0.155841
H47   H     H_    0.426657 0.091439 0.433719 0.174474
C57   C     C_3   0.096657 0.864148 0.793743 -0.596307
H48   H     H_    0.149935 0.932979 0.787221 0.251291
H49   H     H_    0.994924 0.847322 0.755428 0.277307
H50   H     H_    0.052890 0.868032 0.848479 0.252341
C58   C     C_3   0.789440 0.690387 0.807974 -1.063141
H51   H     H_    0.777359 0.727007 0.862644 0.288997
H52   H     H_    0.752518 0.616390 0.807211 0.284607
H53   H     H_    0.914625 0.697135 0.793453 0.280923
N1    N     N_R   0.661813 0.237325 0.219084 0.293217
O25   O     O_R   0.743286 0.286639 0.179608 -0.394937
O26   O     O_R   0.716079 0.158647 0.233225 -0.309723
C59   C     C_3   0.121191 0.276193 0.790882 -0.792928
H54   H     H_    0.146312 0.341156 0.767805 0.259331
H55   H     H_    0.028052 0.288756 0.830348 0.233843
H56   H     H_    0.230270 0.258816 0.819348 0.243117
N2    N     N_R   0.916926 0.094788 0.803945 0.235255
O27   O     O_R   0.829654 0.018111 0.793100 -0.369159
O28   O     O_R   0.905294 0.149315 0.863702 -0.404694
C60   C     C_3   0.544137 0.133555 0.673241 -0.596806
H57   H     H_    0.672479 0.129722 0.662677 0.199955
H58   H     H_    0.483447 0.065616 0.652810 0.282574
H59   H     H_    0.493460 0.188372 0.645039 0.280245
N3    N     N_R   0.259674 0.747735 0.272336 0.178618
O29   O     O_R   0.338126 0.825643 0.269201 -0.416955
O30   O     O_R   0.318151 0.688117 0.309493 -0.492255
C61   C     C_3   0.575619 0.725980 0.008491 -0.925493
H60   H     H_    0.555302 0.781202 0.974649 0.262394
H61   H     H_    0.570622 0.757447 0.064927 0.275343
H62   H     H_    0.695893 0.698506 0.998793 0.235976
N4    N     N_R   0.299090 0.684825 0.482534 0.248616
O31   O     O_R   0.325955 0.610511 0.438679 -0.345937
O32   O     O_R   0.185027 0.683765 0.526539 -0.289593
N5    N     N_R   0.769001 0.907910 0.599347 0.241887
O33   O     O_R   0.913825 0.879476 0.595462 -0.333091
O34   O     O_R   0.714726 0.934085 0.661833 -0.347196
C62   C     C_3   0.890406 0.740752 0.152779 -0.932761
H63   H     H_    0.889390 0.742222 0.094737 0.252819
H64   H     H_    0.853822 0.669149 0.161473 0.261722
H65   H     H_    0.804681 0.791771 0.175482 0.304822
N6    N     N_R   0.100272 0.863632 0.175955 0.307249
O35   O     O_R   0.025197 0.932121 0.210277 -0.327230
O36   O     O_R   0.210991 0.882004 0.133011 -0.337440
N7    N     N_R   0.301697 0.847328 0.671978 0.226440
O37   O     O_R   0.412537 0.905122 0.702309 -0.407841
O38   O     O_R   0.230744 0.865635 0.614436 -0.364160

loop_
_geom_bond_atom_site_label_1
_geom_bond_atom_site_label_2
_geom_bond_distance
_ccdc_geom_bond_type
C27   C35   1.578861 S    
P7    O22   1.748350 S    
C56   H47   1.081292 S    
C31   C32   1.384515 A    
C3    H23   1.110120 S    
C13   C59   1.528350 S    
C9    C58   1.512494 S    
P4    O12   1.545511 D    
C2    H4    1.114040 S    
P8    O24   1.749850 S    
C43   N5    1.432296 S    
C28   H36   1.076937 S    
C11   H19   1.110121 S    
C39   H41   1.080086 S    
C46   C47   1.392299 A    
N4    O32   1.292207 A    
C62   H63   1.109766 S    
C61   H61   1.110881 S    
P5    O18   1.542078 D    
P3    O11   1.776829 S    
O3    P6    1.724093 S    
C41   H42   1.079925 S    
C2    N3    1.443803 S    
C60   H57   1.105356 S    
C2    C3    1.557666 S    
C19   C20   1.401106 A    
O6    P6    1.761917 S    
Ba2   O20   2.819442 S    
C59   H55   1.102388 S    
C25   C38   1.554919 S    
O16   P7    1.763140 S    
C9    H15   1.111360 S    
P3    C46   1.869482 S    
C43   C49   1.435651 A    
C11   H20   1.111744 S    
N5    O33   1.299600 A    
C48   C56   1.403144 A    
P4    C18   1.851987 S    
C12   H22   1.111589 S    
P1    O1    1.545244 D    
C15   H27   1.110681 S    
C14   H26   1.112080 S    
C40   C41   1.395926 A    
C20   C26   1.384934 A    
C16   C60   1.521436 S    
O8    Ba1   2.792813 S    
O17   Ba2   2.793325 S    
O5    C6    1.397615 S    
P2    C44   1.869571 S    
C41   C42   1.391756 A    
N7    O38   1.299334 A    
C6    H9    1.109570 S    
N6    O36   1.301293 A    
P2    O10   1.752402 S    
C37   C38   1.424909 A    
C7    H11   1.105931 S    
O4    P6    1.534584 D    
O1    Ba1   2.857336 S    
C1    H18   1.108782 S    
O7    Ba1   2.886926 S    
N2    O28   1.300359 A    
O19   C13   1.411484 S    
O12   Ba2   2.857791 S    
C3    N6    1.466136 S    
C29   C34   1.415273 A    
N2    O27   1.299735 A    
P4    O13   1.571533 S    
C58   H53   1.100708 S    
P6    C22   1.860437 S    
C32   C33   1.404069 A    
C12   N1    1.460099 S    
P8    O23   1.542940 D    
C51   C55   1.413364 A    
C4    H5    1.095242 S    
C17   C18   1.413134 A    
Ba1   Ba2   4.614925 S    
C24   C28   1.390835 A    
C17   H31   1.065780 S    
N1    O26   1.301166 A    
C62   H64   1.107769 S    
P5    O17   1.750399 S    
C6    C7    1.523518 S    
P2    Ba1   3.465790 S    
C13   H24   1.112113 S    
C8    C9    1.541865 S    
C30   H38   1.080270 S    
C5    H6    1.094508 S    
C4    N7    1.465104 S    
C59   H56   1.108046 S    
C11   O22   1.400226 S    
N4    O31   1.297261 A    
O2    Ba2   2.817188 S    
H29   C16   1.104935 S    
O11   C2    1.411691 S    
C11   C12   1.527742 S    
O16   Ba2   2.972829 S    
C5    C57   1.524715 S    
C10   H17   1.103982 S    
C18   C26   1.382749 A    
C14   N2    1.461386 S    
P1    O5    1.752279 S    
C22   C28   1.394102 A    
C12   H21   1.110752 S    
P1    O2    1.571339 S    
C8    H13   1.105112 S    
N3    O30   1.292401 A    
C50   C52   1.420446 A    
C17   C25   1.427847 A    
C23   C24   1.415919 A    
C7    H10   1.109758 S    
C21   C27   1.429398 A    
C61   H62   1.110036 S    
C15   C16   1.522788 S    
C7    H12   1.110992 S    
C26   H35   1.082295 S    
C33   C35   1.442339 A    
C37   C42   1.398956 A    
C19   H32   1.076142 S    
C1    H3    1.108864 S    
C44   C45   1.403875 A    
P2    O20   1.582863 S    
C57   H49   1.109000 S    
O14   Ba2   2.813097 S    
P2    O7    1.534175 D    
P1    C24   1.885106 S    
C3    C62   1.523646 S    
P3    O8    1.778281 S    
C48   C49   1.428654 A    
C31   H39   1.079737 S    
C15   O24   1.410829 S    
C58   H52   1.103892 S    
C1    C10   1.533174 S    
O6    C10   1.413269 S    
C50   C51   1.413483 A    
C34   C38   1.433714 A    
O3    Ba1   2.813918 S    
N7    O37   1.300037 A    
N1    O25   1.300534 A    
C1    H2    1.100755 S    
C62   H65   1.102445 S    
Ba1   O16   2.819892 S    
C6    H8    1.104890 S    
P4    O15   1.776080 S    
C45   N4    1.411628 S    
C8    H14   1.110903 S    
Ba1   O20   2.973656 S    
C60   H59   1.109429 S    
C53   H46   1.082619 S    
Ba2   O21   2.887050 S    
C50   C56   1.404195 A    
C5    H7    1.111497 S    
P7    O21   1.572963 D    
C57   H50   1.110417 S    
H1    C10   1.095282 S    
C29   H37   1.072483 S    
C42   H43   1.076678 S    
P8    C20   1.834787 S    
C40   C61   1.498621 S    
C43   C51   1.413123 A    
C23   C27   1.439101 A    
C35   C36   1.430987 A    
P5    O19   1.750951 S    
C29   C30   1.386287 A    
C47   H44   1.083901 S    
N3    O29   1.297750 A    
O2    Ba1   2.982568 S    
C53   C54   1.386564 A    
C52   C53   1.397096 A    
C44   C49   1.439086 A    
C59   H54   1.109414 S    
C9    H16   1.104761 S    
O13   Ba2   2.983445 S    
C23   H34   1.076809 S    
N5    O34   1.298205 A    
P5    C54   1.832129 S    
C55   H45   1.077317 S    
C60   H58   1.109079 S    
C30   C31   1.374969 A    
O14   P8    1.737871 S    
C4    C5    1.540807 S    
C19   C25   1.417762 A    
P7    C52   1.833453 S    
C14   H25   1.107905 S    
C61   H60   1.110262 S    
C32   H40   1.044176 S    
C57   H48   1.103712 S    
C16   H30   1.098545 S    
Ba1   O13   2.816424 S    
C4    O15   1.416918 S    
C21   H33   1.067425 S    
N6    O35   1.300882 A    
C36   C37   1.424823 A    
P3    O9    1.544816 D    
C33   C34   1.444600 A    
P1    Ba1   3.446398 S    
C21   C22   1.404227 A    
C15   H28   1.110030 S    
C58   H51   1.110345 S    
O10   C8    1.396866 S    
C13   C14   1.541833 S    
C45   C46   1.395988 A    
C39   C40   1.402824 A    
P4    Ba2   3.446998 S    
C54   C55   1.386954 A    
C47   C48   1.410924 A    
C36   C39   1.413606 A    
