data_mof_unit_10575.cif
_audit_creation_date              2012-12-10T19:46:38-0500
_audit_creation_method            fapswitch 2.2
_symmetry_space_group_name_H-M    P1
_symmetry_Int_Tables_number       1
_space_group_crystal_system       triclinic
_cell_length_a                    12.823572
_cell_length_b                    14.744934
_cell_length_c                    14.165544
_cell_angle_alpha                 90.06178
_cell_angle_beta                  97.928358
_cell_angle_gamma                 89.793287
_cell_volume                      2652.83935637

loop_
_atom_site_label
_atom_site_type_symbol
_atom_type_description
_atom_site_fract_x
_atom_site_fract_y
_atom_site_fract_z
_atom_type_partial_charge
C1    C     C_R   0.497640 0.327059 0.499586 0.883765
C2    C     C_R   0.495590 0.673090 0.499431 0.875458
C3    C     C_R   0.475667 0.231436 0.495899 -0.083142
C4    C     C_R   0.470493 0.768878 0.495849 -0.104831
C5    C     C_R   0.509504 0.178415 0.424353 -0.236062
C6    C     C_R   0.482905 0.820485 0.579365 -0.224947
C7    C     C_R   0.483669 0.087570 0.418281 -0.188135
C8    C     C_R   0.456894 0.911650 0.575230 -0.178245
C9    C     C_R   0.420449 0.049963 0.481403 0.005789
C10   C     C_R   0.416986 0.951628 0.487807 0.015049
C11   C     C_R   0.415449 0.463317 0.094294 -0.388537
C12   C     C_R   0.551086 0.567513 0.901999 -0.383168
C13   C     C_R   0.416766 0.463474 0.194225 0.626085
C14   C     C_R   0.551628 0.566673 0.802364 0.618780
C15   C     C_R   0.583947 0.534030 0.214826 -0.081718
C16   C     C_R   0.450532 0.432051 0.788857 -0.073090
C17   C     C_R   0.586392 0.533082 0.115963 -0.285589
C18   C     C_R   0.450549 0.429550 0.888100 -0.285544
C19   C     C_R   0.501208 0.497737 0.053447 0.119360
C20   C     C_R   0.501135 0.498033 0.946805 0.113989
C21   C     C_R   0.297854 0.500448 0.480587 0.890734
C22   C     C_R   0.702111 0.498422 0.519325 0.921478
C23   C     C_R   0.814754 0.494033 0.532195 -0.141580
C24   C     C_R   0.185155 0.503417 0.467292 -0.147861
C25   C     C_R   0.019131 0.558446 0.387771 -0.341427
C26   C     C_R   0.980083 0.435403 0.609362 -0.336129
C27   C     C_R   0.128445 0.550663 0.390114 0.488192
C28   C     C_R   0.871206 0.445275 0.608356 0.469888
C29   C     C_R   0.135670 0.463846 0.538361 -0.334817
C30   C     C_R   0.864461 0.533947 0.461435 -0.330683
C31   C     C_R   0.029064 0.474108 0.537078 0.140412
C32   C     C_R   0.970901 0.522986 0.462229 0.138072
C33   C     C_R   0.379496 0.105153 0.548909 0.496050
C34   C     C_R   0.397020 0.898215 0.404762 0.453973
C35   C     C_R   0.411288 0.194994 0.558195 -0.282329
C36   C     C_R   0.425917 0.807472 0.409174 -0.266090
H1    H     H_    0.819349 0.571875 0.403940 0.163574
H2    H     H_    0.180959 0.426185 0.595993 0.168866
H3    H     H_    0.649759 0.562122 0.261484 0.150132
H4    H     H_    0.410944 0.379187 0.744740 0.143169
H5    H     H_    0.971130 0.591515 0.328856 0.141227
H6    H     H_    0.026543 0.395614 0.664021 0.144931
H7    H     H_    0.558342 0.206659 0.375156 0.160592
H8    H     H_    0.515938 0.791205 0.647076 0.199930
H9    H     H_    0.517521 0.045783 0.367300 0.187820
H10   H     H_    0.474824 0.952158 0.639219 0.184615
H11   H     H_    0.346388 0.438465 0.049294 0.146978
H12   H     H_    0.587776 0.623485 0.943319 0.151296
N1    N     N_R   0.500000 0.499980 0.252470 -0.123042
N2    N     N_R   0.500000 0.500020 0.747530 -0.119539
O1    O     O_R   0.500010 0.369070 0.579480 -0.622393
O2    O     O_R   0.499990 0.630930 0.420520 -0.625399
O3    O     O_R   0.500010 0.369060 0.420520 -0.626653
O4    O     O_R   0.499990 0.630940 0.579480 -0.570573
O5    O     O_R   0.346360 0.499990 0.566340 -0.638836
O6    O     O_R   0.653640 0.500010 0.433660 -0.643227
O7    O     O_R   0.346360 0.499980 0.407390 -0.523077
O8    O     O_R   0.653640 0.500020 0.592610 -0.577388
Zn1   Zn    Zn3+2 0.500000 0.500010 0.606140 0.984862
Zn2   Zn    Zn3+2 0.500000 0.499990 0.393860 0.981697
H13   H     H_    0.655280 0.559288 0.089032 0.143914
H14   H     H_    0.411971 0.373673 0.918463 0.146607
O9    O     O_3   0.815706 0.398385 0.670821 -0.636750
C37   C     C_3   0.866899 0.397585 0.766099 0.075576
H15   H     H_    0.807295 0.415410 0.813028 0.149186
H16   H     H_    0.930506 0.449086 0.781365 0.117909
C38   C     C_3   0.907376 0.301904 0.793113 -0.329578
H17   H     H_    0.839548 0.254575 0.788081 0.231846
H18   H     H_    0.960769 0.277840 0.742943 0.218435
C39   C     C_3   0.966266 0.299401 0.894320 -0.973609
H19   H     H_    0.036075 0.344515 0.900284 0.262363
H20   H     H_    0.993443 0.229118 0.912171 0.267864
H21   H     H_    0.913723 0.321517 0.946169 0.266078
O10   O     O_3   0.182259 0.581744 0.317292 -0.605382
C40   C     C_3   0.141852 0.663324 0.273839 0.090360
H22   H     H_    0.210046 0.707705 0.266222 0.158792
H23   H     H_    0.091731 0.703190 0.317237 0.107251
C41   C     C_3   0.084673 0.643025 0.173842 -0.327079
H24   H     H_    0.141239 0.612261 0.130127 0.238773
H25   H     H_    0.020517 0.593428 0.177852 0.212705
C42   C     C_3   0.038050 0.728841 0.124703 -0.987321
H26   H     H_    0.980239 0.760162 0.166615 0.262963
H27   H     H_    0.997061 0.711592 0.052725 0.266172
H28   H     H_    0.101388 0.778201 0.116760 0.274540
O11   O     O_3   0.317527 0.069910 0.612518 -0.661014
C43   C     C_3   0.210236 0.073845 0.572213 0.092998
H29   H     H_    0.167851 0.021604 0.608504 0.173579
H30   H     H_    0.197712 0.056277 0.495104 0.101309
C44   C     C_3   0.161607 0.167045 0.588274 -0.385103
H31   H     H_    0.178175 0.185489 0.664966 0.230929
H32   H     H_    0.196579 0.219439 0.546050 0.210544
C45   C     C_3   0.042783 0.166978 0.557605 -0.947814
H33   H     H_    0.024553 0.148929 0.480951 0.264061
H34   H     H_    0.010404 0.235580 0.568280 0.271836
H35   H     H_    0.004294 0.117677 0.600819 0.263574
O12   O     O_3   0.361271 0.935607 0.316745 -0.658622
C46   C     C_3   0.250776 0.944363 0.307484 0.064488
H36   H     H_    0.229538 0.001585 0.352142 0.143149
H37   H     H_    0.212816 0.880839 0.328586 0.119057
C47   C     C_3   0.208627 0.964700 0.203518 -0.301749
H38   H     H_    0.248406 0.025728 0.179743 0.232433
H39   H     H_    0.226452 0.906529 0.158368 0.218067
C48   C     C_3   0.089953 0.981230 0.190323 -0.990825
H40   H     H_    0.048529 0.921196 0.214114 0.266653
H41   H     H_    0.061358 0.993732 0.113836 0.271298
H42   H     H_    0.070972 0.041402 0.232096 0.269806
H43   H     H_    0.383450 0.236761 0.612628 0.153745
H44   H     H_    0.413289 0.767472 0.344399 0.179391
O13   O     O_3   0.329976 0.434490 0.233469 -0.598572
C49   C     C_3   0.321023 0.339297 0.225619 0.072235
H45   H     H_    0.398588 0.304764 0.245412 0.133135
H46   H     H_    0.288260 0.320469 0.151359 0.124865
C50   C     C_3   0.245984 0.306564 0.293466 -0.259816
H47   H     H_    0.280032 0.322063 0.368129 0.215387
H48   H     H_    0.169493 0.342969 0.277675 0.229775
C51   C     C_3   0.226585 0.204793 0.284240 -1.009379
H49   H     H_    0.187404 0.188277 0.211423 0.270891
H50   H     H_    0.174837 0.183034 0.336696 0.262707
H51   H     H_    0.302021 0.166899 0.298478 0.286759
O14   O     O_3   0.597210 0.636990 0.758628 -0.636939
C52   C     C_3   0.707827 0.630427 0.779393 0.059534
H52   H     H_    0.735560 0.560435 0.766575 0.152628
H53   H     H_    0.734237 0.649721 0.854877 0.121415
C53   C     C_3   0.757438 0.695201 0.714278 -0.298700
H54   H     H_    0.728815 0.678588 0.638594 0.222667
H55   H     H_    0.733292 0.765936 0.728063 0.215278
C54   C     C_3   0.877370 0.688592 0.730650 -0.974718
H56   H     H_    0.908038 0.706297 0.805565 0.263538
H57   H     H_    0.910795 0.736514 0.682470 0.268242
H58   H     H_    0.903275 0.618856 0.715178 0.262953

loop_
_geom_bond_atom_site_label_1
_geom_bond_atom_site_label_2
_ccdc_geom_bond_type
C4    C36   A    
O5    Zn1   S    
C36   H44   S    
C11   H11   S    
C19   C20   S    
C24   C27   A    
C12   H12   S    
C42   H28   S    
C42   H26   S    
O11   C43   S    
C37   C38   S    
C11   C19   A    
N1    Zn2   S    
N2    Zn1   S    
C7    H9    S    
C53   H55   S    
C16   N2    A    
C41   H25   S    
C51   H49   S    
C15   C17   A    
C1    O3    A    
C24   C29   A    
C45   H33   S    
C52   C53   S    
C13   O13   S    
O2    Zn2   S    
C17   H13   S    
C49   H45   S    
C48   H41   S    
C29   H2    S    
C39   H19   S    
C44   H32   S    
C27   O10   S    
C9    C10   S    
C18   C20   A    
C50   C51   S    
C25   C32   A    
C15   N1    A    
C5    H7    S    
C26   C31   A    
C6    H8    S    
C9    C33   A    
C47   H39   S    
C42   H27   S    
O3    Zn2   S    
C46   H36   S    
C49   H46   S    
O4    Zn1   S    
O10   C40   S    
C43   H30   S    
C38   H17   S    
C23   C30   A    
C4    C6    A    
C2    O4    A    
C25   H5    S    
C5    C7    A    
C41   H24   S    
C18   H14   S    
O7    Zn2   S    
C22   O6    A    
O8    Zn1   S    
C47   C48   S    
O6    Zn2   S    
C30   H1    S    
C38   H18   S    
C37   H16   S    
C2    C4    S    
C40   H22   S    
C54   H57   S    
C21   O7    A    
C40   H23   S    
C31   C32   A    
C3    C35   A    
O12   C46   S    
C12   C20   A    
C39   H21   S    
C45   H34   S    
C10   C34   A    
C23   C28   A    
C44   C45   S    
C1    O1    A    
C49   C50   S    
C15   H3    S    
C52   H52   S    
C2    O2    A    
C16   H4    S    
C53   C54   S    
C13   N1    A    
C16   C18   A    
C12   C14   A    
C14   O14   S    
O1    Zn1   S    
C17   C19   A    
C54   H56   S    
C46   C47   S    
O14   C52   S    
C26   H6    S    
C21   O5    A    
C50   H47   S    
C7    C9    A    
C46   H37   S    
C43   H29   S    
C34   O12   S    
C3    C5    A    
C43   C44   S    
C22   O8    A    
C6    C8    A    
C25   C27   A    
C26   C28   A    
C51   H51   S    
C38   C39   S    
C37   H15   S    
C54   H58   S    
C29   C31   A    
O13   C49   S    
C30   C32   A    
C11   C13   A    
C41   C42   S    
C14   N2    A    
C47   H38   S    
C33   C35   A    
C51   H50   S    
C48   H42   S    
C34   C36   A    
C45   H35   S    
C40   C41   S    
C8    H10   S    
C52   H53   S    
C35   H43   S    
C33   O11   S    
O9    C37   S    
C28   O9    S    
C8    C10   A    
C21   C24   S    
C48   H40   S    
C22   C23   S    
C39   H20   S    
C1    C3    S    
C44   H31   S    
C53   H54   S    
C50   H48   S    
