data_mof_unit_51883.cif
_audit_creation_date              2013-03-05T15:52:28-0500
_audit_creation_method            fapswitch 2.2
_symmetry_space_group_name_H-M    P1
_symmetry_Int_Tables_number       1
_space_group_crystal_system       triclinic
_cell_length_a                    27.801764
_cell_length_b                    10.931732
_cell_length_c                    9.61508
_cell_angle_alpha                 89.468337
_cell_angle_beta                  89.762026
_cell_angle_gamma                 93.68984
_cell_volume                      2916.01265515

loop_
_atom_site_label
_atom_site_type_symbol
_atom_site_description
_atom_site_fract_x
_atom_site_fract_y
_atom_site_fract_z
_atom_type_partial_charge
O1    O     O_R   0.500000 0.319640 0.618810 -0.590966
O2    O     O_R   0.500000 0.319660 0.381240 -0.598767
C1    C     C_R   0.501403 0.262806 0.501161 0.822246
O3    O     O_R   0.430260 0.500010 0.618770 -0.572649
O4    O     O_R   0.430270 0.500030 0.381200 -0.532280
C2    C     C_R   0.407626 0.502015 0.500141 0.818901
Cu1   Cu    Cu3+1 0.500000 0.499990 0.640660 0.951848
Cu2   Cu    Cu3+1 0.500000 0.500010 0.359340 0.955963
O5    O     O_R   0.500000 0.680340 0.618760 -0.552863
O6    O     O_R   0.500000 0.680360 0.381190 -0.550228
O7    O     O_R   0.569730 0.499970 0.618800 -0.610951
O8    O     O_R   0.569740 0.499990 0.381230 -0.611382
C3    C     C_R   0.497143 0.737366 0.500398 0.809173
C4    C     C_R   0.592457 0.500780 0.499758 0.765164
C5    C     C_R   0.175778 0.405419 0.508699 0.545255
O9    O     O_2   0.198141 0.299425 0.508020 -0.534176
N1    N     N_R   0.202451 0.514986 0.508788 -0.455546
C6    C     C_R   0.180912 0.623979 0.508724 0.540544
C7    C     C_R   0.279762 0.551809 0.386859 -0.187606
C8    C     C_R   0.330054 0.550536 0.383275 0.448073
C9    C     C_R   0.328588 0.474004 0.622019 -0.299851
C10   C     C_R   0.278591 0.477311 0.624911 -0.106578
C11   C     C_R   0.254029 0.515390 0.507185 0.292262
C12   C     C_R   0.102183 0.513758 0.507532 -0.044635
C13   C     C_R   0.125233 0.402757 0.507845 -0.024961
C14   C     C_R   0.097505 0.291694 0.507499 -0.146371
C15   C     C_R   0.130435 0.625403 0.508397 -0.022867
C16   C     C_R   0.354815 0.508455 0.501012 -0.148908
H1    H     H_    0.346672 0.442737 0.714078 0.182930
H2    H     H_    0.258812 0.449349 0.718381 0.157147
H3    H     H_    0.114342 0.205022 0.509843 0.184648
C17   C     C_R   0.645476 0.502997 0.499168 -0.032630
C18   C     C_R   0.972115 0.399361 0.491829 0.042472
C19   C     C_R   0.977190 0.624751 0.515030 0.043458
C20   C     C_R   0.949387 0.511697 0.502514 0.067784
C21   C     C_R   0.942760 0.290300 0.471821 -0.204511
C22   C     C_R   0.892853 0.291006 0.468042 -0.143507
C23   C     C_R   0.870133 0.400266 0.483632 -0.022116
C24   C     C_R   0.898222 0.510944 0.500705 -0.044033
C25   C     C_R   0.875009 0.620836 0.516070 -0.019507
C26   C     C_R   0.824439 0.617898 0.514902 0.533056
N2    N     N_R   0.797997 0.509296 0.498035 -0.470107
C27   C     C_R   0.819677 0.401540 0.482138 0.536089
C28   C     C_R   0.721176 0.498701 0.372814 -0.105774
C29   C     C_R   0.670967 0.496482 0.373076 -0.224034
C30   C     C_R   0.671166 0.512301 0.624714 -0.223848
C31   C     C_R   0.721367 0.515151 0.624019 -0.105224
C32   C     C_R   0.746456 0.508103 0.498207 0.364012
O10   O     O_2   0.792447 0.295940 0.465929 -0.531785
C33   C     C_R   0.023154 0.399632 0.500243 0.043823
C34   C     C_R   0.051016 0.513094 0.506108 0.068603
C35   C     C_R   0.028346 0.625878 0.510396 0.042701
C36   C     C_R   0.047538 0.289876 0.504038 -0.203726
H4    H     H_    0.652192 0.489241 0.274749 0.165787
H5    H     H_    0.740496 0.493224 0.275282 0.138791
H6    H     H_    0.872090 0.204903 0.452777 0.189015
H7    H     H_    0.957156 0.202413 0.455828 0.137632
H8    H     H_    0.029111 0.200221 0.507153 0.135271
O11   O     O_2   0.208275 0.730529 0.509739 -0.544079
C37   C     C_R   0.107851 0.735807 0.507994 -0.144080
H9    H     H_    0.260642 0.580842 0.295617 0.157742
H10   H     H_    0.128757 0.822957 0.506817 0.188427
C38   C     C_R   0.952608 0.733068 0.532754 -0.205021
C39   C     C_R   0.902597 0.730882 0.533086 -0.146689
O12   O     O_2   0.801837 0.722640 0.529907 -0.536478
C40   C     C_R   0.057900 0.736332 0.508806 -0.203832
H11   H     H_    0.970871 0.821490 0.549524 0.136380
H12   H     H_    0.652574 0.517487 0.723431 0.165301
H13   H     H_    0.885611 0.816437 0.546929 0.185713
H14   H     H_    0.740827 0.522185 0.721238 0.138348
H15   H     H_    0.043674 0.825577 0.505286 0.136415
H16   H     H_    0.490898 0.114819 0.283265 0.180767
C41   C     C_R   0.528415 0.112803 0.748634 -0.236187
H17   H     H_    0.550602 0.197462 0.741913 0.179273
C42   C     C_R   0.525577 0.049659 0.875885 0.462974
C43   C     C_R   0.498749 0.937399 0.884151 -0.280953
H18   H     H_    0.493059 0.891916 0.983715 0.214569
C44   C     C_R   0.478785 0.883016 0.764718 0.463952
C45   C     C_R   0.490868 0.936433 0.631902 -0.085876
C46   C     C_R   0.506406 0.061680 0.629131 -0.030072
C47   C     C_R   0.501385 0.128957 0.504520 -0.133900
C48   C     C_R   0.493342 0.066062 0.381069 -0.294425
C49   C     C_R   0.496707 0.940093 0.378363 0.478821
C50   C     C_R   0.492397 0.871398 0.503538 -0.212697
H19   H     H_    0.437790 0.381337 0.130873 0.152345
C51   C     C_R   0.571738 0.642437 0.140046 -0.129475
H20   H     H_    0.570821 0.662102 0.247913 0.202259
C52   C     C_R   0.609781 0.701656 0.066641 -0.251857
H21   H     H_    0.638287 0.752846 0.121637 0.162769
C53   C     C_R   0.608114 0.707831 0.923416 -0.213949
H22   H     H_    0.635503 0.762813 0.866458 0.168743
C54   C     C_R   0.569816 0.649019 0.853482 -0.138738
H23   H     H_    0.568795 0.669064 0.745119 0.193377
C55   C     C_R   0.534774 0.571664 0.923829 0.223619
C56   C     C_R   0.535208 0.570080 0.073019 0.211348
N3    N     N_R   0.500460 0.501210 0.147910 -0.203051
C57   C     C_R   0.465645 0.435440 0.075003 -0.057135
H24   H     H_    0.438263 0.379795 0.873036 0.137029
C58   C     C_R   0.465896 0.434610 0.927150 -0.062012
N4    N     N_R   0.500480 0.501290 0.852040 -0.191749
O13   O     O_3   0.551230 0.091960 0.990576 -0.593488
C59   C     C_3   0.535808 0.206672 0.030777 -0.299540
H25   H     H_    0.495905 0.203669 0.042235 0.151577
H26   H     H_    0.548937 0.280408 0.957234 0.168026
H27   H     H_    0.551636 0.230127 0.133569 0.193137
O14   O     O_3   0.447272 0.780555 0.783371 -0.545633
C60   C     C_3   0.401746 0.803455 0.728131 -0.251457
H28   H     H_    0.402546 0.805162 0.612657 0.134618
H29   H     H_    0.388326 0.890150 0.768736 0.147246
H30   H     H_    0.375611 0.727483 0.760584 0.194318
O15   O     O_3   0.509075 0.887905 0.254466 -0.578948
C61   C     C_3   0.558665 0.919197 0.231081 -0.251169
H31   H     H_    0.581197 0.867993 0.303739 0.127411
H32   H     H_    0.568721 0.018870 0.241272 0.188229
H33   H     H_    0.567547 0.896201 0.123011 0.228167
O16   O     O_3   0.354346 0.585188 0.262054 -0.568393
C62   C     C_3   0.365105 0.712966 0.264795 -0.242470
H34   H     H_    0.388213 0.739863 0.355213 0.137782
H35   H     H_    0.331632 0.763616 0.265735 0.155434
H36   H     H_    0.385602 0.740567 0.169080 0.206975

loop_
_geom_bond_atom_site_label_1
_geom_bond_atom_site_label_2
_geom_bond_distance
_ccdc_geom_bond_type
C26   N2    1.366903 A    
O13   C59   1.408045 S    
C56   N3    1.381707 A    
C60   H29   1.113992 S    
C17   C29   1.406476 A    
C20   C24   1.422148 A    
C7    C8    1.399452 A    
Cu2   N3    2.032819 S    
C12   C15   1.408352 A    
C61   H32   1.112652 S    
C47   C48   1.388974 A    
Cu1   Cu2   2.704912 S    
Cu1   O7    1.949124 S    
C3    C50   1.480142 S    
N1    C11   1.433706 S    
C21   C22   1.388626 A    
C43   C44   1.398467 A    
C15   C37   1.395834 A    
C62   H35   1.113132 S    
O4    C2    1.304198 A    
O7    C4    1.304803 A    
C51   C52   1.390339 A    
C5    C13   1.403741 A    
O14   C60   1.410912 S    
C5    O9    1.349810 S    
C18   C21   1.415907 A    
O16   C62   1.410063 S    
C59   H27   1.109055 S    
C37   H10   1.083552 S    
C19   C20   1.421248 A    
C41   H17   1.079940 S    
O5    C3    1.297720 A    
C19   C38   1.416032 A    
C22   H6    1.083548 S    
C2    C16   1.474435 S    
C58   N4    1.368070 A    
C1    C47   1.463230 S    
C60   H28   1.110377 S    
C12   C34   1.422199 A    
C37   C40   1.389075 A    
C14   H3    1.083570 S    
O1    Cu1   1.984637 S    
C9    C10   1.392982 A    
C41   C42   1.398656 A    
C55   C56   1.434526 A    
O3    Cu1   1.951171 S    
C61   H31   1.111442 S    
C57   C58   1.421718 A    
C33   C34   1.421140 A    
C23   C24   1.408478 A    
C38   H11   1.076348 S    
C33   C36   1.415839 A    
Cu1   N4    2.032711 S    
C34   C35   1.421200 A    
C31   C32   1.399098 A    
C12   C13   1.408232 A    
O3    C2    1.305664 A    
C21   H7    1.076391 S    
C62   H36   1.109546 S    
C24   C25   1.408469 A    
C8    O16   1.382189 S    
C44   C45   1.428982 A    
C27   O10   1.349753 S    
C26   O12   1.349677 S    
C8    C16   1.415847 A    
C18   C33   1.421425 A    
C9    H1    1.083190 S    
C38   C39   1.389053 A    
O1    C1    1.297281 A    
C7    C11   1.398847 A    
C42   C43   1.395891 A    
C31   H14   1.082861 S    
C30   H12   1.082600 S    
C22   C23   1.395608 A    
C6    O11   1.349712 S    
C53   C54   1.387466 A    
C49   C50   1.413261 A    
C55   N4    1.377767 A    
Cu2   O8    1.951165 S    
N3    C57   1.367711 A    
C54   C55   1.414078 A    
N1    C6    1.367486 A    
N2    C32   1.432128 S    
C39   H13   1.083558 S    
C43   H18   1.080964 S    
C59   H26   1.110136 S    
C40   H15   1.076348 S    
C25   C26   1.404323 A    
C9    C16   1.405949 A    
C52   C53   1.379260 A    
C29   H4    1.082910 S    
C48   C49   1.386702 A    
C60   H30   1.109366 S    
C49   O15   1.377433 S    
N2    C27   1.366821 A    
C14   C36   1.388553 A    
C35   C40   1.416038 A    
C28   C29   1.394547 A    
Cu1   O5    1.980807 S    
C30   C31   1.393994 A    
C10   H2    1.082902 S    
O15   C61   1.415515 S    
C51   H20   1.061674 S    
C17   C30   1.406327 A    
O2    Cu2   1.980807 S    
C6    C15   1.404454 A    
C4    C17   1.472628 S    
C46   C47   1.412146 A    
O6    C3    1.314259 A    
O4    Cu2   1.949127 S    
C36   H8    1.076391 S    
C5    N1    1.367557 A    
C19   C35   1.421985 A    
C25   C39   1.395777 A    
C44   O14   1.386722 S    
O2    C1    1.306721 A    
C13   C14   1.395703 A    
C23   C27   1.403860 A    
C62   H34   1.113586 S    
C28   H5    1.082834 S    
C53   H22   1.082840 S    
C45   C50   1.431889 A    
C7    H9    1.083214 S    
C54   H23   1.063588 S    
C18   C20   1.421104 A    
C41   C46   1.407383 A    
C59   H25   1.112733 S    
H19   C57   1.081572 S    
C51   C56   1.408536 A    
C45   C46   1.408924 A    
O8    C4    1.305086 A    
C52   H21   1.082933 S    
Cu2   O6    1.984638 S    
H24   C58   1.081596 S    
C42   O13   1.382813 S    
C10   C11   1.398254 A    
C61   H33   1.102085 S    
H16   C48   1.081175 S    
C28   C32   1.399368 A    
