data_mof_unit_66604.cif
_audit_creation_date              2012-12-11T18:18:08-0500
_audit_creation_method            fapswitch 2.2
_symmetry_space_group_name_H-M    P1
_symmetry_Int_Tables_number       1
_space_group_crystal_system       triclinic
_cell_length_a                    8.24957
_cell_length_b                    14.334393
_cell_length_c                    14.834838
_cell_angle_alpha                 94.605447
_cell_angle_beta                  97.426536
_cell_angle_gamma                 91.378093
_cell_volume                      1732.87336195

loop_
_atom_site_label
_atom_site_type_symbol
_atom_type_description
_atom_site_fract_x
_atom_site_fract_y
_atom_site_fract_z
_atom_type_partial_charge
Ba1   Ba    Ba6+2 0.833410 0.543320 0.453520 1.659065
Ba2   Ba    Ba6+2 0.356410 0.456750 0.546480 1.650892
C1    C     C_3   0.535611 0.884421 0.214996 0.372101
C2    C     C_R   0.114092 0.478541 0.209490 0.066649
C3    C     C_R   0.918480 0.494199 0.768799 -0.249336
C4    C     C_3   0.014098 0.737851 0.191336 0.378203
C5    C     C_R   0.824446 0.466417 0.832849 0.026589
C6    C     C_R   0.887828 0.471858 0.925386 -0.161395
C7    C     C_R   0.047310 0.509794 0.956027 0.001422
C8    C     C_R   0.136762 0.546961 0.889913 -0.004234
C9    C     C_R   0.119422 0.513426 0.049881 0.011934
C10   C     C_R   0.276378 0.558739 0.076359 -0.024718
C11   C     C_R   0.356248 0.599147 0.010396 -0.110629
C12   C     C_3   0.475161 0.782432 0.199556 0.448244
C13   C     C_R   0.287124 0.594476 0.919707 -0.033010
C14   C     C_R   0.043074 0.471323 0.117938 -0.137105
C15   C     C_R   0.263922 0.526528 0.234246 -0.280148
C16   C     C_3   0.983683 0.766878 0.094281 -0.335584
C17   C     C_R   0.072202 0.535585 0.795546 0.078537
C18   C     C_R   0.711290 0.934749 0.533095 -0.035556
C19   C     C_R   0.509887 0.800049 0.494044 0.030521
C20   C     C_R   0.357827 0.766986 0.447927 -0.247535
C21   C     C_R   0.246803 0.828147 0.407224 0.007050
C22   C     C_R   0.292670 0.921795 0.403823 -0.151969
C23   C     C_3   0.455487 0.325252 0.270872 0.294273
C24   C     C_R   0.448606 0.955995 0.443534 -0.002237
C25   C     C_R   0.558231 0.896125 0.490949 -0.039406
C26   C     C_R   0.644695 0.088490 0.481548 -0.048145
C27   C     C_R   0.756441 0.029057 0.527144 -0.000706
C28   C     C_3   0.218346 0.741818 0.637770 0.292917
C29   C     C_R   0.685488 0.185488 0.485604 0.020166
C30   C     C_R   0.832904 0.221271 0.533492 -0.271136
C31   C     C_R   0.946716 0.162343 0.572394 0.030619
C32   C     C_R   0.909057 0.066276 0.570636 -0.106727
C33   C     C_R   0.492917 0.050435 0.438596 -0.065642
C34   C     C_3   0.417280 0.301726 0.168320 -0.382746
C35   C     C_3   0.245233 0.847535 0.655603 -0.437911
C36   C     C_3   0.987582 0.250818 0.350521 0.305942
C37   C     C_3   0.021573 0.147534 0.333462 -0.384334
C38   C     C_3   0.790595 0.773827 0.730081 0.643896
C39   C     C_3   0.761515 0.875761 0.767659 0.734568
C40   C     C_3   0.720242 0.676880 0.842125 0.240574
C41   C     C_3   0.027309 0.918755 0.839436 0.125888
C42   C     C_3   0.629724 0.961488 0.875432 0.150306
C43   C     C_3   0.632743 0.008953 0.146493 0.184882
C44   C     C_3   0.079766 0.137261 0.009702 0.116945
C45   C     C_3   0.076451 0.244328 0.793186 0.371803
C46   C     C_3   0.564508 0.106404 0.698711 0.077994
C47   C     C_3   0.012489 0.192718 0.868573 0.268088
C48   C     C_3   0.555476 0.227365 0.810414 0.730433
C49   C     C_3   0.479284 0.194888 0.891029 -0.262106
C50   C     C_R   0.349106 0.563332 0.168726 -0.029353
H1    H     H_    0.423730 0.765476 0.262251 -0.166430
H2    H     H_    0.889137 0.776938 0.686472 -0.008924
H3    H     H_    0.629631 0.892178 0.276423 0.053370
H4    H     H_    0.376964 0.774813 0.140418 -0.040903
H5    H     H_    0.429173 0.927696 0.228069 -0.092942
H6    H     H_    0.342344 0.347385 0.298029 0.017067
H7    H     H_    0.548921 0.383427 0.283715 0.069834
H8    H     H_    0.319341 0.246124 0.153659 0.120741
H9    H     H_    0.375585 0.364450 0.134102 0.069741
H10   H     H_    0.528444 0.276693 0.140217 0.119199
H11   H     H_    0.058335 0.831054 0.088218 0.100058
H12   H     H_    0.342426 0.864417 0.714089 0.125494
H13   H     H_    0.153423 0.306283 0.824220 0.005929
H14   H     H_    0.966733 0.270134 0.751619 -0.088325
H15   H     H_    0.930750 0.240607 0.902636 0.041394
H16   H     H_    0.941996 0.128859 0.836665 0.122421
H17   H     H_    0.456906 0.249794 0.758619 0.040549
H18   H     H_    0.399253 0.131816 0.868962 0.126734
H19   H     H_    0.408575 0.252256 0.919957 0.118918
H20   H     H_    0.938628 0.673553 0.195454 0.093604
H21   H     H_    0.576153 0.176250 0.945257 0.068896
H22   H     H_    0.319178 0.530460 0.304710 0.071782
H23   H     H_    0.281553 0.878787 0.595285 0.064475
H24   H     H_    0.474005 0.635168 0.027818 0.087723
H25   H     H_    0.929965 0.430769 0.101844 0.086359
H26   H     H_    0.868710 0.485883 0.697324 0.074674
H27   H     H_    0.809653 0.445938 0.971294 0.096608
H28   H     H_    0.354665 0.628739 0.873455 0.084192
H29   H     H_    0.320980 0.694173 0.448994 0.057090
H30   H     H_    0.206011 0.967973 0.370793 0.072738
H31   H     H_    0.997060 0.021379 0.604468 0.095737
H32   H     H_    0.145230 0.722093 0.206746 -0.098913
H33   H     H_    0.862838 0.295573 0.537410 0.059255
H34   H     H_    0.130246 0.879838 0.670590 0.136626
H35   H     H_    0.796596 0.893311 0.572483 0.074405
H36   H     H_    0.406056 0.094256 0.402825 0.089433
H37   H     H_    0.018074 0.710029 0.045818 0.068126
H38   H     H_    0.852292 0.781038 0.075917 0.179840
H39   H     H_    0.329535 0.711008 0.616267 0.036705
H40   H     H_    0.113992 0.726788 0.582915 0.062630
H41   H     H_    0.664983 0.616413 0.796477 0.055569
H42   H     H_    0.619714 0.723908 0.854973 0.086639
H43   H     H_    0.770811 0.652384 0.908643 0.025189
H44   H     H_    0.663804 0.900596 0.717460 -0.109433
H45   H     H_    0.858642 0.258161 0.361225 -0.004471
H46   H     H_    0.073897 0.847159 0.830176 0.094993
H47   H     H_    0.987667 0.930976 0.907981 0.088267
H48   H     H_    0.131421 0.968586 0.837129 0.083082
H49   H     H_    0.520229 0.969908 0.825174 0.018568
H50   H     H_    0.716683 0.022498 0.880561 0.101110
H51   H     H_    0.586207 0.958413 0.942750 0.083115
H52   H     H_    0.697208 0.034475 0.214898 0.026883
H53   H     H_    0.515730 0.045425 0.132848 0.034828
H54   H     H_    0.711973 0.027479 0.095156 0.043554
H55   H     H_    0.179655 0.105420 0.053140 0.070898
H56   H     H_    0.070428 0.279566 0.411999 0.061709
H57   H     H_    0.979360 0.083211 0.991144 0.018771
H58   H     H_    0.036399 0.197883 0.050587 0.056963
H59   H     H_    0.561230 0.152306 0.642269 0.103432
H60   H     H_    0.440591 0.080878 0.709291 0.076550
H61   H     H_    0.634030 0.044798 0.681226 0.088863
H62   H     H_    0.942442 0.116707 0.271656 0.111074
H63   H     H_    0.997581 0.108987 0.392441 0.068321
H64   H     H_    0.151268 0.139567 0.322594 0.116205
O1    O     O_2   0.841250 0.444240 0.280450 -0.464676
O2    O     O_2   0.282557 0.166591 0.583378 -0.516994
O3    O     O_3   0.170661 0.184557 0.741736 -0.630679
O4    O     O_3   0.112870 0.447390 0.393710 -0.499656
O5    O     O_3   0.560600 0.613720 0.540760 -0.450703
O6    O     O_2   0.387470 0.270310 0.467210 -0.463594
O7    O     O_3   0.513398 0.245239 0.310879 -0.653606
O8    O     O_2   0.483261 0.445826 0.832677 -0.519033
O9    O     O_3   0.665922 0.300299 0.844920 -0.646936
O10   O     O_3   0.597960 0.615760 0.327700 -0.460654
O11   O     O_2   0.689663 0.549818 0.170866 -0.499037
O12   O     O_3   0.644080 0.732829 0.680828 -0.695729
O13   O     O_3   0.012603 0.295112 0.272876 -0.643917
O14   O     O_3   0.604599 0.724768 0.181131 -0.587491
O15   O     O_2   0.802240 0.729720 0.532850 -0.497939
O16   O     O_3   0.017190 0.664840 0.371090 -0.485984
O17   O     O_2   0.913839 0.831918 0.420558 -0.482070
O18   O     O_3   0.848796 0.719656 0.803226 -0.684607
O19   O     O_3   0.901823 0.935772 0.768741 -0.709115
O20   O     O_3   0.707742 0.877640 0.854992 -0.671283
O21   O     O_3   0.603668 0.911037 0.137935 -0.631088
O22   O     O_3   0.142182 0.167179 0.932247 -0.667906
O23   O     O_3   0.970412 0.810639 0.251774 -0.577488
O24   O     O_3   0.648140 0.153844 0.777621 -0.701783
O25   O     O_2   0.348460 0.555790 0.719610 -0.471192
O26   O     O_3   0.076820 0.552690 0.606290 -0.495594
O27   O     O_3   0.591740 0.384320 0.672310 -0.475470
O28   O     O_3   0.186196 0.705709 0.718550 -0.626529
O29   O     O_3   0.629090 0.386360 0.459240 -0.475460
O30   O     O_3   0.172500 0.335240 0.628910 -0.480008
P1    P     P_3+3 0.018620 0.416870 0.295980 0.974619
P2    P     P_3+3 0.635650 0.716500 0.560900 0.959721
P3    P     P_3+3 0.037788 0.784955 0.363586 0.964457
P4    P     P_3+3 0.171070 0.583210 0.704020 1.007996
P5    P     P_3+3 0.143039 0.213320 0.628206 0.925096
P6    P     P_3+3 0.559125 0.611618 0.209260 0.955230
P7    P     P_3+3 0.555872 0.270552 0.429042 0.932902
P8    P     P_3+3 0.631778 0.403776 0.792109 0.930778

loop_
_geom_bond_atom_site_label_1
_geom_bond_atom_site_label_2
_ccdc_geom_bond_type
Ba2   P4    S    
C12   H4    S    
C42   O20   S    
Ba2   O27   S    
C47   H16   S    
O8    P8    D    
C40   H41   S    
Ba1   O29   S    
C41   H46   S    
Ba1   O16   S    
C5    C6    A    
C45   C47   S    
C43   H54   S    
Ba2   O29   S    
C4    H20   S    
C24   C25   A    
C26   C27   A    
C48   H17   S    
C41   H47   S    
C14   H25   S    
C8    C13   A    
O7    P7    S    
C36   C37   S    
C48   O24   S    
C16   H11   S    
C39   H44   S    
O10   P6    S    
C38   O12   S    
C18   H35   S    
C17   P4    S    
C28   O28   S    
Ba1   Ba2   S    
C33   H36   S    
C4    O23   S    
C22   H30   S    
O28   P4    S    
Ba1   O26   S    
C29   P7    S    
C1    H3    S    
C29   C30   A    
C26   C33   A    
C6    C7    A    
C6    H27   S    
C21   C22   A    
C1    O21   S    
C49   H18   S    
C7    C8    A    
C45   H14   S    
C44   O22   S    
O29   P7    S    
C45   O3    S    
C21   P3    S    
C47   O22   S    
C36   H56   S    
O16   P3    S    
C49   H19   S    
C36   H45   S    
C34   H10   S    
C15   C50   A    
C10   C50   A    
C42   H51   S    
C43   H53   S    
O25   P4    D    
C48   C49   S    
C18   C27   A    
Ba2   O6    S    
O3    P5    S    
C4    C16   S    
C4    H32   S    
C46   O24   S    
C40   H43   S    
C16   H38   S    
C36   O13   S    
C35   H34   S    
O17   P3    D    
C41   H48   S    
C28   H40   S    
C31   P5    S    
C3    C5    A    
Ba2   O4    S    
O12   P2    S    
O27   P8    S    
Ba1   O15   S    
C19   P2    S    
C2    P1    S    
C38   O18   S    
C27   C32   A    
O23   P3    S    
C28   C35   S    
Ba1   O4    S    
C2    C14   A    
C20   H29   S    
C43   H52   S    
O11   P6    D    
C7    C9    A    
C9    C14   A    
C13   H28   S    
C11   H24   S    
C8    C17   A    
C50   P6    S    
C37   H62   S    
C44   H55   S    
C46   H59   S    
C43   O21   S    
C31   C32   A    
O5    P2    S    
O15   P2    D    
C48   O9    S    
Ba1   O1    S    
Ba1   O10   S    
C41   O19   S    
C23   O7    S    
C42   H49   S    
C1    C12   S    
C2    C15   A    
C1    H5    S    
C38   C39   S    
C46   H60   S    
C38   H2    S    
C11   C13   A    
O14   P6    S    
C15   H22   S    
C19   C25   A    
O6    P7    D    
Ba1   P1    S    
C32   H31   S    
C34   H9    S    
C39   O19   S    
C35   H12   S    
O9    P8    S    
C12   O14   S    
Ba2   O5    S    
C42   H50   S    
C47   H15   S    
C40   H42   S    
C16   H37   S    
C26   C29   A    
C49   H21   S    
C22   C24   A    
C28   H39   S    
C34   H8    S    
C9    C10   A    
C3    C17   A    
C18   C25   A    
Ba2   O30   S    
C37   H63   S    
O1    P1    D    
C40   O18   S    
C30   C31   A    
O26   P4    S    
C44   H58   S    
C5    P8    S    
Ba2   O26   S    
C30   H33   S    
C35   H23   S    
O2    P5    D    
Ba1   O5    S    
O13   P1    S    
C23   C34   S    
O30   P5    S    
C24   C33   A    
C12   H1    S    
C10   C11   A    
O4    P1    S    
C37   H64   S    
C23   H6    S    
C44   H57   S    
Ba2   O25   S    
C20   C21   A    
Ba1   P2    S    
C23   H7    S    
C3    H26   S    
C19   C20   A    
C45   H13   S    
C39   O20   S    
C46   H61   S    
