data_mof_unit_29200.cif
_audit_creation_date              2012-12-10T17:48:56-0500
_audit_creation_method            fapswitch 2.2
_symmetry_space_group_name_H-M    P1
_symmetry_Int_Tables_number       1
_space_group_crystal_system       triclinic
_cell_length_a                    10.729578
_cell_length_b                    14.725306
_cell_length_c                    14.760676
_cell_angle_alpha                 65.106961
_cell_angle_beta                  103.932023
_cell_angle_gamma                 103.140458
_cell_volume                      2032.10008852

loop_
_atom_site_label
_atom_site_type_symbol
_atom_type_description
_atom_site_fract_x
_atom_site_fract_y
_atom_site_fract_z
_atom_type_partial_charge
C1    C     C_R   0.478087 0.119736 0.312269 0.800362
C2    C     C_R   0.460699 0.361692 0.078924 0.098628
C3    C     C_R   0.425299 0.322622 0.001912 0.163373
C4    C     C_R   0.260369 0.998560 0.502481 0.775528
C5    C     C_R   0.477697 0.468342 0.052400 0.046709
C6    C     C_R   0.469136 0.534448 0.948597 0.065793
C7    C     C_R   0.429225 0.491865 0.874286 -0.214944
C8    C     C_R   0.407776 0.388129 0.900762 -0.231810
C9    C     C_R   0.501443 0.510790 0.126086 -0.265571
C10   C     C_R   0.524277 0.614899 0.100147 -0.038090
C11   C     C_R   0.523850 0.681097 0.998378 0.105687
C12   C     C_3   0.878427 0.996879 0.504643 0.142644
C13   C     C_R   0.498296 0.640984 0.922257 0.080360
C14   C     C_R   0.548556 0.786899 0.970742 -0.184234
C15   C     C_R   0.548743 0.852294 0.870002 -0.173639
C16   C     C_R   0.521292 0.880466 0.687668 0.797040
C17   C     C_R   0.505663 0.709020 0.821882 -0.235257
C18   C     C_R   0.721326 0.286521 0.666143 -0.317933
C19   C     C_R   0.685393 0.204304 0.637276 0.072987
C20   C     C_R   0.517874 0.284598 0.510208 0.002495
C21   C     C_R   0.549815 0.371152 0.535748 -0.024467
C22   C     C_R   0.653777 0.370024 0.615967 0.164005
C23   C     C_3   0.896284 0.896980 0.500741 -0.381975
C24   C     C_R   0.482518 0.457621 0.485525 0.080337
C25   C     C_R   0.520130 0.541402 0.517139 0.097580
C26   C     C_R   0.623950 0.535590 0.598031 -0.235980
C27   C     C_R   0.689309 0.451755 0.645992 -0.196431
C28   C     C_R   0.740261 0.998382 0.502358 0.759306
C29   C     C_R   0.378969 0.463058 0.404644 -0.232080
C30   C     C_R   0.313453 0.546171 0.356830 -0.164244
C31   C     C_R   0.348573 0.627812 0.386680 0.132866
C32   C     C_R   0.452253 0.627896 0.466543 -0.008124
C33   C     C_R   0.280622 0.710182 0.335368 -0.338201
C34   C     C_3   0.962368 0.005065 0.603354 -0.408704
C35   C     C_R   0.312997 0.793573 0.363048 0.463195
C36   C     C_R   0.483197 0.715549 0.490612 -0.056861
C37   C     C_3   0.069852 0.086393 0.412044 -0.413318
C38   C     C_3   0.926507 0.087223 0.412116 -0.378058
C39   C     C_3   0.039211 0.896719 0.501807 -0.366876
C40   C     C_3   0.107816 0.007862 0.603275 -0.140296
C41   C     C_3   0.122679 0.996724 0.505803 0.105294
C42   C     C_1   0.551640 0.651536 0.180844 0.220575
C43   C     C_3   0.106855 0.859600 0.277813 -0.763746
C44   C     C_1   0.164841 0.929571 0.696901 0.204696
C45   C     C_R   0.461647 0.187959 0.204786 -0.060514
C46   C     C_R   0.527167 0.813525 0.795083 -0.040998
C47   C     C_R   0.408004 0.218003 0.026764 -0.196366
C48   C     C_R   0.425963 0.151053 0.127593 -0.196490
C49   C     C_R   0.480851 0.292413 0.179897 -0.256667
Cu1   Cu    Cu3+1 0.465900 0.918260 0.475680 0.948934
Cu2   Cu    Cu3+1 0.534100 0.081740 0.524320 0.930869
H1    H     H_    0.078658 0.080078 0.341332 0.166492
H2    H     H_    0.514432 0.317817 0.241113 0.153698
H3    H     H_    0.127879 0.159400 0.412132 0.164155
H4    H     H_    0.410066 0.536359 0.794295 0.145360
H5    H     H_    0.500031 0.464956 0.205221 0.145317
H6    H     H_    0.566909 0.819983 0.026583 0.144469
H7    H     H_    0.768599 0.450799 0.707715 0.143489
H8    H     H_    0.562045 0.722546 0.549214 0.132995
H9    H     H_    0.234463 0.546741 0.294974 0.137932
H10   H     H_    0.801180 0.284642 0.727666 0.137246
H11   H     H_    0.737059 0.139638 0.676362 0.120022
H12   H     H_    0.927295 0.940482 0.670042 0.154048
H13   H     H_    0.439378 0.278046 0.451317 0.120295
H14   H     H_    0.916152 0.159832 0.414182 0.173605
H15   H     H_    0.657168 0.594903 0.626424 0.130094
H16   H     H_    0.345707 0.404228 0.375703 0.123325
H17   H     H_    0.203403 0.709783 0.272831 0.152698
H18   H     H_    0.866463 0.082961 0.340730 0.158211
H19   H     H_    0.046964 0.888373 0.432397 0.193775
H20   H     H_    0.837514 0.888367 0.430764 0.184020
H21   H     H_    0.160892 0.082371 0.602793 0.136157
H22   H     H_    0.950448 0.075390 0.609356 0.162011
H23   H     H_    0.074620 0.830102 0.567513 0.177515
H24   H     H_    0.289953 0.931660 0.248592 0.246798
H25   H     H_    0.084403 0.841466 0.209264 0.220689
H26   H     H_    0.064086 0.928646 0.258702 0.231161
H27   H     H_    0.061792 0.796180 0.339990 0.236736
H28   H     H_    0.862252 0.830902 0.566713 0.163449
H29   H     H_    0.378221 0.359014 0.841286 0.145846
H30   H     H_    0.497427 0.682611 0.762707 0.143952
H31   H     H_    0.565576 0.933133 0.850869 0.152220
H32   H     H_    0.380975 0.187974 0.968017 0.134313
H33   H     H_    0.413070 0.070861 0.144769 0.141924
N1    N     N_R   0.585360 0.204570 0.560800 -0.176352
N2    N     N_R   0.414550 0.795430 0.439160 -0.197036
N3    N     N_1   0.574147 0.681003 0.245239 -0.290694
N4    N     N_2   0.245914 0.878903 0.308115 -0.379459
N5    N     N_1   0.209560 0.868282 0.770142 -0.288361
O1    O     O_R   0.455060 0.022100 0.338110 -0.580653
O2    O     O_R   0.512640 0.160150 0.379180 -0.589511
O3    O     O_R   0.288900 0.930980 0.479450 -0.551623
O4    O     O_R   0.346480 0.069030 0.520520 -0.596081
O5    O     O_R   0.487360 0.839850 0.620820 -0.591926
O6    O     O_R   0.544940 0.977900 0.661890 -0.588773
O7    O     O_R   0.653520 0.930970 0.479480 -0.591307
O8    O     O_R   0.711100 0.069020 0.520550 -0.589631

loop_
_geom_bond_atom_site_label_1
_geom_bond_atom_site_label_2
_ccdc_geom_bond_type
C28   O8    A    
Cu2   O8    S    
C1    O1    A    
C10   C42   S    
C7    H4    S    
C36   H8    S    
C1    C45   S    
Cu2   N1    S    
C7    C8    A    
C39   C41   S    
C43   H27   S    
C12   C23   S    
C26   C27   A    
C37   C38   S    
C12   C28   S    
C34   C40   S    
C43   N4    S    
C32   C36   A    
C30   C31   A    
C33   C35   A    
C11   C14   A    
C49   H2    S    
C4    C41   S    
C19   H11   S    
C18   C19   A    
C39   H23   S    
C24   C29   A    
Cu2   O2    S    
C29   H16   S    
Cu1   O1    S    
C47   C48   A    
C30   H9    S    
C31   C33   A    
C47   H32   S    
C9    C10   A    
C25   C32   A    
C38   H18   S    
C1    O2    A    
C21   C22   A    
C12   C38   S    
C15   H31   S    
C26   H15   S    
C23   H20   S    
C17   C46   A    
C3    C8    A    
C16   C46   S    
C37   H1    S    
Cu1   O5    S    
C36   N2    A    
C25   C26   A    
C48   H33   S    
C20   H13   S    
C5    C9    A    
C29   C30   A    
C2    C49   A    
C35   N4    S    
C31   C32   A    
C38   H14   S    
C45   C49   A    
C20   N1    A    
Cu1   Cu2   S    
C9    H5    S    
C24   C25   A    
Cu2   O4    S    
C37   H3    S    
Cu1   O3    S    
C40   C41   S    
C22   C27   A    
C2    C5    A    
C12   C34   S    
C45   C48   A    
C43   H25   S    
C14   H6    S    
C16   O6    A    
C40   H21   S    
C18   C22   A    
C19   N1    A    
C27   H7    S    
C18   H10   S    
C6    C7    A    
C43   H26   S    
C16   O5    A    
C13   C17   A    
C28   O7    A    
C2    C3    A    
C6    C13   A    
C11   C13   A    
Cu1   O7    S    
C5    C6    A    
C23   C39   S    
C3    C47   A    
C34   H12   S    
C35   N2    A    
C39   H19   S    
C17   H30   S    
C37   C41   S    
C10   C11   A    
Cu1   N2    S    
C34   H22   S    
C4    O4    A    
H24   N4    S    
C40   C44   S    
C20   C21   A    
C21   C24   A    
C8    H29   S    
C14   C15   A    
C42   N3    T    
C15   C46   A    
C23   H28   S    
C44   N5    T    
C33   H17   S    
Cu2   O6    S    
C4    O3    A    
