data_mof_unit_49349.cif
_audit_creation_date              2012-12-10T18:22:17-0500
_audit_creation_method            fapswitch 2.2
_symmetry_space_group_name_H-M    P1
_symmetry_Int_Tables_number       1
_space_group_crystal_system       triclinic
_cell_length_a                    14.974056
_cell_length_b                    14.117498
_cell_length_c                    15.749419
_cell_angle_alpha                 89.913783
_cell_angle_beta                  88.963116
_cell_angle_gamma                 90.440768
_cell_volume                      3328.71924443

loop_
_atom_site_label
_atom_site_type_symbol
_atom_type_description
_atom_site_fract_x
_atom_site_fract_y
_atom_site_fract_z
_atom_type_partial_charge
C1    C     C_R   0.326883 0.499791 0.500609 0.887203
C2    C     C_3   0.575610 0.438864 0.948267 -0.784441
C3    C     C_3   0.576016 0.434102 0.049036 0.949490
C4    C     C_1   0.497983 0.499866 0.825524 0.118865
C5    C     C_1   0.497094 0.500018 0.174611 0.078006
C6    C     C_1   0.498561 0.500197 0.249787 -0.172282
C7    C     C_R   0.815543 0.575561 0.461146 -0.206157
C8    C     C_R   0.768874 0.500815 0.499671 -0.051602
C9    C     C_R   0.813089 0.426131 0.537716 -0.200264
C10   C     C_R   0.905314 0.425969 0.538519 0.061088
C11   C     C_R   0.953647 0.500176 0.498355 0.013206
C12   C     C_R   0.499969 0.500072 0.338431 0.876581
C13   C     C_R   0.908563 0.575179 0.457671 -0.074395
C14   C     C_R   0.949185 0.352495 0.579278 -0.215716
C15   C     C_R   0.041729 0.349363 0.579744 0.417390
C16   C     C_R   0.091622 0.423742 0.540140 0.028566
C17   C     C_R   0.046726 0.499475 0.499601 -0.043737
C18   C     C_R   0.094991 0.575328 0.461428 -0.077391
C19   C     C_R   0.050494 0.651192 0.423013 0.466782
C20   C     C_R   0.957644 0.648995 0.417083 0.333009
C21   C     C_R   0.184613 0.426569 0.541560 -0.234010
C22   C     C_R   0.231263 0.499751 0.501067 -0.081833
C23   C     C_R   0.673186 0.500324 0.499964 0.866392
C24   C     C_R   0.187430 0.573778 0.461772 -0.172172
C25   C     C_R   0.567012 0.800725 0.459375 0.414155
C26   C     C_R   0.567686 0.200548 0.460336 0.406823
C27   C     C_R   0.434823 0.795760 0.545745 0.517434
C28   C     C_R   0.432934 0.202636 0.543092 0.507611
C29   C     C_R   0.430174 0.897359 0.545723 -0.268302
C30   C     C_R   0.428483 0.100920 0.542189 -0.280739
C31   C     C_R   0.500205 0.949334 0.505895 -0.073729
C32   C     C_R   0.500158 0.050418 0.505605 -0.061638
C33   C     C_R   0.569985 0.900318 0.464380 0.049369
C34   C     C_R   0.570446 0.100866 0.464996 0.047826
C35   C     C_R   0.356344 0.948084 0.579987 0.450849
C36   C     C_R   0.352976 0.048347 0.571911 0.416357
C37   C     C_R   0.640603 0.050540 0.426093 -0.166155
C38   C     C_R   0.640218 0.951914 0.425524 -0.158162
C39   C     C_R   0.499849 0.499942 0.661595 0.897746
C40   C     C_3   0.509791 0.605837 0.050590 0.711806
C41   C     C_3   0.403695 0.457605 0.050747 0.712905
C42   C     C_3   0.410051 0.449337 0.951891 0.343489
C43   C     C_3   0.513087 0.602920 0.951338 0.309025
C44   C     C_1   0.499013 0.499841 0.750319 -0.180650
C45   C     C_3   0.496626 0.499422 0.082679 -0.182833
C46   C     C_3   0.496502 0.499831 0.917039 -0.167726
H1    H     H_    0.222506 0.374242 0.575280 0.193986
H2    H     H_    0.225999 0.629719 0.430863 0.199603
H3    H     H_    0.695676 0.087136 0.394460 0.198433
H4    H     H_    0.695046 0.916316 0.393499 0.204833
H5    H     H_    0.419127 0.372818 0.935135 0.107357
H6    H     H_    0.584700 0.616282 0.934583 0.166710
H7    H     H_    0.639512 0.470640 0.924345 0.221465
H8    H     H_    0.573256 0.369457 0.915883 0.195826
H9    H     H_    0.778269 0.633368 0.434444 0.197290
H10   H     H_    0.775494 0.369086 0.568222 0.160955
H11   H     H_    0.911284 0.296012 0.610189 0.172688
N1    N     N_R   0.500070 0.750030 0.500040 -0.178697
N2    N     N_R   0.500070 0.249970 0.500040 -0.173224
O1    O     O_R   0.367860 0.580280 0.500020 -0.568249
O2    O     O_R   0.367860 0.419720 0.500020 -0.571679
O3    O     O_R   0.500020 0.580310 0.377140 -0.646224
O4    O     O_R   0.500020 0.419690 0.377140 -0.640341
O5    O     O_R   0.632160 0.580270 0.499980 -0.622406
O6    O     O_R   0.632160 0.419730 0.499980 -0.617575
O7    O     O_R   0.500010 0.580240 0.622850 -0.582155
O8    O     O_R   0.500010 0.419760 0.622850 -0.591085
Zn1   Zn    Zn3+2 0.500020 0.607200 0.499990 0.997159
Zn2   Zn    Zn3+2 0.500020 0.392800 0.499990 0.992136
O9    O     O_3   0.473075 0.680901 0.908983 -0.632452
C47   C     C_3   0.379839 0.675453 0.900641 -0.128341
H12   H     H_    0.344735 0.647807 0.957886 0.256588
H13   H     H_    0.362856 0.635126 0.842704 0.201729
H14   H     H_    0.354763 0.748317 0.890939 0.132172
O10   O     O_3   0.332198 0.483678 0.912249 -0.613501
C48   C     C_3   0.267092 0.411504 0.904478 -0.246186
H15   H     H_    0.204892 0.443512 0.880732 0.189203
H16   H     H_    0.250967 0.377568 0.966697 0.194250
H17   H     H_    0.289353 0.357494 0.857497 0.154694
O11   O     O_3   0.079308 0.273425 0.620829 -0.764516
H18   H     H_    0.137530 0.258876 0.593938 0.344959
O12   O     O_3   0.098177 0.724399 0.384544 -0.587993
C49   C     C_3   0.107741 0.798183 0.444083 -0.214826
H19   H     H_    0.147265 0.856334 0.413959 0.182943
H20   H     H_    0.144637 0.774313 0.500929 0.179092
H21   H     H_    0.041741 0.827595 0.463548 0.187481
O13   O     O_3   0.917915 0.720557 0.371800 -0.724368
H22   H     H_    0.867027 0.693216 0.340690 0.338344
O14   O     O_3   0.633215 0.756211 0.413132 -0.788657
H23   H     H_    0.609378 0.695268 0.393530 0.376426
O15   O     O_3   0.634558 0.246510 0.415174 -0.773508
H24   H     H_    0.609662 0.305380 0.392574 0.383522
O16   O     O_3   0.375381 0.740891 0.591913 -0.688668
H25   H     H_    0.373641 0.766992 0.650210 0.335196
O17   O     O_3   0.372666 0.255993 0.589033 -0.720543
H26   H     H_    0.356901 0.220905 0.641765 0.344616
O18   O     O_3   0.281156 0.899269 0.609069 -0.587675
C50   C     C_3   0.268688 0.915877 0.696937 -0.285074
H27   H     H_    0.238458 0.986259 0.708785 0.219015
H28   H     H_    0.331924 0.909146 0.732681 0.122526
H29   H     H_    0.221367 0.861768 0.722690 0.186960
O19   O     O_3   0.272146 0.092826 0.586288 -0.607597
C51   C     C_3   0.224609 0.092247 0.509656 -0.232814
H30   H     H_    0.219460 0.019987 0.481706 0.158393
H31   H     H_    0.255734 0.142128 0.462853 0.160946
H32   H     H_    0.155369 0.115847 0.522817 0.193228
O20   O     O_3   0.437255 0.662137 0.081598 -0.593172
C52   C     C_3   0.457201 0.760264 0.085423 -0.191455
H33   H     H_    0.486470 0.777710 0.147810 0.160609
H34   H     H_    0.502821 0.785111 0.033407 0.207648
H35   H     H_    0.393965 0.800092 0.080283 0.165721
O21   O     O_3   0.331955 0.520700 0.071217 -0.562087
C53   C     C_3   0.278209 0.493491 0.141876 -0.185411
H36   H     H_    0.228547 0.549971 0.154045 0.184932
H37   H     H_    0.317812 0.486250 0.200304 0.134827
H38   H     H_    0.240235 0.427424 0.128451 0.170755
O22   O     O_3   0.386551 0.364318 0.081350 -0.816375
H39   H     H_    0.397839 0.361011 0.143029 0.347477
O23   O     O_3   0.592532 0.642549 0.079150 -0.772922
H40   H     H_    0.588839 0.649607 0.141767 0.352439
O24   O     O_3   0.657138 0.474852 0.078960 -0.584320
C54   C     C_3   0.731255 0.414102 0.070848 -0.217723
H41   H     H_    0.741806 0.389305 0.004610 0.130557
H42   H     H_    0.725327 0.353547 0.115759 0.194821
H43   H     H_    0.792012 0.454549 0.088208 0.179798
O25   O     O_3   0.562085 0.342835 0.088397 -0.601855
C55   C     C_3   0.576601 0.262101 0.037374 -0.321921
H44   H     H_    0.519181 0.249973 0.995023 0.182237
H45   H     H_    0.579985 0.199475 0.079749 0.202038
H46   H     H_    0.640776 0.265234 0.001209 0.142972

loop_
_geom_bond_atom_site_label_1
_geom_bond_atom_site_label_2
_ccdc_geom_bond_type
O7    Zn1   S    
O13   H22   S    
C16   C21   A    
C27   C29   A    
C34   C37   A    
C41   C42   S    
C19   C20   A    
C48   H17   S    
C7    H9    S    
O18   C50   S    
C3    O25   S    
C7    C8    A    
C4    C46   S    
C2    C46   S    
C42   O10   S    
O16   H25   S    
C28   O17   S    
C18   C24   A    
O5    Zn1   S    
C48   H16   S    
C6    C12   S    
C5    C6    T    
C43   H6    S    
C15   C16   A    
C20   O13   S    
C8    C23   S    
C12   O3    A    
C52   H33   S    
C36   O19   S    
C18   C19   A    
C42   C46   S    
C26   C34   A    
C40   C43   S    
C49   H19   S    
C8    C9    A    
C41   O21   S    
O20   C52   S    
C31   C33   A    
O9    C47   S    
C19   O12   S    
C26   N2    A    
C42   H5    S    
C53   H38   S    
C1    C22   S    
C21   C22   A    
O21   C53   S    
C40   C45   S    
C24   H2    S    
O4    Zn2   S    
C48   H15   S    
C2    H8    S    
C1    O1    A    
O15   H24   S    
C47   H13   S    
C12   O4    A    
C16   C17   A    
C4    C44   T    
C26   O15   S    
C5    C45   S    
C3    C45   S    
C53   H37   S    
O8    Zn2   S    
C35   C36   A    
C32   C34   A    
O10   C48   S    
C55   H45   S    
C37   C38   A    
C37   H3    S    
C31   C32   A    
C49   H21   S    
C17   C18   A    
C51   H31   S    
C9    H10   S    
O24   C54   S    
N2    Zn2   S    
C40   O20   S    
N1    Zn1   S    
C23   O5    A    
C49   H20   S    
C50   H27   S    
C43   O9    S    
C50   H28   S    
C10   C14   A    
C39   O7    A    
C22   C24   A    
C27   O16   S    
C25   N1    A    
C54   H42   S    
C55   H44   S    
C53   H36   S    
C9    C10   A    
C28   N2    A    
O2    Zn2   S    
C14   H11   S    
C11   C17   A    
C13   C20   A    
C39   O8    A    
O11   H18   S    
C2    H7    S    
C1    O2    A    
C47   H14   S    
O23   H40   S    
C39   C44   S    
C38   H4    S    
C30   C36   A    
C50   H29   S    
C29   C35   A    
C25   O14   S    
C33   C38   A    
C52   H35   S    
O3    Zn1   S    
C23   O6    A    
C54   H43   S    
C28   C30   A    
C2    C3    S    
C54   H41   S    
C55   H46   S    
C47   H12   S    
C29   C31   A    
O22   H39   S    
C30   C32   A    
C11   C13   A    
C27   N1    A    
O25   C55   S    
O6    Zn2   S    
C52   H34   S    
C51   H32   S    
O19   C51   S    
C43   C46   S    
C15   O11   S    
C10   C11   A    
C7    C13   A    
C40   O23   S    
O1    Zn1   S    
O12   C49   S    
C51   H30   S    
C41   C45   S    
C14   C15   A    
C41   O22   S    
O14   H23   S    
C35   O18   S    
O17   H26   S    
C3    O24   S    
C25   C33   A    
C21   H1    S    
