data_mof_unit_15345.cif
_audit_creation_date              2012-12-11T15:41:15-0500
_audit_creation_method            fapswitch 2.2
_symmetry_space_group_name_H-M    P1
_symmetry_Int_Tables_number       1
_space_group_crystal_system       triclinic
_cell_length_a                    19.10247
_cell_length_b                    10.996863
_cell_length_c                    18.806205
_cell_angle_alpha                 89.879916
_cell_angle_beta                  90.017442
_cell_angle_gamma                 90.095634
_cell_volume                      3950.55332496

loop_
_atom_site_label
_atom_site_type_symbol
_atom_type_description
_atom_site_fract_x
_atom_site_fract_y
_atom_site_fract_z
_atom_type_partial_charge
C1    C     C_R   0.724107 0.962628 0.856336 0.547180
C2    C     C_R   0.306342 0.460325 0.036954 0.009266
C3    C     C_R   0.760123 0.862641 0.353111 0.545500
C4    C     C_2   0.497820 0.171068 0.921023 -0.116720
C5    C     C_2   0.501175 0.166784 0.078432 -0.123023
C6    C     C_2   0.997800 0.671066 0.921011 -0.116105
C7    C     C_2   0.001152 0.666784 0.078418 -0.121367
C8    C     C_2   0.485375 0.070688 0.036920 -0.171819
C9    C     C_2   0.499690 0.069191 0.960098 -0.166188
C10   C     C_2   0.985344 0.570690 0.036907 -0.171454
C11   C     C_2   0.999662 0.569189 0.960086 -0.166414
C12   C     C_R   0.748663 0.409365 0.078962 0.016176
C13   C     C_R   0.194149 0.956178 0.965570 0.014347
C14   C     C_R   0.234365 0.444559 0.932113 0.018254
C15   C     C_R   0.248679 0.909414 0.078944 0.016940
C16   C     C_R   0.734363 0.944569 0.932115 0.018163
C17   C     C_2   0.592303 0.341856 0.411740 0.551362
C18   C     C_2   0.510232 0.503881 0.566415 0.522133
C19   C     C_2   0.021320 0.994100 0.410799 0.549192
C20   C     C_2   0.945532 0.913786 0.584882 0.569327
C21   C     C_R   0.806328 0.960394 0.036963 0.009778
C22   C     C_R   0.780014 0.296409 0.974116 -0.147793
C23   C     C_R   0.182891 0.420597 0.049547 -0.157877
C24   C     C_R   0.280007 0.796423 0.974108 -0.148162
C25   C     C_R   0.682888 0.920569 0.049546 -0.157942
C26   C     C_R   0.784144 0.312371 0.047293 -0.159474
C27   C     C_R   0.175477 0.427493 0.976008 -0.149086
C28   C     C_R   0.284142 0.812396 0.047281 -0.159019
C29   C     C_R   0.272940 0.956667 0.146535 0.548845
C30   C     C_R   0.675477 0.927457 0.976005 -0.149248
C31   C     C_3   0.689809 0.608752 0.029912 -0.245190
C32   C     C_3   0.368198 0.419486 0.948835 -0.290206
C33   C     C_3   0.189877 0.108839 0.029888 -0.245325
C34   C     C_3   0.868206 0.919637 0.948844 -0.290989
C35   C     C_3   0.682923 0.587850 0.950589 -0.279250
C36   C     C_3   0.377129 0.404372 0.028472 -0.260951
C37   C     C_3   0.182990 0.087936 0.950565 -0.279778
C38   C     C_3   0.877136 0.904520 0.028482 -0.260128
C39   C     C_R   0.739204 0.375529 0.931821 0.021427
C40   C     C_R   0.224106 0.462627 0.856336 0.543712
C41   C     C_R   0.249913 0.425296 0.080050 0.011532
C42   C     C_R   0.239216 0.875567 0.931808 0.020794
C43   C     C_R   0.749906 0.925310 0.080053 0.012169
C44   C     C_R   0.477874 0.167969 0.432595 0.047014
C45   C     C_R   0.492976 0.172982 0.579009 0.024900
C46   C     C_R   0.008618 0.669055 0.420133 0.023151
C47   C     C_R   0.022136 0.672400 0.567084 0.055444
C48   C     C_R   0.481282 0.277355 0.468361 -0.040458
C49   C     C_R   0.487713 0.281865 0.540265 0.003203
C50   C     C_R   0.025403 0.776744 0.455447 0.015732
C51   C     C_R   0.772930 0.456640 0.146548 0.543531
C52   C     C_R   0.036117 0.777527 0.527309 -0.016533
C53   C     C_R   0.478771 0.061879 0.545302 -0.164307
C54   C     C_R   0.471948 0.059302 0.471417 -0.151671
C55   C     C_R   0.012802 0.561693 0.531732 -0.169409
C56   C     C_R   0.011146 0.559149 0.457682 -0.174005
C57   C     C_R   0.529890 0.177809 0.850684 0.549485
C58   C     C_R   0.469866 0.177470 0.149112 0.550872
C59   C     C_R   0.029882 0.677808 0.850677 0.555583
C60   C     C_R   0.969853 0.677471 0.149102 0.546735
C61   C     C_3   0.528971 0.381352 0.453691 -0.069021
C62   C     C_R   0.699752 0.474522 0.038125 0.015502
C63   C     C_3   0.538102 0.388186 0.533950 -0.052204
C64   C     C_3   0.988549 0.897725 0.456967 -0.052277
C65   C     C_3   0.007186 0.904113 0.535266 -0.061589
C66   C     C_R   0.756444 0.426950 0.426631 0.060068
C67   C     C_R   0.253166 0.389246 0.583774 0.014205
C68   C     C_R   0.247446 0.907193 0.420145 0.034441
C69   C     C_R   0.743417 0.924596 0.573853 0.058057
C70   C     C_R   0.795528 0.337585 0.461054 0.036727
C71   C     C_R   0.206818 0.311298 0.548008 0.020294
C72   C     C_R   0.280218 0.808986 0.453484 0.013658
C73   C     C_R   0.298171 0.472377 0.964129 0.007477
C74   C     C_R   0.700507 0.841657 0.538546 0.018909
C75   C     C_R   0.793791 0.327870 0.533772 0.039495
C76   C     C_R   0.214717 0.287173 0.476406 0.003635
C77   C     C_R   0.278925 0.799601 0.526411 0.028306
C78   C     C_R   0.702800 0.831973 0.465900 0.024612
C79   C     C_R   0.708430 0.488418 0.541161 -0.163620
C80   C     C_R   0.324419 0.393695 0.476237 -0.154740
C81   C     C_R   0.199456 0.967002 0.535233 -0.169048
C82   C     C_R   0.795503 0.980294 0.460050 -0.142395
C83   C     C_R   0.711677 0.501390 0.467278 -0.117372
C84   C     C_R   0.199785 0.974602 0.038104 0.015905
C85   C     C_R   0.316134 0.419200 0.549297 -0.155433
C86   C     C_R   0.201403 0.978410 0.461094 -0.130102
C87   C     C_R   0.791456 0.993513 0.533797 -0.096402
C88   C     C_3   0.872931 0.319043 0.459667 -0.269491
C89   C     C_3   0.129439 0.322702 0.540259 -0.261450
C90   C     C_3   0.353076 0.759355 0.449866 -0.253276
C91   C     C_3   0.622387 0.831701 0.539131 -0.266873
C92   C     C_3   0.871205 0.313162 0.539567 -0.270359
C93   C     C_3   0.138359 0.300945 0.461924 -0.269524
C94   C     C_3   0.352276 0.755597 0.530385 -0.253951
C95   C     C_R   0.798159 0.972444 0.964137 0.007161
C96   C     C_3   0.625056 0.823169 0.459151 -0.264510
C97   C     C_R   0.751402 0.402968 0.574881 0.023360
C98   C     C_R   0.270660 0.334408 0.437978 0.011167
C99   C     C_R   0.243467 0.883099 0.568971 0.018215
C100  C     C_R   0.748880 0.902033 0.425367 0.028824
C101  C     C_R   0.735804 0.354637 0.855795 0.545613
C102  C     C_R   0.261803 0.365113 0.147818 0.543496
C103  C     C_R   0.235811 0.854660 0.855788 0.545668
C104  C     C_R   0.761803 0.865114 0.147816 0.534221
C105  C     C_R   0.726346 0.959317 0.646022 0.560159
C106  C     C_R   0.694118 0.456101 0.965590 0.014167
C107  C     C_R   0.271545 0.954190 0.351932 0.551327
C108  C     C_R   0.228759 0.451990 0.648483 0.543013
C109  C     C_R   0.773952 0.460327 0.354317 0.543392
C110  C     C_R   0.528856 0.176926 0.645893 0.547377
C111  C     C_R   0.465194 0.175966 0.357785 0.563556
C112  C     C_R   0.034282 0.677053 0.642268 0.572164
C113  C     C_R   0.971353 0.676429 0.353992 0.559310
C114  C     C_R   0.740034 0.363320 0.647135 0.546509
C115  C     C_R   0.274140 0.312563 0.361012 0.554593
C116  C     C_R   0.238271 0.857516 0.644525 0.545216
Cr1   Cr    Cr6+3 0.769260 0.163750 0.750730 1.021269
Cr2   Cr    Cr6+3 0.385810 0.322400 0.252290 1.031551
Cr3   Cr    Cr6+3 0.114190 0.822400 0.747710 1.046438
Cr4   Cr    Cr6+3 0.885810 0.822400 0.252290 1.045941
Cr5   Cr    Cr6+3 0.230740 0.163750 0.249270 1.034712
Cr6   Cr    Cr6+3 0.269260 0.663750 0.750730 1.034684
Cr7   Cr    Cr6+3 0.730740 0.663750 0.249270 1.035071
Cr8   Cr    Cr6+3 0.612640 0.009910 0.748780 1.017527
Cr9   Cr    Cr6+3 0.387360 0.009910 0.251220 1.009683
Cr10  Cr    Cr6+3 0.112640 0.509910 0.748780 1.016877
Cr11  Cr    Cr6+3 0.887360 0.509910 0.251220 1.011895
Cr12  Cr    Cr6+3 0.614190 0.322400 0.747710 1.064904
H1    H     H_    0.459438 0.991172 0.059024 0.159313
H2    H     H_    0.370425 0.427107 0.449040 0.140811
H3    H     H_    0.166734 0.027435 0.566049 0.126791
H4    H     H_    0.834065 0.031546 0.430318 0.134555
H5    H     H_    0.680799 0.571329 0.442135 0.152957
H6    H     H_    0.356280 0.469071 0.577205 0.157114
H7    H     H_    0.172534 0.050775 0.436622 0.167190
H8    H     H_    0.824131 0.059935 0.559324 0.150518
H9    H     H_    0.900886 0.399756 0.439571 0.165936
H10   H     H_    0.112968 0.416134 0.552110 0.167430
H11   H     H_    0.392377 0.823263 0.428427 0.160699
H12   H     H_    0.511510 0.982488 0.935514 0.142795
H13   H     H_    0.596492 0.915956 0.557686 0.168900
H14   H     H_    0.886815 0.231850 0.434003 0.189209
H15   H     H_    0.100465 0.249069 0.568280 0.153218
H16   H     H_    0.354360 0.667358 0.425500 0.154253
H17   H     H_    0.605112 0.746823 0.565836 0.168516
H18   H     H_    0.888119 0.224313 0.561222 0.176128
H19   H     H_    0.112865 0.216508 0.444094 0.165116
H20   H     H_    0.355702 0.663134 0.552710 0.166302
H21   H     H_    0.606912 0.734037 0.438588 0.173289
H22   H     H_    0.895970 0.392721 0.565707 0.143358
H23   H     H_    0.959405 0.491177 0.059013 0.159544
H24   H     H_    0.126391 0.382351 0.428952 0.158635
H25   H     H_    0.387740 0.823483 0.555258 0.129536
H26   H     H_    0.601952 0.903493 0.431871 0.154289
H27   H     H_    0.528378 0.245359 0.056774 0.112982
H28   H     H_    0.482065 0.256191 0.945135 0.110101
H29   H     H_    0.028356 0.745356 0.056758 0.113374
H30   H     H_    0.982041 0.756189 0.945121 0.109478
H31   H     H_    0.811400 0.225320 0.950506 0.151468
H32   H     H_    0.137346 0.398127 0.081320 0.138678
H33   H     H_    0.311374 0.725304 0.950503 0.151571
H34   H     H_    0.011485 0.482485 0.935504 0.142499
H35   H     H_    0.637345 0.898064 0.081315 0.138666
H36   H     H_    0.820236 0.256628 0.077527 0.139451
H37   H     H_    0.123988 0.414889 0.953506 0.137160
H38   H     H_    0.320221 0.756633 0.077519 0.139949
H39   H     H_    0.623993 0.914807 0.953500 0.137206
H40   H     H_    0.237661 0.161345 0.043999 0.153395
H41   H     H_    0.904583 0.987700 0.925341 0.144841
H42   H     H_    0.737579 0.661297 0.044021 0.154431
H43   H     H_    0.404601 0.487503 0.925327 0.146699
H44   H     H_    0.640541 0.640850 0.055026 0.147541
H45   H     H_    0.931410 0.888527 0.447257 0.137703
H46   H     H_    0.364548 0.331841 0.919652 0.133819
H47   H     H_    0.140616 0.140977 0.054997 0.147636
H48   H     H_    0.864589 0.831995 0.919654 0.134927
H49   H     H_    0.629423 0.606391 0.930038 0.145424
H50   H     H_    0.378163 0.307471 0.045306 0.149304
H51   H     H_    0.129497 0.106520 0.930010 0.144391
H52   H     H_    0.878204 0.807619 0.045311 0.149773
H53   H     H_    0.726169 0.629294 0.919144 0.138485
H54   H     H_    0.419414 0.462307 0.050894 0.147213
H55   H     H_    0.226249 0.129341 0.919122 0.137277
H56   H     H_    0.048806 0.971503 0.547542 0.119272
H57   H     H_    0.919398 0.962498 0.050910 0.147086
H58   H     H_    0.479850 0.977210 0.574709 0.115750
H59   H     H_    0.466297 0.973307 0.444691 0.124249
H60   H     H_    0.005552 0.478345 0.561350 0.123002
H61   H     H_    0.004699 0.473420 0.430627 0.127204
H62   H     H_    0.643585 0.351840 0.318334 0.337169
H63   H     H_    0.487020 0.681006 0.553666 0.324555
H64   H     H_    0.016037 0.167411 0.376332 0.325051
H65   H     H_    0.901448 0.004509 0.666391 0.341901
H66   H     H_    0.500225 0.457927 0.428453 0.165328
H67   H     H_    0.591322 0.364476 0.552852 0.149366
H68   H     H_    0.672707 0.544180 0.571588 0.134408
O1    O     O_R   0.784290 0.290360 0.830540 -0.527259
O2    O     O_R   0.456020 0.282110 0.333230 -0.506478
O3    O     O_R   0.043980 0.782110 0.666770 -0.492447
O4    O     O_R   0.956020 0.782110 0.333230 -0.495422
O5    O     O_R   0.679070 0.374030 0.674430 -0.500810
O6    O     O_R   0.320930 0.374030 0.325570 -0.507175
O7    O     O_R   0.179070 0.874030 0.674430 -0.504986
O8    O     O_R   0.820930 0.874030 0.325570 -0.507004
O9    O     O_3   0.665360 0.165350 0.749070 -0.262300
O10   O     O_3   0.334640 0.165350 0.250930 -0.281256
O11   O     O_3   0.165360 0.665350 0.749070 -0.264453
O12   O     O_R   0.215710 0.290360 0.169460 -0.526683
O13   O     O_3   0.834640 0.665350 0.250930 -0.260049
O14   O     O_R   0.762610 0.041070 0.825230 -0.500893
O15   O     O_R   0.237390 0.041070 0.174770 -0.494503
O16   O     O_R   0.262610 0.541070 0.825230 -0.498226
O17   O     O_R   0.737390 0.541070 0.174770 -0.497050
O18   O     O_R   0.667390 0.924160 0.829970 -0.524520
O19   O     O_R   0.332610 0.924160 0.170030 -0.524263
O20   O     O_R   0.167390 0.424160 0.829970 -0.527385
O21   O     O_R   0.832610 0.424160 0.170030 -0.524880
O22   O     O_R   0.553980 0.081420 0.821780 -0.501637
O23   O     O_R   0.284290 0.790360 0.830540 -0.525809
O24   O     O_R   0.446020 0.081420 0.178220 -0.494611
O25   O     O_R   0.053980 0.581420 0.821780 -0.498441
O26   O     O_R   0.946020 0.581420 0.178220 -0.498439
O27   O     O_R   0.543210 0.283170 0.826740 -0.508346
O28   O     O_R   0.456790 0.283170 0.173260 -0.509178
O29   O     O_R   0.043210 0.783170 0.826740 -0.510659
O30   O     O_R   0.956790 0.783170 0.173260 -0.511166
O31   O     O_R   0.678350 0.375000 0.822720 -0.494403
O32   O     O_R   0.321650 0.375000 0.177280 -0.494992
O33   O     O_R   0.178350 0.875000 0.822720 -0.495845
O34   O     O_R   0.715710 0.790360 0.169460 -0.529664
O35   O     O_R   0.821650 0.875000 0.177280 -0.500091
O36   O     O_R   0.785060 0.289300 0.670580 -0.515834
O37   O     O_R   0.214940 0.289300 0.329420 -0.512792
O38   O     O_R   0.285060 0.789300 0.670580 -0.513294
O39   O     O_R   0.714940 0.789300 0.329420 -0.515579
O40   O     O_R   0.763330 0.040090 0.676940 -0.515104
O41   O     O_R   0.236670 0.040090 0.323060 -0.496985
O42   O     O_R   0.263330 0.540090 0.676940 -0.495901
O43   O     O_R   0.736670 0.540090 0.323060 -0.490307
O44   O     O_R   0.668160 0.923110 0.670000 -0.520947
O45   O     O_R   0.554690 0.080440 0.673480 -0.517065
O46   O     O_R   0.331840 0.923110 0.330000 -0.529096
O47   O     O_R   0.168160 0.423110 0.670000 -0.521607
O48   O     O_R   0.831840 0.423110 0.330000 -0.527631
O49   O     O_2   0.630281 0.260483 0.433796 -0.544794
O50   O     O_R   0.604070 0.393206 0.344807 -0.681411
O51   O     O_2   0.496622 0.507407 0.629871 -0.502412
O52   O     O_R   0.502281 0.608222 0.524714 -0.762879
O53   O     O_2   0.066087 0.967762 0.366982 -0.509431
O54   O     O_R   0.996097 0.112781 0.414829 -0.756101
O55   O     O_2   0.899864 0.835631 0.585205 -0.539680
O56   O     O_R   0.445310 0.080440 0.326520 -0.516268
O57   O     O_R   0.943093 0.010013 0.633195 -0.713463
O58   O     O_R   0.054690 0.580440 0.673480 -0.517886
O59   O     O_R   0.945310 0.580440 0.326520 -0.516521
O60   O     O_R   0.543980 0.282110 0.666770 -0.480444

loop_
_geom_bond_atom_site_label_1
_geom_bond_atom_site_label_2
_ccdc_geom_bond_type
C35   H49   S    
C7    C10   D    
C79   C83   A    
C55   C56   A    
C103  O33   A    
C113  O59   A    
Cr8   O9    S    
C39   C106  A    
C24   C42   A    
Cr9   O10   S    
C24   H33   S    
C115  O37   A    
C70   C88   S    
C42   C103  S    
C25   C43   A    
C90   H11   S    
C15   C28   A    
Cr10  O25   S    
C20   O57   S    
Cr6   O38   S    
Cr8   O18   S    
C53   C54   A    
C51   O21   A    
C107  O41   A    
C13   C84   A    
Cr11  O21   S    
C80   C85   A    
C5    C58   S    
Cr3   O3    S    
C32   C36   S    
Cr1   O14   S    
Cr2   O10   S    
C30   H39   S    
Cr1   O9    S    
C94   H25   S    
C111  O2    A    
C114  O36   A    
C71   C76   A    
C76   C93   S    
C9    H12   S    
C101  O1    A    
C67   C108  S    
C29   O19   A    
C31   H44   S    
C22   C39   A    
C2    C41   A    
C16   C30   A    
C47   C112  S    
C37   H55   S    
C115  O6    A    
C77   C94   S    
Cr4   O13   S    
C50   C64   S    
C41   C102  S    
Cr12  O27   S    
C93   H19   S    
C61   C63   S    
Cr5   O41   S    
C43   C104  S    
C22   C26   A    
C59   O25   A    
Cr11  O26   S    
C3    O39   A    
C66   C83   A    
C21   C43   A    
C58   O24   A    
C18   O51   D    
Cr11  O13   S    
C96   H26   S    
C21   C38   S    
C88   C92   S    
C78   C96   S    
C8    C9    S    
C4    C57   S    
C50   C52   A    
C107  O46   A    
C15   C29   S    
C68   C107  S    
C23   C27   A    
C14   C27   A    
C74   C78   A    
C19   C64   S    
C112  O3    A    
C13   C37   S    
C81   C86   A    
C69   C87   A    
C28   H38   S    
C85   H6    S    
C17   C61   S    
C51   O17   A    
C91   C96   S    
C45   C53   A    
Cr9   O19   S    
C60   O30   A    
C3    O8    A    
C31   C62   S    
Cr2   O6    S    
Cr5   O10   S    
C59   O29   A    
C3    C100  S    
Cr4   O35   S    
C88   H14   S    
C13   C42   A    
C6    H30   S    
C90   C94   S    
Cr7   O43   S    
C49   C63   S    
C109  O43   A    
C8    H1    S    
C94   H20   S    
C37   H51   S    
Cr8   O22   S    
C67   C85   A    
H62   O50   S    
Cr6   O23   S    
C92   H18   S    
C14   C73   A    
C24   C28   A    
C20   C65   S    
C69   C74   A    
C38   H52   S    
C34   C95   S    
C33   C84   S    
C10   C11   S    
C110  O60   A    
C6    C11   D    
C58   O28   A    
C45   C110  S    
C19   O53   D    
C20   O55   D    
C81   C99   A    
C109  O48   A    
Cr2   O32   S    
C111  O56   A    
C89   H15   S    
Cr2   O28   S    
C11   H34   S    
C33   C37   S    
C79   H68   S    
C12   C26   A    
H65   O57   S    
C74   C91   S    
C12   C62   A    
C53   H58   S    
C44   C111  S    
C34   H48   S    
C72   C77   A    
C44   C54   A    
C10   H23   S    
C112  O58   A    
C72   C90   S    
C64   H45   S    
C104  O34   A    
C71   C89   S    
C45   C49   A    
Cr10  O11   S    
C68   C72   A    
Cr6   O16   S    
C23   H32   S    
C40   O20   A    
C102  O32   A    
H63   O52   S    
C114  O5    A    
C36   H50   S    
Cr9   O46   S    
Cr10  O58   S    
C1    C16   S    
C55   H60   S    
C76   C98   A    
C44   C48   A    
C34   H41   S    
C108  O47   A    
C15   C84   A    
C2    C73   A    
Cr10  O20   S    
C75   C92   S    
C27   H37   S    
Cr8   O44   S    
Cr7   O39   S    
C68   C86   A    
C105  O44   A    
C48   C49   A    
C4    H28   S    
C32   H43   S    
C108  O42   A    
C89   H10   S    
Cr5   O37   S    
C54   H59   S    
Cr7   O17   S    
C92   H22   S    
Cr4   O8    S    
C105  O40   A    
C63   H67   S    
C33   H40   S    
C36   H54   S    
Cr12  O9    S    
C82   H4    S    
Cr2   O2    S    
Cr3   O7    S    
Cr4   O30   S    
C7    C60   S    
C91   H17   S    
C116  O7    A    
Cr1   O1    S    
Cr3   O29   S    
C47   C55   A    
C18   C63   S    
C57   O27   A    
C2    C36   S    
C25   C30   A    
C40   O16   A    
C56   H61   S    
C16   C95   A    
C69   C105  S    
C46   C113  S    
C80   C98   A    
C1    O14   A    
C34   C38   S    
C82   C100  A    
C6    C59   S    
C79   C97   A    
Cr9   O56   S    
Cr11  O48   S    
Cr6   O11   S    
C104  O35   A    
C80   H2    S    
C60   O26   A    
C5    C8    D    
Cr8   O45   S    
C19   O54   S    
C47   C52   A    
C62   C106  A    
C31   H42   S    
C35   H53   S    
C38   H57   S    
C21   C95   A    
C46   C50   A    
Cr1   O36   S    
C23   C41   A    
C39   C101  S    
C101  O31   A    
C64   C65   S    
C97   C114  S    
C35   C106  S    
C5    H27   S    
C22   H31   S    
C78   C100  A    
Cr10  O47   S    
C110  O45   A    
C98   C115  S    
Cr6   O42   S    
Cr7   O34   S    
C32   H46   S    
C17   O50   S    
C25   H35   S    
Cr12  O31   S    
H64   O54   S    
C96   H21   S    
Cr7   O13   S    
C31   C35   S    
C26   H36   S    
Cr12  O60   S    
C113  O4    A    
C77   C99   A    
C12   C51   S    
C67   C71   A    
Cr12  O5    S    
Cr5   O15   S    
C66   C109  S    
C89   C93   S    
C33   H47   S    
C29   O15   A    
C88   H9    S    
C83   H5    S    
C81   H3    S    
Cr11  O59   S    
C17   O49   D    
C14   C40   S    
Cr9   O24   S    
C18   O52   S    
C86   H7    S    
Cr4   O4    S    
Cr3   O11   S    
C66   C70   A    
C70   C75   A    
C7    H29   S    
C57   O22   A    
C116  O38   A    
C1    O18   A    
C75   C97   A    
C48   C61   S    
C87   H8    S    
C93   H24   S    
Cr5   O12   S    
C46   C56   A    
C4    C9    D    
Cr1   O40   S    
C102  O12   A    
C61   H66   S    
C32   C73   S    
C90   H16   S    
C52   C65   S    
C82   C87   A    
C99   C116  S    
C103  O23   A    
Cr3   O33   S    
C91   H13   S    
C65   H56   S    
