data_mof_unit_6475.cif
_audit_creation_date              2012-12-10T17:50:33-0500
_audit_creation_method            fapswitch 2.2
_symmetry_space_group_name_H-M    P1
_symmetry_Int_Tables_number       1
_space_group_crystal_system       triclinic
_cell_length_a                    15.718999
_cell_length_b                    10.680421
_cell_length_c                    9.999441
_cell_angle_alpha                 90.637016
_cell_angle_beta                  88.26955
_cell_angle_gamma                 92.523079
_cell_volume                      1676.28858797

loop_
_atom_site_label
_atom_site_type_symbol
_atom_type_description
_atom_site_fract_x
_atom_site_fract_y
_atom_site_fract_z
_atom_type_partial_charge
C1    C     C_R   0.498728 0.260742 0.499167 1.004800
C2    C     C_3   0.083056 0.520712 0.508882 -0.188837
C3    C     C_3   0.969436 0.620899 0.553960 0.300642
C4    C     C_3   0.916856 0.511753 0.490150 -0.161779
C5    C     C_3   0.032036 0.616090 0.433107 0.386786
C6    C     C_3   0.979086 0.507537 0.367433 -0.461229
C7    C     C_1   0.174019 0.516436 0.510653 0.164433
C8    C     C_1   0.826002 0.506553 0.488837 0.131457
C9    C     C_R   0.337419 0.119132 0.551267 0.483119
C10   C     C_R   0.264137 0.049471 0.590313 0.523385
C11   C     C_R   0.268218 0.923331 0.620216 0.284347
C12   C     C_R   0.338060 0.500813 0.501869 1.109801
C13   C     C_R   0.343728 0.862659 0.590485 0.401665
C14   C     C_R   0.418216 0.930067 0.543226 -0.228543
C15   C     C_R   0.416235 0.060951 0.531927 -0.199180
C16   C     C_R   0.492855 0.128075 0.496455 -0.061257
C17   C     C_R   0.567065 0.068600 0.460121 -0.296301
C18   C     C_R   0.567502 0.940340 0.461251 0.603929
C19   C     C_R   0.494398 0.871720 0.503800 -0.132466
C20   C     C_R   0.376773 0.343429 0.136187 0.642863
C21   C     C_R   0.311782 0.283941 0.065556 -0.376761
C22   C     C_R   0.308877 0.294819 0.927803 0.380559
C23   C     C_R   0.499179 0.739293 0.500941 1.035620
C24   C     C_R   0.377382 0.354622 0.860685 -0.175891
C25   C     C_R   0.439765 0.427084 0.928648 -0.079770
C26   C     C_R   0.439749 0.424919 0.072631 -0.003018
C27   C     C_R   0.557053 0.570995 0.069767 -0.218983
C28   C     C_R   0.558891 0.569096 0.926137 0.554764
C29   C     C_R   0.661720 0.500339 0.498006 0.884564
C30   C     C_3   0.966916 0.415661 0.564998 0.473092
C31   C     C_3   0.030092 0.412616 0.445002 0.589992
C32   C     C_1   0.249133 0.508969 0.507175 -0.025547
C33   C     C_1   0.750655 0.503052 0.492573 -0.152184
C34   C     C_3   0.019174 0.524165 0.628830 0.203432
H1    H     H_    0.602338 0.630620 0.122746 0.172985
H2    H     H_    0.264935 0.224643 0.119078 0.206187
H3    H     H_    0.379769 0.342114 0.755305 0.254507
H4    H     H_    0.959699 0.497423 0.262353 0.192265
H5    H     H_    0.624869 0.122066 0.431293 0.164276
N1    N     N_R   0.499210 0.498800 0.142780 -0.121540
N2    N     N_R   0.499180 0.498720 0.857170 -0.132740
O1    O     O_R   0.500000 0.316780 0.614690 -0.657007
O2    O     O_R   0.499990 0.316750 0.385360 -0.540543
O3    O     O_R   0.376780 0.500000 0.614650 -0.606228
O4    O     O_R   0.376770 0.499980 0.385310 -0.570399
O5    O     O_R   0.500010 0.683250 0.614640 -0.546192
O6    O     O_R   0.500000 0.683220 0.385310 -0.622640
O7    O     O_R   0.623230 0.500020 0.614690 -0.602289
O8    O     O_R   0.623220 0.500000 0.385350 -0.624710
Zn1   Zn    Zn3+2 0.500010 0.500020 0.653130 1.031612
Zn2   Zn    Zn3+2 0.499990 0.499980 0.346870 1.034192
F1    F     F_    0.063536 0.304934 0.390993 -0.609633
O9    O     O_3   0.194888 0.857014 0.663107 -0.572569
C35   C     C_3   0.204354 0.810106 0.793763 0.159440
H6    H     H_    0.270673 0.787439 0.817530 0.178107
H7    H     H_    0.165673 0.721005 0.802786 0.201719
C36   C     C_3   0.171702 0.901882 0.898891 -0.920999
H8    H     H_    0.103926 0.920352 0.882845 0.253120
H9    H     H_    0.177157 0.861191 0.999681 0.226435
H10   H     H_    0.210322 0.991257 0.894239 0.294281
F2    F     F_    0.342137 0.738035 0.607952 -0.694783
F3    F     F_    0.640012 0.882632 0.424095 -0.671188
F4    F     F_    0.376302 0.309769 0.264028 -0.602403
O10   O     O_3   0.243601 0.238698 0.855165 -0.585015
C37   C     C_3   0.164380 0.282341 0.902917 0.058079
H11   H     H_    0.165631 0.386768 0.908616 0.175777
H12   H     H_    0.146726 0.242897 0.002855 0.146054
C38   C     C_3   0.094938 0.239163 0.808795 -0.540810
H13   H     H_    0.094479 0.135994 0.797442 0.260798
H14   H     H_    0.032001 0.264705 0.850960 0.193702
H15   H     H_    0.105955 0.283691 0.709649 0.308704
O11   O     O_3   0.616279 0.646260 0.854064 -0.579915
C39   C     C_3   0.701713 0.623928 0.885282 0.099886
H16   H     H_    0.736317 0.597560 0.791410 0.191851
H17   H     H_    0.709506 0.545985 0.956761 0.101578
C40   C     C_3   0.744780 0.743707 0.939387 -0.820293
H18   H     H_    0.713179 0.772437 0.034889 0.258410
H19   H     H_    0.812827 0.728032 0.957580 0.205049
H20   H     H_    0.740992 0.820201 0.865770 0.278071
F5    F     F_    0.930871 0.311064 0.628645 -0.663535
O12   O     O_3   0.073367 0.720397 0.369912 -0.582328
C41   C     C_3   0.013639 0.788205 0.301051 0.072642
H21   H     H_    0.953372 0.800126 0.360300 0.187948
H22   H     H_    0.998355 0.739659 0.205756 0.152091
C42   C     C_3   0.052044 0.918225 0.269923 -0.721763
H23   H     H_    0.113466 0.910848 0.213439 0.251505
H24   H     H_    0.007680 0.970173 0.208944 0.211728
H25   H     H_    0.063545 0.971172 0.364380 0.295459
O13   O     O_3   0.926368 0.725164 0.605005 -0.625746
C43   C     C_3   0.984789 0.814103 0.658969 0.122320
H26   H     H_    0.033595 0.846193 0.582869 0.233762
H27   H     H_    0.016600 0.775107 0.745821 0.179160
C44   C     C_3   0.936581 0.927261 0.706756 -0.741834
H28   H     H_    0.888394 0.898959 0.785320 0.239846
H29   H     H_    0.981306 0.998976 0.749234 0.220877
H30   H     H_    0.904131 0.968682 0.621693 0.289002
O14   O     O_3   0.044708 0.533201 0.762476 -0.621425
C45   C     C_3   0.971857 0.529721 0.848631 0.116333
H31   H     H_    0.943018 0.433108 0.854648 0.190485
H32   H     H_    0.922352 0.593212 0.816186 0.170151
C46   C     C_3   0.997742 0.571955 0.987229 -0.900415
H33   H     H_    0.031216 0.665622 0.981889 0.260237
H34   H     H_    0.939710 0.578549 0.052419 0.204812
H35   H     H_    0.040665 0.503951 0.030017 0.266298
F6    F     F_    0.329002 0.241657 0.525508 -0.634294
F7    F     F_    0.188249 0.104573 0.596606 -0.596011

loop_
_geom_bond_atom_site_label_1
_geom_bond_atom_site_label_2
_ccdc_geom_bond_type
C44   H28   S    
C39   H16   S    
C2    C7    S    
C40   H20   S    
C31   F1    S    
C4    C8    S    
C26   N1    A    
O8    Zn2   S    
O12   C41   S    
C36   H8    S    
C21   H2    S    
C29   O8    A    
O9    C35   S    
C46   H33   S    
C41   C42   S    
C40   H19   S    
C5    C6    S    
C36   H9    S    
O4    Zn2   S    
C9    F6    S    
C15   C16   A    
C45   H31   S    
C29   C33   S    
C28   N2    A    
C34   O14   S    
C18   C19   A    
C17   H5    S    
C38   H13   S    
C1    O2    A    
C16   C17   A    
C37   H12   S    
C6    H4    S    
C9    C10   A    
C11   O9    S    
C30   F5    S    
C2    C34   S    
O7    Zn1   S    
C6    C31   S    
C44   H29   S    
C23   O5    A    
C21   C22   A    
C12   C32   S    
C39   H17   S    
C28   O11   S    
O14   C45   S    
C42   H24   S    
C35   H7    S    
C23   O6    A    
C30   C34   S    
C29   O7    A    
C24   C25   A    
C4    C6    S    
C25   N2    A    
C18   F3    S    
C36   H10   S    
O6    Zn2   S    
C3    C34   S    
C27   H1    S    
C25   C26   A    
C42   H23   S    
C2    C31   S    
C19   C23   S    
C5    O12   S    
C43   H27   S    
C27   N1    A    
C37   C38   S    
C17   C18   A    
C1    C16   S    
C40   H18   S    
O1    Zn1   S    
C38   H14   S    
C37   H11   S    
C46   H35   S    
C41   H22   S    
C39   C40   S    
C22   C24   A    
C10   F7    S    
C2    C5    S    
C3    C4    S    
C45   C46   S    
N2    Zn1   S    
C43   C44   S    
C42   H25   S    
O3    Zn1   S    
C24   H3    S    
C35   H6    S    
C7    C32   T    
C14   C19   A    
O11   C39   S    
C3    C5    S    
C12   O4    A    
C44   H30   S    
N1    Zn2   S    
O5    Zn1   S    
C45   H32   S    
C3    O13   S    
O10   C37   S    
C20   F4    S    
C9    C15   A    
C12   O3    A    
C11   C13   A    
O2    Zn2   S    
C43   H26   S    
C30   C31   S    
C20   C26   A    
C38   H15   S    
C8    C33   T    
C10   C11   A    
C22   O10   S    
C1    O1    A    
C13   F2    S    
C20   C21   A    
C46   H34   S    
C41   H21   S    
C27   C28   A    
C14   C15   A    
O13   C43   S    
C13   C14   A    
C4    C30   S    
C35   C36   S    
