data_mof_unit_61158.cif
_audit_creation_date              2012-12-11T14:47:36-0500
_audit_creation_method            fapswitch 2.2
_symmetry_space_group_name_H-M    P1
_symmetry_Int_Tables_number       1
_space_group_crystal_system       triclinic
_cell_length_a                    19.496552
_cell_length_b                    6.972367
_cell_length_c                    19.381066
_cell_angle_alpha                 90.0
_cell_angle_beta                  95.991401
_cell_angle_gamma                 90.00002
_cell_volume                      2620.21486572

loop_
_atom_site_label
_atom_site_type_symbol
_atom_type_description
_atom_site_fract_x
_atom_site_fract_y
_atom_site_fract_z
_atom_type_partial_charge
O1    O     O_R   0.673510 0.377480 0.186100 -0.535227
O2    O     O_R   0.326490 0.622520 0.813900 -0.535227
O3    O     O_R   0.826490 0.877480 0.313900 -0.535226
O4    O     O_R   0.173510 0.122520 0.686100 -0.535226
O5    O     O_R   0.807790 0.705750 0.184090 -0.523494
O6    O     O_R   0.192210 0.294250 0.815910 -0.523494
O7    O     O_R   0.692210 0.205750 0.315910 -0.523494
O8    O     O_R   0.307790 0.794250 0.684090 -0.523494
C1    C     C_1   0.478147 0.994540 0.521213 0.008966
C2    C     C_1   0.521853 0.005460 0.478787 0.008966
C3    C     C_1   0.021853 0.494540 0.978787 0.008966
C4    C     C_1   0.978147 0.505460 0.021213 0.008966
C5    C     C_R   0.830866 0.538257 0.166267 0.721947
C6    C     C_R   0.169134 0.461743 0.833733 0.721947
C7    C     C_R   0.669134 0.038257 0.333733 0.721948
C8    C     C_R   0.330866 0.961743 0.666267 0.721948
O9    O     O_R   0.672870 0.707110 0.178120 -0.536162
O10   O     O_R   0.327130 0.292890 0.821880 -0.536162
O11   O     O_R   0.827130 0.207110 0.321880 -0.536162
O12   O     O_R   0.172870 0.792890 0.678120 -0.536162
O13   O     O_R   0.690610 0.878650 0.307880 -0.523397
O14   O     O_R   0.309390 0.121350 0.692120 -0.523397
O15   O     O_R   0.809390 0.378650 0.192120 -0.523397
O16   O     O_R   0.190610 0.621350 0.807880 -0.523397
C9    C     C_R   0.647565 0.539724 0.161018 0.708791
C10   C     C_R   0.352435 0.460276 0.838982 0.708791
C11   C     C_R   0.852435 0.039724 0.338981 0.708790
C12   C     C_R   0.147565 0.960276 0.661018 0.708790
C13   C     C_1   0.382877 0.971811 0.614254 -0.205882
C14   C     C_1   0.617123 0.028189 0.385746 -0.205882
C15   C     C_1   0.117123 0.471811 0.885746 -0.205883
C16   C     C_1   0.882877 0.528189 0.114254 -0.205883
O17   O     O_3   0.755980 0.544260 0.292580 -0.359968
O18   O     O_3   0.244020 0.455740 0.707420 -0.359968
O19   O     O_3   0.744020 0.044260 0.207420 -0.359968
O20   O     O_3   0.255980 0.955740 0.792580 -0.359968
V1    V     V_3+5 0.748890 0.818640 0.242100 1.426497
V2    V     V_3+5 0.251110 0.181360 0.757900 1.426497
V3    V     V_3+5 0.751110 0.318640 0.257900 1.426497
V4    V     V_3+5 0.248890 0.681360 0.742100 1.426497
C17   C     C_R   0.086542 0.957840 0.607757 -0.080126
C18   C     C_R   0.913458 0.042160 0.392242 -0.080125
C19   C     C_R   0.413458 0.457841 0.892242 -0.080125
C20   C     C_R   0.586542 0.542159 0.107758 -0.080125
C21   C     C_1   0.426369 0.981808 0.571581 0.010306
C22   C     C_1   0.573631 0.018192 0.428418 0.010306
C23   C     C_1   0.073630 0.481808 0.928418 0.010306
C24   C     C_1   0.926369 0.518192 0.071582 0.010306
C25   C     C_R   0.011887 0.221568 0.448570 -0.023443
C26   C     C_R   0.988113 0.778432 0.551430 -0.023443
C27   C     C_R   0.488112 0.721567 0.051430 -0.023442
C28   C     C_R   0.511888 0.278433 0.948570 -0.023442
C29   C     C_R   0.957979 0.201297 0.395398 -0.175860
C30   C     C_R   0.042021 0.798703 0.604602 -0.175860
C31   C     C_R   0.542020 0.701296 0.104602 -0.175860
C32   C     C_R   0.457980 0.298704 0.895398 -0.175860
C33   C     C_R   0.924425 0.899750 0.443276 -0.214261
C34   C     C_R   0.075575 0.100250 0.556724 -0.214261
C35   C     C_R   0.575576 0.399751 0.056723 -0.214261
C36   C     C_R   0.424424 0.600249 0.943277 -0.214261
C37   C     C_R   0.977910 0.918325 0.498538 0.114091
C38   C     C_R   0.022090 0.081675 0.501462 0.114091
C39   C     C_R   0.522090 0.418326 0.001462 0.114091
C40   C     C_R   0.477910 0.581674 0.998538 0.114091
H1    H     H_    0.110379 0.221660 0.559101 0.133457
H2    H     H_    0.889620 0.778340 0.440899 0.133457
H3    H     H_    0.389620 0.721658 0.940899 0.133457
H4    H     H_    0.610380 0.278342 0.059100 0.133457
H5    H     H_    0.049679 0.687699 0.643878 0.124155
H6    H     H_    0.950320 0.312301 0.356122 0.124155
H7    H     H_    0.450321 0.187701 0.856121 0.124155
H8    H     H_    0.549679 0.812299 0.143879 0.124155
C41   C     C_1   0.055342 0.389439 0.447670 0.276675
N1    N     N_1   0.090077 0.523876 0.446913 -0.347067
C42   C     C_1   0.944657 0.610561 0.552330 0.276675
N2    N     N_1   0.909922 0.476124 0.553087 -0.347067
C43   C     C_1   0.444658 0.889440 0.052330 0.276676
N3    N     N_1   0.409923 0.023877 0.053086 -0.347067
C44   C     C_1   0.555342 0.110560 0.947670 0.276676
N4    N     N_1   0.590077 0.976123 0.946914 -0.347067

loop_
_geom_bond_atom_site_label_1
_geom_bond_atom_site_label_2
_ccdc_geom_bond_type
C34   C38   A    
C1    C21   S    
O5    V1    S    
C41   N1    T    
C5    C16   S    
C3    C23   S    
O10   C10   A    
C6    C15   S    
C4    C24   S    
C43   N3    T    
C5    O15   A    
C26   C30   A    
C20   C31   A    
O19   V1    S    
C17   C34   A    
C18   C29   A    
O12   V4    S    
O15   V3    S    
C20   C35   A    
O14   V2    S    
C12   C17   S    
C9    C20   S    
C6    O16   A    
O17   V3    S    
C36   H3    S    
C2    C22   S    
O6    V2    S    
C28   C44   S    
O11   C11   A    
C1    C2    T    
C33   H2    S    
O5    C5    A    
C31   H8    S    
O7    C7    A    
O8    C8    A    
C15   C23   T    
O1    C9    A    
C16   C24   T    
C29   H6    S    
C18   C33   A    
O4    C12   A    
C10   C19   S    
O20   V4    S    
O12   C12   A    
C8    C13   S    
O17   V1    S    
C39   C40   A    
C13   C21   T    
O19   V3    S    
C42   N2    T    
C27   C43   S    
C35   H4    S    
O6    C6    A    
C34   H1    S    
C32   H7    S    
O2    C10   A    
O9    V1    S    
O11   V3    S    
C19   C36   A    
O4    V2    S    
C25   C41   S    
C7    C14   S    
C8    O14   A    
C25   C38   A    
O18   V2    S    
C14   C22   T    
C27   C40   A    
C28   C39   A    
C3    C4    T    
C33   C37   A    
C35   C39   A    
C36   C40   A    
O9    C9    A    
O20   V2    S    
O10   V2    S    
C26   C42   S    
C11   C18   S    
C30   H5    S    
C25   C29   A    
O3    C11   A    
O16   V4    S    
C27   C31   A    
C37   C38   A    
C17   C30   A    
O1    V3    S    
C44   N4    T    
O2    V4    S    
C19   C32   A    
C7    O13   A    
O13   V1    S    
O3    V1    S    
C26   C37   A    
O7    V3    S    
O18   V4    S    
O8    V4    S    
C28   C32   A    
