data_mof_unit_26477.cif
_audit_creation_date              2013-03-05T15:42:32-0500
_audit_creation_method            fapswitch 2.2
_symmetry_space_group_name_H-M    P1
_symmetry_Int_Tables_number       1
_space_group_crystal_system       triclinic
_cell_length_a                    6.982159
_cell_length_b                    14.752439
_cell_length_c                    16.228054
_cell_angle_alpha                 90.438937
_cell_angle_beta                  90.053434
_cell_angle_gamma                 90.161204
_cell_volume                      1671.49601378

loop_
_atom_site_label
_atom_site_type_symbol
_atom_site_description
_atom_site_fract_x
_atom_site_fract_y
_atom_site_fract_z
_atom_type_partial_charge
O1    O     O_R   0.494490 0.416160 0.413410 -0.561859
O2    O     O_R   0.823830 0.407240 0.585990 -0.563414
O3    O     O_R   0.994160 0.583840 0.586590 -0.523915
C1    C     C_R   0.654613 0.385673 0.613897 0.860801
O4    O     O_R   0.824200 0.405280 0.414020 -0.575457
O5    O     O_R   0.994530 0.581860 0.413390 -0.575435
C2    C     C_R   0.654384 0.381089 0.387601 0.771269
O6    O     O_R   0.494110 0.418140 0.586610 -0.557037
O7    O     O_3   0.660810 0.557940 0.500000 -0.248523
V1    V     V_3+5 0.935650 0.489250 0.500000 1.188683
O8    O     O_R   0.324250 0.592760 0.414010 -0.514842
C3    C     C_R   0.156547 0.610850 0.383220 0.759690
O9    O     O_R   0.323880 0.594720 0.585980 -0.558543
C4    C     C_R   0.155444 0.614011 0.616374 0.899005
V2    V     V_3+5 0.435660 0.510750 0.500000 1.222411
O10   O     O_3   0.160630 0.442060 0.500000 -0.290528
C5    C     C_3   0.971707 0.665221 0.743955 0.243939
H1    H     H_    0.992046 0.597444 0.772075 0.189943
C6    C     C_3   0.963392 0.738452 0.813041 0.124246
H2    H     H_    0.827982 0.773355 0.804586 0.182476
H3    H     H_    0.019101 0.780378 0.599030 0.143200
C7    C     C_3   0.130550 0.780772 0.647731 -0.326242
C8    C     C_3   0.327036 0.681334 0.740270 0.192677
C9    C     C_3   0.144513 0.683934 0.685611 -0.216717
H4    H     H_    0.451459 0.687375 0.698545 0.167096
C10   C     C_3   0.124490 0.812581 0.803715 -0.373900
C11   C     C_3   0.098259 0.858896 0.714568 0.508454
C12   C     C_3   0.323668 0.761315 0.804270 0.172693
H5    H     H_    0.346939 0.733136 0.866771 0.155784
H6    H     H_    0.265552 0.792524 0.613168 0.166862
C13   C     C_2   0.995632 0.710054 0.282035 -0.088793
C14   C     C_2   0.154345 0.664133 0.305646 0.236920
H7    H     H_    0.866281 0.705375 0.318817 0.117945
C15   C     C_2   0.985332 0.767616 0.206887 0.023057
C16   C     C_2   0.122356 0.828509 0.187202 0.288453
H8    H     H_    0.857337 0.761852 0.169104 0.104814
C17   C     C_2   0.778983 0.206292 0.779405 -0.041067
C18   C     C_2   0.614638 0.175920 0.813164 -0.146842
H9    H     H_    0.914577 0.179694 0.801276 0.123901
H10   H     H_    0.477132 0.200308 0.792124 0.083150
C19   C     C_2   0.790486 0.274894 0.712554 -0.064852
C20   C     C_2   0.638493 0.318270 0.680405 -0.180828
H11   H     H_    0.932784 0.290176 0.689420 0.110474
H12   H     H_    0.495116 0.304860 0.702553 0.083393
C21   C     C_2   0.775108 0.212154 0.209780 -0.039385
C22   C     C_2   0.614039 0.184428 0.170976 -0.155346
H13   H     H_    0.911673 0.183099 0.191767 0.093465
H14   H     H_    0.478913 0.217514 0.184112 0.142894
C23   C     C_2   0.780158 0.286471 0.272985 -0.038874
C24   C     C_2   0.637438 0.304703 0.326928 0.253599
H15   H     H_    0.911777 0.325747 0.276589 0.056603
O11   O     O_R   0.770850 0.076180 0.907410 -0.549144
O12   O     O_R   0.440600 0.088970 0.079950 -0.578809
O13   O     O_R   0.270430 0.912340 0.080550 -0.561124
C25   C     C_R   0.609475 0.112086 0.107189 0.784159
O14   O     O_R   0.441120 0.087010 0.907980 -0.544862
O15   O     O_R   0.270950 0.910370 0.907350 -0.500814
C26   C     C_R   0.609784 0.108438 0.879935 0.918112
O16   O     O_R   0.770320 0.078150 0.080620 -0.578242
O17   O     O_3   0.604200 0.936340 0.994000 -0.217059
V3    V     V_3+5 0.329300 0.004970 0.993950 1.241643
O18   O     O_R   0.941240 0.899420 0.907920 -0.487320
C27   C     C_R   0.110481 0.879972 0.876891 0.967072
O19   O     O_R   0.940720 0.901380 0.079890 -0.572121
C28   C     C_R   0.109245 0.883657 0.110797 0.766554
V4    V     V_3+5 0.829310 0.983370 0.993880 1.271413
O20   O     O_3   0.104280 0.052120 0.993920 -0.302764
O21   O     O_3   0.796185 0.659612 0.701687 -0.730579
H16   H     H_    0.778938 0.716142 0.670179 0.340559
N1    N     N_R   0.483309 0.823367 0.788389 0.077792
O22   O     O_R   0.579125 0.858006 0.849474 -0.283039
O23   O     O_R   0.543058 0.837815 0.713861 -0.327413
N2    N     N_R   0.234874 0.934011 0.700591 0.150004
O24   O     O_R   0.282492 0.954821 0.625461 -0.272949
O25   O     O_R   0.258596 0.996275 0.756896 -0.329338
N3    N     N_R   0.318339 0.657905 0.251767 0.116502
O26   O     O_R   0.491211 0.661539 0.281600 -0.337148
O27   O     O_R   0.295226 0.640008 0.173712 -0.321059
O28   O     O_3   0.273207 0.842016 0.241505 -0.685809
H17   H     H_    0.352162 0.893697 0.222591 0.316264
O29   O     O_3   0.477013 0.249346 0.327638 -0.730349
H18   H     H_    0.394601 0.266323 0.374906 0.320535
N4    N     N_R   0.958306 0.697160 0.895344 0.074797
O30   O     O_R   0.811221 0.710886 0.942982 -0.305921
O31   O     O_R   0.089219 0.640260 0.918728 -0.326134
N5    N     N_R   0.907158 0.899410 0.703976 0.101259
O32   O     O_R   0.839005 0.908595 0.629744 -0.280472
O33   O     O_R   0.846899 0.957070 0.759034 -0.292274
O34   O     O_3   0.342594 0.597497 0.780477 -0.708505
H19   H     H_    0.475163 0.593956 0.802435 0.351088

loop_
_geom_bond_atom_site_label_1
_geom_bond_atom_site_label_2
_geom_bond_distance
_ccdc_geom_bond_type
C25   O16   1.303278 A    
N2    O25   1.300798 A    
C19   C20   1.347510 D    
C6    H2    1.086932 S    
C1    O6    1.298733 A    
O29   H18   0.990419 S    
O13   C28   1.299260 A    
C21   C22   1.349344 D    
C10   C11   1.615126 S    
O18   C27   1.316441 A    
C12   H5    1.111072 S    
N3    O27   1.301730 A    
O16   V4    2.019966 S    
O5    C3    1.305298 A    
N5    O33   1.299982 A    
C16   C28   1.491082 S    
V2    O10   2.168752 S    
C15   C16   1.350722 D    
N2    O24   1.302757 A    
C4    C9    1.521567 S    
C6    C10   1.574793 S    
C18   C26   1.477410 S    
O8    V2    2.011280 S    
C13   C14   1.356902 D    
O21   H16   0.989140 S    
C23   H15   1.086307 S    
C22   C25   1.481318 S    
C8    C9    1.552757 S    
C8    O34   1.407208 S    
N1    O22   1.296309 A    
O1    V2    2.016129 S    
O7    V1    2.172620 S    
C11   N2    1.479036 S    
C21   H13   1.085946 S    
V4    O20   2.168789 S    
O17   V4    1.716296 S    
H3    C7    1.108572 S    
C3    C14   1.489319 S    
C19   H11   1.086109 S    
C20   H12   1.082178 S    
C6    N4    1.472625 S    
O15   C27   1.301352 A    
O12   C25   1.302483 A    
C22   H14   1.084065 S    
C5    C9    1.559710 S    
O18   V4    2.017796 S    
N3    O26   1.300883 A    
O4    C2    1.308184 A    
N5    O32   1.302967 A    
O17   V3    2.172578 S    
O19   V4    2.011327 S    
C11   N5    1.474025 S    
O2    C1    1.305127 A    
C10   C27   1.546209 S    
O5    V1    2.009572 S    
C17   C18   1.348949 D    
V3    O20   1.720005 S    
N4    O30   1.301373 A    
C21   C23   1.495907 S    
C13   H7    1.085364 S    
C5    H1    1.111680 S    
C13   C15   1.493164 S    
C8    C12   1.566158 S    
O3    C4    1.301048 A    
O11   C26   1.302028 A    
N4    O31   1.301025 A    
O6    V2    2.009992 S    
C7    C11   1.593217 S    
O9    V2    2.017790 S    
C7    C9    1.562824 S    
O12   V3    2.013289 S    
O2    V1    2.010760 S    
O11   V4    2.010434 S    
C5    O21   1.405783 S    
C7    H6    1.111174 S    
O1    C2    1.300101 A    
C12   N1    1.464658 S    
C2    C24   1.495103 S    
C14   N3    1.444040 S    
O8    C3    1.301794 A    
O15   V3    2.013533 S    
O13   V3    2.009647 S    
C10   C12   1.584960 S    
O19   C28   1.306565 A    
O7    V2    1.717492 S    
O4    V1    2.013199 S    
C17   H9    1.086207 S    
O3    V1    2.013542 S    
V1    O10   1.719989 S    
C18   H10   1.082125 S    
C1    C20   1.477282 S    
C16   O28   1.385650 S    
C5    C6    1.552219 S    
O14   C26   1.301923 A    
C15   H8    1.086092 S    
C8    H4    1.105767 S    
C17   C19   1.491352 S    
O28   H17   0.990421 S    
C23   C24   1.353218 D    
O14   V3    2.010803 S    
N1    O23   1.298702 A    
O34   H19   0.993183 S    
O9    C4    1.306969 A    
C24   O29   1.384452 S    
