data_mof_unit_36898.cif
_audit_creation_date              2013-03-05T15:40:55-0500
_audit_creation_method            fapswitch 2.2
_symmetry_space_group_name_H-M    P1
_symmetry_Int_Tables_number       1
_space_group_crystal_system       triclinic
_cell_length_a                    11.958481
_cell_length_b                    11.984678
_cell_length_c                    19.571102
_cell_angle_alpha                 89.984697
_cell_angle_beta                  90.207149
_cell_angle_gamma                 120.050278
_cell_volume                      2427.86491749

loop_
_atom_site_label
_atom_site_type_symbol
_atom_site_description
_atom_site_fract_x
_atom_site_fract_y
_atom_site_fract_z
_atom_type_partial_charge
O1    O     O_R   0.434830 0.101190 0.575190 -0.507305
O2    O     O_R   0.898810 0.333640 0.575190 -0.508499
O3    O     O_R   0.666360 0.565170 0.575190 -0.508356
O4    O     O_R   0.480130 0.360720 0.570290 -0.505578
O5    O     O_R   0.639280 0.119410 0.570290 -0.502276
O6    O     O_R   0.880590 0.519870 0.570290 -0.500667
C1    C     C_R   0.554275 0.474886 0.598066 0.526938
C2    C     C_R   0.525218 0.079322 0.598062 0.529056
C3    C     C_R   0.920847 0.445851 0.597992 0.529270
O7    O     O_R   0.439410 0.104260 0.424150 -0.489695
O8    O     O_R   0.895740 0.335150 0.424150 -0.490057
O9    O     O_R   0.664850 0.560590 0.424150 -0.496114
O10   O     O_R   0.484380 0.363570 0.430280 -0.507235
O11   O     O_R   0.636430 0.120810 0.430280 -0.506697
O12   O     O_R   0.879190 0.515620 0.430280 -0.499864
C4    C     C_R   0.550383 0.479537 0.405956 0.567715
C5    C     C_R   0.521399 0.074165 0.404651 0.555195
C6    C     C_R   0.921494 0.444980 0.402893 0.557060
Cr1   Cr    Cr6+3 0.468420 0.238090 0.499960 1.037728
Cr2   Cr    Cr6+3 0.761910 0.230330 0.499960 1.040751
Cr3   Cr    Cr6+3 0.769670 0.531580 0.499960 1.045387
O13   O     O_3   0.666667 0.333333 0.499980 -0.290275
C7    C     C_1   0.035689 0.514859 0.858534 0.009638
C8    C     C_1   0.484725 0.520785 0.858497 0.004607
C9    C     C_1   0.478878 0.964046 0.858544 0.004952
C10   C     C_1   0.991709 0.493298 0.726956 -0.027855
C11   C     C_1   0.506784 0.498335 0.726946 -0.027142
C12   C     C_1   0.501943 0.008522 0.726995 -0.027087
C13   C     C_1   0.013248 0.505804 0.798125 -0.029392
C14   C     C_1   0.493935 0.507399 0.798112 -0.029794
C15   C     C_1   0.492470 0.986651 0.798171 -0.029824
C16   C     C_1   0.967273 0.476739 0.666812 0.009522
C17   C     C_1   0.523499 0.490434 0.666849 0.009655
C18   C     C_1   0.510015 0.033082 0.666871 0.009442
C19   C     C_2   0.989664 0.480513 0.338051 0.254730
C20   C     C_2   0.499012 0.521587 0.350108 0.274121
C21   C     C_2   0.479380 0.983745 0.348051 0.250873
C22   C     C_2   0.995465 0.485275 0.182709 0.261121
C23   C     C_2   0.479494 0.548605 0.197966 0.199105
C24   C     C_2   0.453437 0.939418 0.195755 0.266496
C25   C     C_2   0.011851 0.403619 0.224653 0.264307
C26   C     C_2   0.539817 0.643814 0.244582 0.239166
C27   C     C_2   0.358723 0.903488 0.242417 0.246370
C28   C     C_2   0.971404 0.382677 0.295545 0.276250
C29   C     C_2   0.583479 0.619697 0.309488 0.303037
C30   C     C_2   0.383256 0.972880 0.306501 0.279938
O14   O     O_R   0.548200 0.655360 0.951320 -0.499378
O15   O     O_R   0.344640 0.892840 0.951320 -0.497066
O16   O     O_R   0.107160 0.451800 0.951320 -0.503761
O17   O     O_R   0.505020 0.871000 0.955840 -0.490461
O18   O     O_R   0.129000 0.634020 0.955840 -0.497521
O19   O     O_R   0.365980 0.494980 0.955840 -0.486638
C31   C     C_R   0.450481 0.922377 0.928180 0.583054
C32   C     C_R   0.077473 0.528053 0.928192 0.564603
C33   C     C_R   0.471804 0.549445 0.928163 0.581968
O20   O     O_R   0.543640 0.655270 0.102360 -0.494242
O21   O     O_R   0.344730 0.888370 0.102360 -0.500255
O22   O     O_R   0.111630 0.456360 0.102360 -0.493483
O23   O     O_R   0.500790 0.870920 0.095850 -0.470200
O24   O     O_R   0.129080 0.629870 0.095850 -0.504549
O25   O     O_R   0.370130 0.499210 0.095850 -0.454031
C34   C     C_R   0.415293 0.861592 0.134853 0.600448
C35   C     C_R   0.068319 0.521244 0.119120 0.603342
C36   C     C_R   0.445033 0.586236 0.134807 0.553486
Cr4   Cr    Cr6+3 0.515700 0.760130 0.026360 1.076110
Cr5   Cr    Cr6+3 0.239870 0.755570 0.026360 1.064084
Cr6   Cr    Cr6+3 0.244430 0.484300 0.026360 1.086014
O26   O     O_3   0.333333 0.666667 0.026340 -0.300322
O27   O     O_3   0.038301 0.312510 0.196394 -0.567992
C37   C     C_3   0.152548 0.325346 0.224467 -0.049963
H1    H     H_    0.134493 0.276627 0.274656 0.172569
H2    H     H_    0.229389 0.428046 0.228578 0.136362
H3    H     H_    0.186476 0.275506 0.189989 0.181346
O28   O     O_3   0.560834 0.766731 0.231242 -0.589016
C38   C     C_3   0.691602 0.849619 0.213469 -0.059154
H4    H     H_    0.732337 0.802772 0.180833 0.119108
H5    H     H_    0.751786 0.892431 0.259728 0.162858
H6    H     H_    0.698753 0.930152 0.183019 0.177725
O29   O     O_3   0.236542 0.798750 0.229722 -0.586952
C39   C     C_3   0.150721 0.843222 0.212277 -0.051041
H7    H     H_    0.195198 0.930881 0.179584 0.111759
H8    H     H_    0.108046 0.859362 0.258723 0.158250
H9    H     H_    0.070649 0.768303 0.182057 0.190708
O30   O     O_3   0.939380 0.262309 0.321620 -0.600330
C40   C     C_3   0.816894 0.169244 0.297648 -0.011160
H10   H     H_    0.819602 0.149278 0.242603 0.193100
H11   H     H_    0.744021 0.198547 0.308030 0.196674
H12   H     H_    0.787909 0.078755 0.325801 0.168692
O31   O     O_3   0.708447 0.707440 0.330601 -0.613833
C41   C     C_3   0.797097 0.681195 0.297179 -0.048512
H13   H     H_    0.783067 0.672515 0.240974 0.166226
H14   H     H_    0.791258 0.592344 0.317802 0.225314
H15   H     H_    0.895968 0.761811 0.307548 0.130612
O32   O     O_3   0.297023 0.012450 0.326564 -0.617466
C42   C     C_3   0.327146 0.128569 0.293333 -0.040982
H16   H     H_    0.326301 0.119581 0.236873 0.164995
H17   H     H_    0.422013 0.208480 0.310944 0.223518
H18   H     H_    0.253039 0.154382 0.307027 0.136128
N1    N     N_R   0.891934 0.512509 0.191835 0.040531
O33   O     O_R   0.872308 0.579206 0.145742 -0.362631
O34   O     O_R   0.796937 0.440234 0.232283 -0.301129
N2    N     N_R   0.477338 0.426191 0.201800 0.059772
O35   O     O_R   0.408888 0.334160 0.158609 -0.327547
O36   O     O_R   0.562213 0.414950 0.238170 -0.303724
N3    N     N_R   0.566696 0.067967 0.194080 0.033469
O37   O     O_R   0.652845 0.098180 0.146475 -0.315660
O38   O     O_R   0.568014 0.162574 0.227228 -0.334417
O39   O     O_3   0.052791 0.607713 0.317180 -0.595579
C43   C     C_3   0.152001 0.683176 0.364689 -0.091036
H19   H     H_    0.244143 0.692344 0.346894 0.150668
H20   H     H_    0.135788 0.646997 0.418199 0.073125
H21   H     H_    0.161935 0.779844 0.367327 0.200323
O40   O     O_3   0.368630 0.452978 0.333066 -0.651950
C44   C     C_3   0.291938 0.439844 0.390649 -0.146323
H22   H     H_    0.337662 0.524092 0.426050 0.078189
H23   H     H_    0.266789 0.349673 0.418533 0.166580
H24   H     H_    0.200378 0.432016 0.372719 0.151710
O41   O     O_3   0.547008 0.921221 0.332713 -0.605556
C45   C     C_3   0.535385 0.838118 0.387023 -0.096046
H25   H     H_    0.460156 0.738529 0.373726 0.132445
H26   H     H_    0.510723 0.861933 0.437783 0.080662
H27   H     H_    0.628866 0.841135 0.393489 0.194658

loop_
_geom_bond_atom_site_label_1
_geom_bond_atom_site_label_2
_geom_bond_distance
_ccdc_geom_bond_type
C9    C15   1.205421 T    
O12   C6    1.300411 A    
Cr5   O26   1.891330 S    
O8    C6    1.262988 A    
C10   C16   1.204106 T    
O1    C2    1.310556 A    
C42   H16   1.109765 S    
O21   Cr5   2.075296 S    
O6    C3    1.318401 A    
C44   H22   1.114982 S    
C42   H18   1.108715 S    
O21   C34   1.219279 A    
O5    Cr2   1.968114 S    
C40   H10   1.107705 S    
C11   C17   1.205405 T    
C8    C33   1.433774 S    
C23   C36   1.443372 S    
N3    O38   1.299661 A    
C41   H15   1.107649 S    
O24   C35   1.218558 A    
C7    C13   1.204223 T    
C25   O27   1.394867 S    
C9    C31   1.433614 S    
C22   C35   1.457763 S    
O3    C1    1.311253 A    
O27   C37   1.405770 S    
C43   H20   1.113251 S    
C45   H27   1.107031 S    
O7    C5    1.262521 A    
C27   O29   1.390288 S    
O16   C32   1.220498 A    
C24   C34   1.438503 S    
O39   C43   1.416994 S    
O41   C45   1.415234 S    
C19   O39   1.382025 S    
C3    C16   1.431214 S    
O4    Cr1   1.966651 S    
C24   C27   1.349456 D    
C21   O41   1.383640 S    
O9    C4    1.268501 A    
O20   C36   1.227307 A    
C37   H1    1.107848 S    
C29   O31   1.389868 S    
C6    C19   1.454606 S    
O19   C33   1.224102 A    
C45   H26   1.114424 S    
O24   Cr5   1.971640 S    
Cr3   O13   2.056995 S    
C11   C14   1.411959 S    
C1    C17   1.433424 S    
O11   C5    1.296673 A    
O32   C42   1.410161 S    
O4    C1    1.317445 A    
C20   O40   1.389515 S    
C27   C30   1.450620 S    
C23   C26   1.351341 D    
C40   H11   1.109905 S    
O15   C31   1.219726 A    
O8    Cr2   2.084076 S    
O1    Cr1   2.089009 S    
O17   C31   1.223515 A    
C26   O28   1.389551 S    
O28   C38   1.414636 S    
O10   Cr1   1.967487 S    
O2    Cr2   2.081920 S    
Cr6   O26   1.892090 S    
O11   Cr2   1.961580 S    
Cr1   O13   2.052579 S    
O30   C40   1.403117 S    
C22   C25   1.363966 D    
C39   H8    1.107439 S    
C43   H21   1.105047 S    
C22   N1    1.441395 S    
C2    C18   1.433232 S    
C38   H6    1.100630 S    
O6    Cr3   1.961334 S    
O9    Cr3   2.077542 S    
C26   C29   1.454621 S    
O25   C36   1.237446 A    
C38   H4    1.112124 S    
O25   Cr6   1.964028 S    
C41   H14   1.107794 S    
N1    O33   1.301457 A    
C30   O32   1.391145 S    
O7    Cr1   2.081942 S    
Cr4   O26   1.887901 S    
C37   H3    1.105270 S    
C20   C29   1.360391 D    
C5    C21   1.450903 S    
N2    O36   1.298719 A    
C19   C28   1.362852 D    
C38   H5    1.107525 S    
O19   Cr6   1.965226 S    
N1    O34   1.299267 A    
Cr2   O13   2.056523 S    
C25   C28   1.450861 S    
O3    Cr3   2.089900 S    
C7    C32   1.431531 S    
O14   C33   1.219509 A    
O40   C44   1.413763 S    
C40   H12   1.106532 S    
O22   C35   1.176968 A    
O23   C34   1.237588 A    
O16   Cr6   2.084638 S    
C12   C15   1.411788 S    
C39   H7    1.112866 S    
C28   O30   1.391343 S    
O5    C2    1.317450 A    
C44   H23   1.109717 S    
C45   H25   1.106656 S    
C42   H17   1.110060 S    
N3    O37   1.301401 A    
O18   C32   1.224556 A    
O31   C41   1.410572 S    
C23   N2    1.456271 S    
C43   H19   1.108612 S    
O23   Cr4   1.970841 S    
C41   H13   1.109150 S    
C39   H9    1.099089 S    
O14   Cr4   2.092452 S    
N2    O35   1.300918 A    
O17   Cr4   1.963263 S    
C8    C14   1.205522 T    
C44   H24   1.106853 S    
C12   C18   1.205296 T    
O29   C39   1.413903 S    
O22   Cr6   2.081045 S    
O12   Cr3   1.968642 S    
C10   C13   1.409874 S    
O10   C4    1.298054 A    
C37   H2    1.110216 S    
O15   Cr5   2.093023 S    
C21   C30   1.357556 D    
O2    C3    1.312118 A    
O18   Cr5   1.959150 S    
C4    C20   1.459773 S    
O20   Cr4   2.078286 S    
C24   N3    1.455851 S    
