data_mof_unit_27429.cif
_audit_creation_date              2012-12-10T17:15:48-0500
_audit_creation_method            fapswitch 2.2
_symmetry_space_group_name_H-M    P1
_symmetry_Int_Tables_number       1
_space_group_crystal_system       triclinic
_cell_length_a                    10.178982
_cell_length_b                    10.648372
_cell_length_c                    10.785304
_cell_angle_alpha                 92.2534
_cell_angle_beta                  95.002952
_cell_angle_gamma                 80.291346
_cell_volume                      1147.52144944

loop_
_atom_site_label
_atom_site_type_symbol
_atom_type_description
_atom_site_fract_x
_atom_site_fract_y
_atom_site_fract_z
_atom_type_partial_charge
Br1   Br    Br    0.233000 0.536505 0.062079 -0.253399
Br2   Br    Br    0.130992 0.375541 0.354637 -0.407657
Br3   Br    Br    0.105721 0.667651 0.681727 -0.301905
Br4   Br    Br    0.697151 0.227122 0.245824 -0.486499
Br5   Br    Br    0.954194 0.744951 0.240578 -0.398997
Br6   Br    Br    0.394286 0.312230 0.863103 -0.363428
C1    C     C_R   0.444387 0.506090 0.266455 0.891625
C2    C     C_2   0.506802 0.431724 0.932349 0.267182
C3    C     C_2   0.070590 0.493563 0.485855 0.361705
C4    C     C_R   0.498221 0.259587 0.484681 0.943042
C5    C     C_2   0.924360 0.516059 0.506143 -0.098607
C6    C     C_R   0.555473 0.490125 0.732346 0.839569
C7    C     C_R   0.493523 0.738379 0.479708 0.940547
C8    C     C_R   0.708402 0.079005 0.340806 0.258653
C9    C     C_R   0.818116 0.988696 0.312531 -0.202708
C10   C     C_R   0.806010 0.861438 0.299262 0.161843
C11   C     C_R   0.683249 0.824910 0.319148 0.443643
C12   C     C_R   0.597009 0.041611 0.392320 -0.027683
C13   C     C_R   0.587868 0.910249 0.384293 -0.061539
C14   C     C_R   0.492711 0.126634 0.448810 -0.167256
C15   C     C_R   0.375279 0.083512 0.472712 -0.131717
C16   C     C_R   0.365422 0.956927 0.461379 0.430755
C17   C     C_R   0.480113 0.868671 0.436891 -0.206685
C18   C     C_2   0.414609 0.493464 0.132742 0.141691
C19   C     C_2   0.518363 0.452475 0.064883 -0.151525
C20   C     C_2   0.585985 0.485745 0.865187 0.206554
H1    H     H_    0.289978 0.147686 0.504726 0.221777
H2    H     H_    0.883486 0.591056 0.569465 0.186683
H3    H     H_    0.879858 0.374712 0.391102 0.244244
H4    H     H_    0.905843 0.019001 0.281158 0.229111
H5    H     H_    0.620447 0.442048 0.106354 0.232858
H6    H     H_    0.715148 0.673910 0.209240 0.387423
H7    H     H_    0.227792 0.855968 0.418795 0.368495
H8    H     H_    0.725054 0.589751 0.858653 0.365373
N1    N     N_2   0.157290 0.551390 0.551110 -0.007188
N2    N     N_2   0.842740 0.448550 0.448960 -0.174183
O1    O     O_R   0.568950 0.489660 0.307530 -0.580638
O2    O     O_3   0.244596 0.922861 0.481968 -0.693477
O3    O     O_3   0.683190 0.549808 0.923212 -0.735522
O4    O     O_R   0.348880 0.522640 0.340350 -0.570679
O5    O     O_R   0.610060 0.300270 0.483590 -0.586016
O6    O     O_R   0.389990 0.333260 0.516410 -0.595976
O7    O     O_R   0.651120 0.477360 0.659650 -0.612518
O8    O     O_R   0.431050 0.510340 0.692470 -0.552735
O9    O     O_R   0.610010 0.666740 0.483590 -0.583825
O10   O     O_R   0.389940 0.699730 0.516410 -0.582933
O11   O     O_3   0.647487 0.714380 0.265273 -0.735436
Zn1   Zn    Zn3+2 0.646940 0.477980 0.478090 1.033929
Zn2   Zn    Zn3+2 0.353060 0.522020 0.521910 1.114029

loop_
_geom_bond_atom_site_label_1
_geom_bond_atom_site_label_2
_ccdc_geom_bond_type
O8    Zn2   S    
N1    Zn2   S    
C13   C17   A    
C1    O4    A    
C19   H5    S    
C4    O6    A    
C2    C20   D    
O7    Zn1   S    
C8    C12   A    
H7    O2    S    
H3    N2    S    
Br3   N1    S    
C15   H1    S    
C6    O8    A    
C15   C16   A    
C14   C15   A    
O1    Zn1   S    
C7    O9    A    
C2    C19   S    
C3    C5    S    
O10   Zn2   S    
C5    H2    S    
Br1   C18   S    
C4    O5    A    
C5    N2    D    
C11   C13   A    
O5    Zn1   S    
N2    Zn1   S    
C6    O7    A    
C12   C14   A    
Br4   C8    S    
C7    O10   A    
H6    O11   S    
C20   O3    S    
C9    C10   A    
O6    Zn2   S    
C1    C18   S    
C16   O2    S    
C11   O11   S    
C18   C19   D    
C7    C17   S    
C9    H4    S    
C12   C13   A    
O9    Zn1   S    
C6    C20   S    
C3    N1    D    
C8    C9    A    
Br5   C10   S    
Br6   C2    S    
C16   C17   A    
Br2   C3    S    
H8    O3    S    
O4    Zn2   S    
C4    C14   S    
C10   C11   A    
C1    O1    A    
