data_mof_unit_38903.cif
_audit_creation_date              2013-03-05T16:09:46-0500
_audit_creation_method            fapswitch 2.2
_symmetry_space_group_name_H-M    P1
_symmetry_Int_Tables_number       1
_space_group_crystal_system       triclinic
_cell_length_a                    12.853547
_cell_length_b                    10.701253
_cell_length_c                    9.878595
_cell_angle_alpha                 89.485387
_cell_angle_beta                  96.241489
_cell_angle_gamma                 91.091665
_cell_volume                      1350.45939417

loop_
_atom_site_label
_atom_site_type_symbol
_atom_site_description
_atom_site_fract_x
_atom_site_fract_y
_atom_site_fract_z
_atom_type_partial_charge
O1    O     O_R   0.499990 0.316750 0.614620 -0.597890
O2    O     O_R   0.500010 0.683250 0.385380 -0.597883
O3    O     O_R   0.499990 0.316780 0.385290 -0.597527
O4    O     O_R   0.500010 0.683220 0.614710 -0.597565
C1    C     C_R   0.501651 0.260191 0.500335 0.963507
C2    C     C_R   0.498348 0.739809 0.499664 0.963509
O5    O     O_R   0.346360 0.499970 0.595710 -0.567467
O6    O     O_R   0.653640 0.500030 0.404290 -0.567464
O7    O     O_R   0.346360 0.499990 0.366380 -0.644251
O8    O     O_R   0.653640 0.500010 0.633620 -0.644252
C3    C     C_R   0.298838 0.501280 0.474435 0.954078
C4    C     C_R   0.701162 0.498720 0.525565 0.954076
Zn1   Zn    Zn3+2 0.500000 0.499980 0.653120 0.995933
Zn2   Zn    Zn3+2 0.500000 0.500020 0.346880 0.995945
C5    C     C_R   0.812247 0.506833 0.538715 -0.123470
C6    C     C_R   0.187753 0.493166 0.461286 -0.123471
C7    C     C_R   0.032803 0.376889 0.380134 -0.159485
C8    C     C_R   0.967198 0.623106 0.619870 -0.159487
C9    C     C_R   0.138573 0.399351 0.379446 -0.284514
C10   C     C_R   0.861428 0.600645 0.620557 -0.284514
C11   C     C_R   0.132971 0.567263 0.544260 0.466182
C12   C     C_R   0.867030 0.432735 0.455742 0.466173
C13   C     C_R   0.025176 0.548338 0.541197 -0.000383
C14   C     C_R   0.974824 0.451658 0.458806 -0.000381
H1    H     H_    0.816932 0.660081 0.680440 0.174769
H2    H     H_    0.183069 0.339914 0.319564 0.174769
H3    H     H_    0.997442 0.300358 0.319736 0.190747
H4    H     H_    0.002558 0.699636 0.680270 0.190749
C15   C     C_R   0.550397 0.064924 0.399709 0.548563
C16   C     C_R   0.449603 0.935076 0.600294 0.548557
C17   C     C_R   0.548699 0.936104 0.402343 -0.353727
C18   C     C_R   0.451294 0.063897 0.597649 -0.353728
H5    H     H_    0.589590 0.886187 0.330324 0.229235
H6    H     H_    0.410386 0.113819 0.669646 0.229234
C19   C     C_R   0.497352 0.872276 0.499987 -0.213251
C20   C     C_R   0.502649 0.127724 0.500014 -0.213256
C21   C     C_R   0.567560 0.576233 0.078948 0.292513
C22   C     C_R   0.432441 0.423766 0.921052 0.292504
C23   C     C_R   0.567191 0.575833 0.935751 -0.184359
C24   C     C_R   0.432811 0.424164 0.064250 -0.184371
H7    H     H_    0.620816 0.636325 0.887442 0.170993
H8    H     H_    0.379188 0.363669 0.112559 0.171021
N1    N     N_R   0.499970 0.499970 0.857200 -0.117090
N2    N     N_R   0.500030 0.500030 0.142800 -0.117094
O9    O     O_3   0.815398 0.336745 0.380207 -0.599901
C25   C     C_3   0.798494 0.370750 0.240626 -0.180202
H9    H     H_    0.830096 0.464873 0.214891 0.153032
H10   H     H_    0.713192 0.368413 0.207719 0.217140
H11   H     H_    0.834401 0.300150 0.179494 0.156993
O10   O     O_3   0.184601 0.663259 0.619787 -0.599888
C26   C     C_3   0.201509 0.629263 0.759372 -0.180232
H12   H     H_    0.286811 0.631579 0.792267 0.217152
H13   H     H_    0.169889 0.535152 0.785121 0.153022
H14   H     H_    0.165622 0.699880 0.820504 0.156994
O11   O     O_3   0.607035 0.129787 0.309104 -0.565102
C27   C     C_3   0.558443 0.112974 0.175095 -0.249281
H15   H     H_    0.594081 0.180504 0.106938 0.180763
H16   H     H_    0.473045 0.132094 0.167019 0.154049
H17   H     H_    0.571772 0.017590 0.137664 0.166335
O12   O     O_3   0.392939 0.870219 0.690876 -0.565095
C28   C     C_3   0.441512 0.887010 0.824893 -0.249309
H18   H     H_    0.526852 0.867583 0.833040 0.154156
H19   H     H_    0.405672 0.819699 0.893071 0.180781
H20   H     H_    0.428418 0.982479 0.862239 0.166214
Br1   Br    Br    0.665965 0.686248 0.178201 -0.576911
Br2   Br    Br    0.334033 0.313755 0.821799 -0.576886

loop_
_geom_bond_atom_site_label_1
_geom_bond_atom_site_label_2
_geom_bond_distance
_ccdc_geom_bond_type
C21   C23   1.414129 A    
C28   H20   1.111298 S    
C22   C24   1.414130 A    
C13   C14   1.423650 A    
C17   H5    1.080083 S    
C6    C11   1.398163 A    
C26   H12   1.109063 S    
O6    C4    1.284318 A    
C16   C18   1.378356 A    
C3    C6    1.420666 S    
C15   C20   1.403585 A    
C27   H17   1.111392 S    
C24   N2    1.358878 A    
Zn1   N1    2.016065 S    
O7    Zn2   2.004921 S    
C26   H14   1.109318 S    
C21   N2    1.378083 A    
C24   H8    1.082063 S    
O10   C26   1.417670 S    
C22   N1    1.378084 A    
C15   C17   1.378350 A    
O9    C25   1.417658 S    
C27   H15   1.109548 S    
O5    C3    1.284315 A    
O7    C3    1.286494 A    
C25   H11   1.109312 S    
O2    C2    1.288166 A    
O3    Zn2   1.993923 S    
O8    C4    1.286493 A    
C16   C19   1.403606 A    
O6    Zn2   1.994496 S    
C6    C9    1.392977 A    
O1    C1    1.288164 A    
C18   C20   1.393524 A    
C17   C19   1.393542 A    
O4    C2    1.281263 A    
C11   O10   1.390151 S    
C7    C9    1.376823 A    
C27   H16   1.114596 S    
C4    C5    1.420667 S    
C8    C10   1.376822 A    
C11   C13   1.393544 A    
C28   H18   1.114510 S    
O2    Zn2   2.000681 S    
C12   C14   1.393542 A    
O11   C27   1.412504 S    
C7    C14   1.399777 A    
O1    Zn1   2.000680 S    
C10   H1    1.084329 S    
C8    C13   1.399777 A    
C7    H3    1.081168 S    
C1    C20   1.417902 S    
O5    Zn1   1.994497 S    
C12   O9    1.390143 S    
C8    H4    1.081162 S    
C2    C19   1.417904 S    
C23   H7    1.082061 S    
C16   O12   1.387149 S    
Zn2   N2    2.016065 S    
O4    Zn1   1.993922 S    
C28   H19   1.109405 S    
C9    H2    1.084329 S    
C25   H9    1.116435 S    
O12   C28   1.412469 S    
C23   N1    1.358879 A    
C15   O11   1.387139 S    
C26   H13   1.116438 S    
C25   H10   1.109080 S    
C5    C12   1.398164 A    
C22   Br2   1.908281 S    
C21   Br1   1.908279 S    
C5    C10   1.392972 A    
O3    C1    1.281262 A    
O8    Zn1   2.004921 S    
C18   H6    1.080080 S    
