data_mof_unit_6219.cif
_audit_creation_date              2012-12-10T18:11:02-0500
_audit_creation_method            fapswitch 2.2
_symmetry_space_group_name_H-M    P1
_symmetry_Int_Tables_number       1
_space_group_crystal_system       triclinic
_cell_length_a                    10.769016
_cell_length_b                    9.564731
_cell_length_c                    10.705678
_cell_angle_alpha                 89.744175
_cell_angle_beta                  82.291635
_cell_angle_gamma                 88.953478
_cell_volume                      1092.56510809

loop_
_atom_site_label
_atom_site_type_symbol
_atom_type_description
_atom_site_fract_x
_atom_site_fract_y
_atom_site_fract_z
_atom_type_partial_charge
C1    C     C_R   0.259676 0.500848 0.508486 0.729000
C2    C     C_3   0.511510 0.500120 0.119799 -0.108046
C3    C     C_3   0.057053 0.618984 0.599339 -0.359321
C4    C     C_3   0.066592 0.360320 0.563225 -0.383732
C5    C     C_3   0.912813 0.612966 0.603417 -0.362035
C6    C     C_3   0.926499 0.356446 0.551063 -0.357019
C7    C     C_3   0.090739 0.524678 0.377005 -0.396163
C8    C     C_3   0.121633 0.501699 0.512385 0.152559
C9    C     C_3   0.878034 0.500552 0.509984 0.073214
C10   C     C_3   0.948102 0.535579 0.377936 -0.322907
C11   C     C_3   0.573406 0.080801 0.598347 -0.201569
C12   C     C_3   0.581918 0.915431 0.590750 -0.226145
C13   C     C_3   0.372121 0.085238 0.532162 -0.304684
C14   C     C_3   0.373006 0.919616 0.539296 -0.305510
C15   C     C_3   0.554390 0.083846 0.374363 0.301156
C16   C     C_3   0.548499 0.914291 0.372979 0.337936
C17   C     C_R   0.504263 0.500003 0.258650 0.927015
C18   C     C_R   0.739445 0.499465 0.505406 0.863187
C19   C     C_R   0.493976 0.499820 0.740728 0.784720
C20   C     C_3   0.450266 0.617908 0.049129 -0.193068
C21   C     C_3   0.441451 0.389844 0.052535 -0.247726
C22   C     C_3   0.380939 0.507744 0.980471 -0.161666
C23   C     C_3   0.494140 0.499159 0.877163 -0.057195
C24   C     C_3   0.562843 0.609541 0.942871 -0.155929
C25   C     C_3   0.554150 0.380946 0.946238 -0.190591
C26   C     C_3   0.623597 0.491309 0.013218 0.512735
Cu1   Cu    Cu3+1 0.499860 0.642410 0.500060 0.973638
Cu2   Cu    Cu3+1 0.499860 0.357590 0.500060 0.978126
H1    H     H_    0.925103 0.644436 0.352479 0.224495
H2    H     H_    0.920011 0.463535 0.306405 0.239921
H3    H     H_    0.528948 0.110859 0.694578 0.149838
H4    H     H_    0.555707 0.872102 0.686885 0.161202
H5    H     H_    0.668366 0.125000 0.589926 0.197791
H6    H     H_    0.681007 0.882754 0.561293 0.190375
H7    H     H_    0.325319 0.128839 0.622995 0.176789
H8    H     H_    0.335656 0.885673 0.636438 0.176160
H9    H     H_    0.492150 0.120026 0.305302 0.028752
H10   H     H_    0.475171 0.891028 0.312226 0.038044
H11   H     H_    0.313598 0.119110 0.459086 0.154955
H12   H     H_    0.307233 0.879951 0.476652 0.162482
H13   H     H_    0.408386 0.716368 0.091902 0.162620
H14   H     H_    0.391826 0.298499 0.098419 0.159682
H15   H     H_    0.611256 0.701206 0.896111 0.173689
H16   H     H_    0.595133 0.282318 0.902920 0.168942
H17   H     H_    0.082114 0.606832 0.696381 0.167920
H18   H     H_    0.080790 0.346264 0.663564 0.162200
H19   H     H_    0.868286 0.588766 0.700510 0.223920
H20   H     H_    0.871776 0.319439 0.639717 0.204318
H21   H     H_    0.134923 0.621877 0.335893 0.171971
H22   H     H_    0.129385 0.436049 0.315769 0.178009
N1    N     N_3   0.500250 0.143650 0.502780 -0.184866
N2    N     N_3   0.500250 0.856350 0.502780 -0.193058
O1    O     O_R   0.317570 0.620260 0.500070 -0.608135
O2    O     O_R   0.317570 0.379740 0.500070 -0.608337
O3    O     O_R   0.499850 0.620240 0.316900 -0.532572
O4    O     O_R   0.499850 0.379760 0.316900 -0.564965
O5    O     O_R   0.682190 0.620260 0.500030 -0.539167
O6    O     O_R   0.682190 0.379740 0.500030 -0.524707
O7    O     O_R   0.499910 0.620280 0.683200 -0.605626
O8    O     O_R   0.499910 0.379720 0.683200 -0.599350
H23   H     H_    0.281324 0.514165 0.964243 0.153319
S1    S     S_3+6 0.708862 0.155447 0.307113 0.078537
O9    O     O_2   0.713223 0.309088 0.287506 -0.259866
O10   O     O_2   0.803928 0.118431 0.392136 -0.299181
O11   O     O_3   0.760649 0.097431 0.161495 -0.392034
H24   H     H_    0.702222 0.139258 0.107029 0.347838
S2    S     S_3+6 0.689605 0.827094 0.280414 0.062798
O12   O     O_2   0.680033 0.862741 0.145146 -0.287048
O13   O     O_2   0.810086 0.878875 0.316662 -0.238591
O14   O     O_3   0.715642 0.654927 0.273840 -0.518061
H25   H     H_    0.789890 0.643472 0.209845 0.398609
S3    S     S_3+6 0.791818 0.483707 0.992144 -0.038871
O15   O     O_2   0.842325 0.628691 0.971695 -0.308162
O16   O     O_2   0.843739 0.417293 0.101133 -0.275119
O17   O     O_3   0.840214 0.387221 0.863917 -0.599409
H26   H     H_    0.932697 0.383031 0.859021 0.368259
H27   H     H_    0.089890 0.723257 0.563664 0.177897
H28   H     H_    0.114281 0.270561 0.509637 0.181343
H29   H     H_    0.876971 0.717929 0.578673 0.185747
H30   H     H_    0.916328 0.280220 0.477311 0.248724

loop_
_geom_bond_atom_site_label_1
_geom_bond_atom_site_label_2
_ccdc_geom_bond_type
C7    C10   S    
C1    C8    S    
C26   S3    S    
C4    C8    S    
C6    C9    S    
C20   H13   S    
Cu2   O4    S    
C7    C8    S    
C4    H18   S    
C4    H28   S    
C5    H19   S    
C6    H20   S    
C24   C26   S    
C13   H7    S    
C14   H8    S    
Cu2   N1    S    
Cu1   O3    S    
C15   C16   S    
C1    O1    A    
C15   H9    S    
S1    O10   D    
C13   N1    S    
C18   O6    A    
C14   N2    S    
C20   C24   S    
C23   C24   S    
O14   H25   S    
C15   N1    S    
C5    H29   S    
C9    C10   S    
C17   O3    A    
C11   H3    S    
C21   C22   S    
C12   H4    S    
C2    C17   S    
S3    O17   S    
C25   H16   S    
C12   N2    S    
Cu2   O8    S    
C2    C20   S    
S2    O12   D    
C11   H5    S    
C7    H21   S    
C4    C6    S    
C3    C8    S    
Cu1   O5    S    
Cu2   O2    S    
C19   O7    A    
C25   C26   S    
C3    H17   S    
S2    O13   D    
C19   C23   S    
O17   H26   S    
C5    C9    S    
S1    O9    D    
C10   H2    S    
C18   O5    A    
C6    H30   S    
C2    C21   S    
C2    C26   S    
C16   S2    S    
C17   O4    A    
C1    O2    A    
S3    O16   D    
C20   C22   S    
C12   H6    S    
C3    H27   S    
Cu1   N2    S    
C21   C25   S    
S1    O11   S    
C16   N2    S    
C7    H22   S    
S3    O15   D    
C3    C5    S    
C11   C12   S    
Cu1   O1    S    
Cu2   O6    S    
C19   O8    A    
S2    O14   S    
Cu1   O7    S    
C22   H23   S    
C10   H1    S    
C15   S1    S    
C23   C25   S    
C13   H11   S    
C11   N1    S    
C14   H12   S    
C21   H14   S    
C9    C18   S    
O11   H24   S    
Cu1   Cu2   S    
C24   H15   S    
C22   C23   S    
C13   C14   S    
C16   H10   S    
