data_mof_unit_25784.cif
_audit_creation_date              2012-12-10T17:16:39-0500
_audit_creation_method            fapswitch 2.2
_symmetry_space_group_name_H-M    P1
_symmetry_Int_Tables_number       1
_space_group_crystal_system       triclinic
_cell_length_a                    10.353654
_cell_length_b                    10.593792
_cell_length_c                    10.896216
_cell_angle_alpha                 92.140985
_cell_angle_beta                  94.250585
_cell_angle_gamma                 79.420369
_cell_volume                      1171.25352566

loop_
_atom_site_label
_atom_site_type_symbol
_atom_type_description
_atom_site_fract_x
_atom_site_fract_y
_atom_site_fract_z
_atom_type_partial_charge
Br1   Br    Br    0.979713 0.019409 0.306140 -0.427143
Br2   Br    Br    0.020285 0.980594 0.693855 -0.427130
C1    C     C_R   0.444838 0.509525 0.268622 0.866661
C2    C     C_R   0.493350 0.740542 0.489313 0.877850
C3    C     C_R   0.737536 0.062525 0.428258 -0.128528
C4    C     C_R   0.262463 0.937476 0.571737 -0.128527
C5    C     C_R   0.813297 0.983635 0.344699 0.322442
C6    C     C_R   0.186702 0.016365 0.655297 0.322444
C7    C     C_R   0.767529 0.878417 0.289599 -0.145350
C8    C     C_R   0.232472 0.121581 0.710400 -0.145344
C9    C     C_R   0.651857 0.846386 0.325796 -0.166032
C10   C     C_R   0.348146 0.153612 0.674203 -0.166021
C11   C     C_R   0.579822 0.920390 0.417503 0.077217
C12   C     C_R   0.555163 0.490455 0.731378 0.866649
C13   C     C_R   0.420179 0.079609 0.582495 0.077216
C14   C     C_R   0.613375 0.037256 0.457931 0.034928
C15   C     C_R   0.386625 0.962744 0.542066 0.034926
C16   C     C_R   0.477923 0.877458 0.472577 -0.172094
C17   C     C_R   0.522077 0.122542 0.527420 -0.172077
C18   C     C_2   0.412151 0.527941 0.139261 0.003067
C19   C     C_2   0.587847 0.471944 0.860733 0.003079
C20   C     C_2   0.506378 0.483809 0.063782 -0.179620
C21   C     C_2   0.493623 0.515992 0.936217 -0.179707
C22   C     C_2   0.073806 0.488989 0.488645 0.209422
C23   C     C_2   0.926194 0.511020 0.511343 0.209411
C24   C     C_R   0.506649 0.259458 0.510686 0.877826
H1    H     H_    0.176207 0.181307 0.777778 0.197817
H2    H     H_    0.823795 0.818691 0.222222 0.197810
H3    H     H_    0.781763 0.137906 0.473607 0.210094
H4    H     H_    0.218236 0.862096 0.526388 0.210088
H5    H     H_    0.619766 0.762324 0.283247 0.172218
H6    H     H_    0.380238 0.237673 0.716754 0.172222
H7    H     H_    0.403179 0.575978 0.901048 0.215330
H8    H     H_    0.596833 0.423821 0.098967 0.215320
I1    I     I_    0.776422 0.361079 0.914035 -0.191558
I2    I     I_    0.223525 0.638673 0.085924 -0.191556
I3    I     I_    0.851735 0.672656 0.627481 -0.158872
I4    I     I_    0.148269 0.327344 0.372521 -0.158871
I5    I     I_    0.845858 0.476249 0.259410 -0.186596
I6    I     I_    0.154138 0.523700 0.740578 -0.186615
N1    N     N_2   0.157300 0.551390 0.551120 -0.062384
N2    N     N_2   0.842700 0.448610 0.448880 -0.062384
O1    O     O_R   0.568940 0.489660 0.307530 -0.614083
O2    O     O_R   0.431060 0.510340 0.692470 -0.614080
O3    O     O_R   0.348880 0.522640 0.340350 -0.574607
O4    O     O_R   0.651120 0.477360 0.659650 -0.574596
O5    O     O_R   0.610030 0.300280 0.483580 -0.623039
O6    O     O_R   0.389970 0.699720 0.516420 -0.623031
O7    O     O_R   0.389970 0.333270 0.516400 -0.590217
O8    O     O_R   0.610030 0.666730 0.483600 -0.590214
Zn1   Zn    Zn3+2 0.646940 0.477980 0.478080 1.033119
Zn2   Zn    Zn3+2 0.353060 0.522020 0.521920 1.033122

loop_
_geom_bond_atom_site_label_1
_geom_bond_atom_site_label_2
_ccdc_geom_bond_type
C23   N2    D    
C8    H1    S    
C22   I4    S    
C3    C5    A    
C19   I1    S    
C7    C9    A    
N1    Zn2   S    
C10   C13   A    
N2    Zn1   S    
O7    Zn2   S    
C2    C16   S    
O2    Zn2   S    
C15   C16   A    
C9    H5    S    
C1    C18   S    
C12   O4    A    
C10   H6    S    
C13   C17   A    
C22   N1    D    
C9    C11   A    
C1    O1    A    
C8    C10   A    
C24   O5    A    
O1    Zn1   S    
C14   C17   A    
C4    C6    A    
C11   C16   A    
C12   C19   S    
C6    C8    A    
I6    N1    S    
C4    H4    S    
C18   C20   D    
O8    Zn1   S    
I5    N2    S    
C3    H3    S    
C19   C21   D    
C20   H8    S    
C11   C14   A    
C18   I2    S    
C5    C7    A    
O6    Zn2   S    
C22   C23   S    
C17   C24   S    
C12   O2    A    
C2    O6    A    
C24   O7    A    
C13   C15   A    
C4    C15   A    
C20   C21   S    
C3    C14   A    
O5    Zn1   S    
O3    Zn2   S    
C23   I3    S    
Br1   C5    S    
O4    Zn1   S    
C1    O3    A    
Br2   C6    S    
C7    H2    S    
C2    O8    A    
C21   H7    S    
