data_mof_unit_42981.cif
_audit_creation_date              2012-12-10T18:04:38-0500
_audit_creation_method            fapswitch 2.2
_symmetry_space_group_name_H-M    P1
_symmetry_Int_Tables_number       1
_space_group_crystal_system       triclinic
_cell_length_a                    19.551977
_cell_length_b                    17.595191
_cell_length_c                    12.605229
_cell_angle_alpha                 90.052873
_cell_angle_beta                  99.088484
_cell_angle_gamma                 89.968493
_cell_volume                      4282.01663378

loop_
_atom_site_label
_atom_site_type_symbol
_atom_type_description
_atom_site_fract_x
_atom_site_fract_y
_atom_site_fract_z
_atom_type_partial_charge
C1    C     C_R   0.408390 0.099604 0.441827 0.853847
C2    C     C_R   0.411676 0.896655 0.444113 0.839911
C3    C     C_R   0.908394 0.599610 0.441830 0.853829
C4    C     C_R   0.911667 0.396665 0.444105 0.839907
C5    C     C_R   0.744575 0.216343 0.538385 0.077122
C6    C     C_R   0.713526 0.748283 0.516607 0.081161
C7    C     C_R   0.244627 0.716284 0.538407 0.077145
C8    C     C_R   0.213524 0.248276 0.516606 0.081147
C9    C     C_R   0.781471 0.210964 0.644620 0.175898
C10   C     C_R   0.693564 0.689003 0.581775 0.179821
C11   C     C_R   0.281455 0.711014 0.644674 0.175902
C12   C     C_R   0.193595 0.189019 0.581838 0.179831
C13   C     C_R   0.348491 0.739672 0.668070 -0.257375
C14   C     C_R   0.222411 0.116931 0.577413 -0.255773
C15   C     C_R   0.848521 0.239593 0.667978 -0.257305
C16   C     C_R   0.722377 0.616914 0.577329 -0.255771
C17   C     C_R   0.377133 0.777702 0.589304 -0.200075
C18   C     C_R   0.273608 0.104701 0.514613 -0.207486
C19   C     C_R   0.877127 0.277675 0.589218 -0.200028
C20   C     C_R   0.773598 0.604702 0.514568 -0.207500
C21   C     C_R   0.676847 0.189772 0.518180 -0.259884
C22   C     C_R   0.685683 0.820282 0.525232 -0.252128
C23   C     C_R   0.176912 0.689685 0.518153 -0.259890
C24   C     C_R   0.185670 0.320273 0.525196 -0.252108
C25   C     C_R   0.685292 0.143680 0.700463 -0.204687
C26   C     C_R   0.612314 0.773543 0.648326 -0.201611
C27   C     C_R   0.185220 0.643810 0.700485 -0.204749
C28   C     C_R   0.112366 0.273576 0.648409 -0.201647
C29   C     C_R   0.362269 0.836304 0.409311 -0.108600
C30   C     C_R   0.356189 0.156781 0.404910 -0.115092
C31   C     C_R   0.862223 0.336353 0.409279 -0.108621
C32   C     C_R   0.856206 0.656803 0.404926 -0.115080
C33   C     C_R   0.642877 0.000335 0.133039 -0.312179
C34   C     C_R   0.142877 0.500340 0.133039 -0.312201
C35   C     C_R   0.378774 0.998744 0.762199 0.037067
C36   C     C_R   0.878774 0.498747 0.762198 0.037078
C37   C     C_R   0.352951 0.998376 0.858402 -0.250432
C38   C     C_R   0.852951 0.498380 0.858401 -0.250415
C39   C     C_R   0.589243 0.897813 0.556429 0.849576
C40   C     C_R   0.590779 0.100487 0.557520 0.862653
C41   C     C_R   0.089245 0.397815 0.556430 0.849606
C42   C     C_R   0.090779 0.600489 0.557518 0.862657
C43   C     C_R   0.398984 0.998994 0.954408 -0.196982
C44   C     C_R   0.898984 0.498996 0.954407 -0.196975
C45   C     C_R   0.471381 0.999759 0.953930 0.016127
C46   C     C_R   0.971381 0.499759 0.953930 0.016126
C47   C     C_R   0.494854 0.000073 0.853713 0.232364
C48   C     C_R   0.994854 0.500074 0.853713 0.232363
C49   C     C_R   0.521180 0.999975 0.048175 -0.012566
C50   C     C_R   0.021180 0.499976 0.048174 -0.012562
C51   C     C_R   0.593079 0.000242 0.040526 0.198585
C52   C     C_R   0.093079 0.500246 0.040526 0.198591
C53   C     C_R   0.614520 0.000291 0.940725 -0.294926
C54   C     C_R   0.114520 0.500297 0.940725 -0.294950
C55   C     C_R   0.565868 0.000122 0.848569 -0.215247
C56   C     C_R   0.065868 0.500125 0.848569 -0.215286
C57   C     C_R   0.502681 0.999909 0.150607 -0.054742
C58   C     C_R   0.002681 0.499908 0.150607 -0.054721
C59   C     C_R   0.620998 0.000183 0.232037 0.009581
C60   C     C_R   0.120998 0.500187 0.232037 0.009535
C61   C     C_R   0.750968 0.175852 0.725462 -0.202513
C62   C     C_R   0.643996 0.702555 0.648869 -0.199935
C63   C     C_R   0.250890 0.675998 0.725514 -0.202545
C64   C     C_R   0.144057 0.202592 0.648977 -0.199941
C65   C     C_R   0.649322 0.149069 0.595476 -0.047635
C66   C     C_R   0.632225 0.831555 0.583672 -0.046584
C67   C     C_R   0.149324 0.649077 0.595463 -0.047714
C68   C     C_R   0.132236 0.331563 0.583679 -0.046617
C69   C     C_R   0.331515 0.833301 0.300971 -0.190988
C70   C     C_R   0.369964 0.210296 0.328562 -0.192128
C71   C     C_R   0.831434 0.333405 0.300948 -0.190981
C72   C     C_R   0.870003 0.710338 0.328615 -0.192105
C73   C     C_R   0.275305 0.786020 0.269130 -0.150207
C74   C     C_R   0.328047 0.273822 0.307357 -0.148145
C75   C     C_R   0.775167 0.286189 0.269107 -0.150199
C76   C     C_R   0.828098 0.773877 0.307431 -0.148139
C77   C     C_R   0.246472 0.745568 0.345798 -0.193512
C78   C     C_R   0.275219 0.287027 0.367076 -0.187718
C79   C     C_R   0.746327 0.245744 0.345770 -0.193463
C80   C     C_R   0.775262 0.787072 0.367138 -0.187709
C81   C     C_R   0.275898 0.749343 0.456031 0.083617
C82   C     C_R   0.261490 0.234256 0.446128 0.087632
C83   C     C_R   0.775810 0.249445 0.455999 0.083615
C84   C     C_R   0.761510 0.734279 0.446151 0.087633
C85   C     C_R   0.339161 0.787845 0.485139 0.084833
C86   C     C_R   0.297184 0.164515 0.455054 0.092274
C87   C     C_R   0.839111 0.287888 0.485089 0.084799
C88   C     C_R   0.797194 0.664531 0.455054 0.092268
H1    H     H_    0.664335 0.111751 0.761274 0.150943
H2    H     H_    0.570171 0.781824 0.693561 0.152119
H3    H     H_    0.164208 0.611972 0.761311 0.151055
H4    H     H_    0.070249 0.281873 0.693690 0.152158
H5    H     H_    0.669099 0.000407 0.933777 0.152151
H6    H     H_    0.169100 0.500415 0.933777 0.152175
H7    H     H_    0.697811 0.000490 0.128752 0.141879
H8    H     H_    0.197811 0.500498 0.128752 0.141876
H9    H     H_    0.449919 0.999842 0.165126 0.124007
H10   H     H_    0.949919 0.499837 0.165126 0.124002
H11   H     H_    0.343518 0.997687 0.687062 0.134416
H12   H     H_    0.843517 0.497695 0.687060 0.134424
H13   H     H_    0.376291 0.998564 0.026886 0.135202
H14   H     H_    0.876291 0.498566 0.026885 0.135200
H15   H     H_    0.297605 0.997472 0.858600 0.147029
H16   H     H_    0.797605 0.497479 0.858599 0.147036
H17   H     H_    0.585316 0.999851 0.774215 0.212685
H18   H     H_    0.085317 0.499857 0.774215 0.212705
H19   H     H_    0.378341 0.733942 0.747765 0.148554
H20   H     H_    0.206222 0.070297 0.623798 0.142351
H21   H     H_    0.878417 0.233784 0.747642 0.148518
H22   H     H_    0.706166 0.570267 0.623669 0.142358
H23   H     H_    0.778875 0.170797 0.806575 0.135390
H24   H     H_    0.627831 0.657558 0.698071 0.136460
H25   H     H_    0.278736 0.671045 0.806656 0.135419
H26   H     H_    0.127925 0.157615 0.698237 0.136460
H27   H     H_    0.644797 0.197648 0.441057 0.148785
H28   H     H_    0.702753 0.868522 0.483535 0.141558
H29   H     H_    0.144913 0.697487 0.440987 0.148872
H30   H     H_    0.202714 0.368499 0.483440 0.141587
H31   H     H_    0.429666 0.798209 0.610526 0.168119
H32   H     H_    0.293920 0.047673 0.511817 0.158029
H33   H     H_    0.929674 0.298154 0.610409 0.168074
H34   H     H_    0.793912 0.547675 0.511763 0.158022
H35   H     H_    0.658403 0.000229 0.305117 0.131691
H36   H     H_    0.158403 0.500235 0.305117 0.131682
N1    N     N_R   0.552340 0.000000 0.237260 -0.102255
N2    N     N_R   0.052340 0.500000 0.237260 -0.102249
N3    N     N_R   0.448170 1.000000 0.762060 -0.132556
N4    N     N_R   0.948170 0.500000 0.762060 -0.132555
O1    O     O_R   0.448200 0.076800 0.373930 -0.616205
O2    O     O_R   0.448200 0.923200 0.373930 -0.610160
O3    O     O_R   0.948200 0.576800 0.373930 -0.616199
O4    O     O_R   0.948200 0.423200 0.373930 -0.610154
O5    O     O_R   0.414750 0.076790 0.542400 -0.605462
O6    O     O_R   0.414750 0.923210 0.542400 -0.624634
O7    O     O_R   0.914750 0.576790 0.542400 -0.605467
O8    O     O_R   0.914750 0.423210 0.542400 -0.624602
O9    O     O_R   0.585240 0.923200 0.457600 -0.607711
O10   O     O_R   0.585240 0.076800 0.457600 -0.615212
O11   O     O_R   0.085240 0.423200 0.457600 -0.607723
O12   O     O_R   0.085240 0.576800 0.457600 -0.615245
O13   O     O_R   0.551780 0.923190 0.626070 -0.643331
O14   O     O_R   0.551780 0.076810 0.626070 -0.627933
O15   O     O_R   0.051780 0.423190 0.626070 -0.643311
O16   O     O_R   0.051780 0.576810 0.626070 -0.627951
Zn1   Zn    Zn3+2 0.522330 0.000000 0.387520 0.935937
Zn2   Zn    Zn3+2 0.022330 0.500000 0.387520 0.935930
Zn3   Zn    Zn3+2 0.477660 0.000000 0.612480 0.924807
Zn4   Zn    Zn3+2 0.977660 0.500000 0.612480 0.924821
H37   H     H_    0.349623 0.869162 0.241321 0.152563
H38   H     H_    0.414422 0.204274 0.287680 0.158610
H39   H     H_    0.849552 0.369265 0.241310 0.152550
H40   H     H_    0.914468 0.704322 0.287746 0.158600
H41   H     H_    0.702170 0.210660 0.316218 0.134343
H42   H     H_    0.744999 0.837905 0.347848 0.130996
H43   H     H_    0.202360 0.710430 0.316246 0.134335
H44   H     H_    0.244948 0.337852 0.347768 0.130996
H45   H     H_    0.252179 0.783101 0.185307 0.142208
H46   H     H_    0.338316 0.314640 0.247611 0.141647
H47   H     H_    0.752008 0.283314 0.185290 0.142209
H48   H     H_    0.838383 0.814711 0.247711 0.141639

loop_
_geom_bond_atom_site_label_1
_geom_bond_atom_site_label_2
_ccdc_geom_bond_type
C83   C87   A    
C39   O9    A    
O11   Zn2   S    
C40   O14   A    
C14   C18   A    
C70   H38   S    
C21   H27   S    
N2    Zn2   S    
C16   H22   S    
C4    O4    A    
C36   N4    A    
C15   C19   A    
O6    Zn3   S    
C2    O6    A    
C55   H17   S    
C2    C29   S    
C9    C61   A    
O9    Zn1   S    
C28   C68   A    
C34   H8    S    
C41   O15   A    
C1    O1    A    
C57   N1    A    
C12   C64   A    
C1    O5    A    
C48   N4    A    
O10   Zn1   S    
C6    C22   A    
C73   H45   S    
C49   C57   A    
O3    Zn2   S    
C23   C67   A    
C60   H36   S    
C15   H21   S    
C22   C66   A    
C38   H16   S    
C34   C52   A    
C8    C24   A    
C71   H39   S    
C39   O13   A    
C52   C54   A    
C49   C51   A    
C58   H10   S    
C70   C74   A    
C50   C52   A    
C27   H3    S    
O5    Zn3   S    
C45   C49   A    
C8    C12   A    
C30   C86   A    
C20   H34   S    
O16   Zn4   S    
C4    O8    A    
C21   C65   A    
C62   H24   S    
C45   C47   A    
C33   C59   A    
O2    Zn1   S    
C34   C60   A    
C10   C62   A    
C35   H11   S    
C33   H7    S    
C30   C70   A    
C44   C46   A    
C38   C44   A    
C41   C68   S    
C29   C69   A    
C53   C55   A    
C59   H35   S    
O15   Zn4   S    
C46   C48   A    
C14   H20   S    
C71   C75   A    
C31   C87   A    
C74   H46   S    
C53   H5    S    
C80   C84   A    
C26   C66   A    
C76   C80   A    
C6    C84   A    
C28   H4    S    
O12   Zn2   S    
C37   H15   S    
C17   H31   S    
N4    Zn4   S    
C25   C61   A    
C72   H40   S    
C17   C85   A    
C82   C86   A    
C24   C68   A    
C42   O12   A    
C40   O10   A    
C51   C53   A    
C50   C58   A    
C37   C43   A    
C7    C11   A    
C43   H13   S    
C5    C83   A    
C5    C9    A    
C54   H6    S    
C79   H41   S    
C78   C82   A    
C77   C81   A    
C26   H2    S    
C16   C20   A    
C57   H9    S    
C25   C65   A    
C72   C76   A    
C36   H12   S    
C18   C86   A    
C69   C73   A    
C43   C45   A    
C56   H18   S    
O8    Zn4   S    
C27   C63   A    
C28   C64   A    
C7    C81   A    
C12   C14   A    
C58   N2    A    
C40   C65   S    
C42   O16   A    
C42   C67   S    
C39   C66   S    
C3    O3    A    
C59   N1    A    
C36   C38   A    
C61   H23   S    
C18   H32   S    
C35   N3    A    
C47   C55   A    
C75   H47   S    
C48   C56   A    
C19   H33   S    
C44   H14   S    
C35   C37   A    
C29   C85   A    
O14   Zn3   S    
C84   C88   A    
C23   H29   S    
C54   C56   A    
C80   H42   S    
C33   C51   A    
C46   C50   A    
C25   H1    S    
C13   C17   A    
O4    Zn2   S    
C60   N2    A    
C9    C15   A    
C19   C87   A    
C69   H37   S    
N1    Zn1   S    
C77   H43   S    
C79   C83   A    
C11   C13   A    
C78   H44   S    
C76   H48   S    
C47   N3    A    
C7    C23   A    
C20   C88   A    
C22   H28   S    
C1    C30   S    
C2    O2    A    
C3    O7    A    
O1    Zn1   S    
C26   C62   A    
C3    C32   S    
C41   O11   A    
C4    C31   S    
C27   C67   A    
C6    C10   A    
O13   Zn3   S    
C63   H25   S    
C8    C82   A    
C5    C21   A    
C64   H26   S    
O7    Zn4   S    
C74   C78   A    
C13   H19   S    
C73   C77   A    
C10   C16   A    
C24   H30   S    
C11   C63   A    
C75   C79   A    
C81   C85   A    
N3    Zn3   S    
C31   C71   A    
C32   C72   A    
C32   C88   A    
