data_mof_unit_63890.cif
_audit_creation_date              2012-12-10T17:48:31-0500
_audit_creation_method            fapswitch 2.2
_symmetry_space_group_name_H-M    P1
_symmetry_Int_Tables_number       1
_space_group_crystal_system       triclinic
_cell_length_a                    26.024971
_cell_length_b                    27.688199
_cell_length_c                    27.683753
_cell_angle_alpha                 89.967415
_cell_angle_beta                  90.216073
_cell_angle_gamma                 89.993119
_cell_volume                      19948.3401911

loop_
_atom_site_label
_atom_site_type_symbol
_atom_type_description
_atom_site_fract_x
_atom_site_fract_y
_atom_site_fract_z
_atom_type_partial_charge
C1    C     C_R   0.391427 0.001150 0.249217 0.846553
C2    C     C_R   0.891505 0.999870 0.250226 0.833534
C3    C     C_R   0.750049 0.000110 0.620798 0.807382
C4    C     C_R   0.749985 0.500066 0.379203 0.821467
C5    C     C_R   0.749900 0.500013 0.620799 0.807928
C6    C     C_R   0.250144 0.500029 0.379206 0.809974
C7    C     C_R   0.250048 0.500110 0.620798 0.807378
C8    C     C_R   0.749983 0.000067 0.879203 0.821329
C9    C     C_R   0.749900 0.000013 0.120799 0.807944
C10   C     C_R   0.250144 0.000029 0.879205 0.809912
C11   C     C_R   0.250049 0.000110 0.120798 0.807397
C12   C     C_R   0.249983 0.500067 0.879203 0.821369
C13   C     C_R   0.108458 0.000259 0.749373 0.848183
C14   C     C_R   0.249900 0.500013 0.120799 0.808322
C15   C     C_R   0.750144 0.500029 0.879205 0.809944
C16   C     C_R   0.750048 0.500110 0.120798 0.807491
C17   C     C_R   0.249952 0.129220 0.250022 0.815324
C18   C     C_R   0.250011 0.129177 0.749995 0.804903
C19   C     C_R   0.750011 0.129177 0.249995 0.804916
C20   C     C_R   0.749952 0.129220 0.750022 0.815272
C21   C     C_R   0.749947 0.629220 0.250025 0.815212
C22   C     C_R   0.750011 0.629177 0.749995 0.804891
C23   C     C_R   0.250009 0.629177 0.249993 0.804634
C24   C     C_R   0.108399 0.999757 0.249479 0.900505
C25   C     C_R   0.249952 0.629220 0.750022 0.815255
C26   C     C_R   0.250011 0.870784 0.250015 0.809236
C27   C     C_R   0.250007 0.870737 0.750002 0.820002
C28   C     C_R   0.750007 0.870737 0.250002 0.820006
C29   C     C_R   0.750011 0.870784 0.750015 0.809237
C30   C     C_R   0.750011 0.370784 0.250016 0.809272
C31   C     C_R   0.750007 0.370737 0.750002 0.820016
C32   C     C_R   0.250007 0.370737 0.250002 0.820467
C33   C     C_R   0.250011 0.370784 0.750015 0.809260
C34   C     C_1   0.250059 0.818979 0.250052 -0.145567
C35   C     C_R   0.391427 0.501150 0.749217 0.846489
C36   C     C_1   0.250010 0.818952 0.749995 -0.151745
C37   C     C_1   0.750005 0.818952 0.249998 -0.151767
C38   C     C_1   0.750060 0.818979 0.750052 -0.145554
C39   C     C_1   0.750060 0.318979 0.250052 -0.145891
C40   C     C_1   0.750010 0.318952 0.749996 -0.151762
C41   C     C_1   0.250009 0.318952 0.249995 -0.152795
C42   C     C_1   0.250060 0.318979 0.750052 -0.145596
C43   C     C_1   0.250109 0.775452 0.250058 -0.003774
C44   C     C_1   0.249988 0.775437 0.749970 -0.004446
C45   C     C_1   0.749978 0.775437 0.249974 -0.004558
C46   C     C_R   0.391497 0.500047 0.250353 0.826669
C47   C     C_1   0.750109 0.775452 0.750059 -0.003721
C48   C     C_1   0.750109 0.275452 0.250059 -0.004076
C49   C     C_1   0.749987 0.275437 0.749970 -0.004472
C50   C     C_1   0.249987 0.275437 0.249970 -0.005383
C51   C     C_1   0.250109 0.275452 0.750059 -0.003765
C52   C     C_1   0.250125 0.724486 0.250042 -0.000660
C53   C     C_1   0.249966 0.724490 0.749953 -0.008012
C54   C     C_1   0.749951 0.724490 0.249957 -0.007961
C55   C     C_1   0.750126 0.724486 0.750044 -0.000631
C56   C     C_1   0.750126 0.224486 0.250044 -0.000917
C57   C     C_R   0.608458 0.500259 0.749373 0.848193
C58   C     C_1   0.749965 0.224490 0.749953 -0.008038
C59   C     C_1   0.249966 0.224490 0.249953 -0.008623
C60   C     C_1   0.250126 0.224486 0.750044 -0.000674
C61   C     C_1   0.250082 0.680965 0.250020 -0.147080
C62   C     C_1   0.249962 0.680983 0.749971 -0.161207
C63   C     C_1   0.749948 0.680983 0.249975 -0.161076
C64   C     C_1   0.750084 0.680965 0.750021 -0.147099
C65   C     C_1   0.750084 0.180965 0.250021 -0.147326
C66   C     C_1   0.749962 0.180983 0.749972 -0.161229
C67   C     C_1   0.249962 0.180983 0.249971 -0.161605
C68   C     C_R   0.608394 0.499714 0.249468 0.900492
C69   C     C_1   0.250084 0.180965 0.750021 -0.147155
C70   C     C_3   0.029816 0.957935 0.282119 -0.140371
C71   C     C_3   0.028426 0.951236 0.765977 -0.183125
C72   C     C_3   0.970495 0.953664 0.277101 -0.188599
C73   C     C_3   0.969270 0.950433 0.757951 -0.157971
C74   C     C_3   0.529489 0.458342 0.282669 -0.134778
C75   C     C_3   0.528425 0.451237 0.765983 -0.183192
C76   C     C_3   0.470190 0.453417 0.276543 -0.195128
C77   C     C_3   0.469269 0.450434 0.757957 -0.158034
C78   C     C_3   0.529815 0.957935 0.782118 -0.140383
C79   C     C_3   0.031221 0.050370 0.275547 0.715264
C80   C     C_3   0.528426 0.951236 0.265978 -0.183154
C81   C     C_3   0.470495 0.953664 0.777099 -0.188608
C82   C     C_3   0.469270 0.950433 0.257952 -0.158029
C83   C     C_3   0.029816 0.457918 0.782095 -0.140372
C84   C     C_3   0.028426 0.451236 0.265977 -0.183118
C85   C     C_3   0.970495 0.453651 0.777076 -0.188605
C86   C     C_3   0.969270 0.450433 0.257952 -0.157956
C87   C     C_3   0.049039 0.089332 0.353980 0.139749
C88   C     C_3   0.098585 0.103169 0.379962 -0.902487
C89   C     C_3   0.049403 0.934638 0.656151 0.022302
C90   C     C_3   0.030431 0.015031 0.693778 0.721557
C91   C     C_3   0.068147 0.914577 0.607926 -0.808512
C92   C     C_3   0.908146 0.041013 0.348997 0.089792
C93   C     C_3   0.905627 0.062552 0.399589 -0.904246
C94   C     C_3   0.953673 0.999053 0.610434 0.137306
C95   C     C_3   0.904491 0.991752 0.581054 -0.870936
C96   C     C_3   0.549299 0.590801 0.352497 0.137573
C97   C     C_3   0.598836 0.604851 0.378371 -0.900852
C98   C     C_3   0.549404 0.434628 0.656159 0.022742
C99   C     C_3   0.568148 0.414561 0.607937 -0.809587
C100  C     C_3   0.408744 0.541171 0.348810 0.090078
C101  C     C_3   0.969408 0.046400 0.282744 0.714562
C102  C     C_3   0.406474 0.562819 0.399361 -0.904213
C103  C     C_3   0.453673 0.499036 0.610434 0.137414
C104  C     C_3   0.404491 0.491731 0.581056 -0.871681
C105  C     C_3   0.549039 0.089332 0.853981 0.139635
C106  C     C_3   0.598585 0.103169 0.879964 -0.902124
C107  C     C_3   0.549403 0.934636 0.156152 0.022295
C108  C     C_3   0.568147 0.914574 0.107928 -0.808517
C109  C     C_3   0.408147 0.041010 0.849000 0.089700
C110  C     C_3   0.405627 0.062548 0.899592 -0.904021
C111  C     C_3   0.453673 0.999050 0.110434 0.137282
C112  C     C_R   0.391506 0.999870 0.750226 0.833555
C113  C     C_3   0.968213 0.018878 0.694703 0.730739
C114  C     C_3   0.404491 0.991748 0.081054 -0.870896
C115  C     C_3   0.049044 0.589274 0.854027 0.139689
C116  C     C_3   0.098593 0.603098 0.880013 -0.902296
C117  C     C_3   0.049403 0.434638 0.156151 0.022260
C118  C     C_3   0.068147 0.414577 0.107926 -0.808427
C119  C     C_3   0.908152 0.540965 0.849024 0.089805
C120  C     C_3   0.905637 0.562481 0.899626 -0.904203
C121  C     C_3   0.953673 0.499052 0.110434 0.137323
C122  C     C_3   0.904491 0.491751 0.081054 -0.870945
C123  C     C_3   0.086054 0.118799 0.254207 0.137870
C124  C     C_3   0.531246 0.550603 0.274714 0.713842
C125  C     C_3   0.104747 0.142436 0.207776 -0.818269
C126  C     C_3   0.092028 0.068165 0.655092 0.200979
C127  C     C_3   0.115085 0.118037 0.662739 -0.895078
C128  C     C_3   0.947716 0.131527 0.289209 0.107026
C129  C     C_3   0.900934 0.162757 0.278448 -0.821423
C130  C     C_3   0.904293 0.077567 0.666261 0.117649
C131  C     C_3   0.880218 0.123161 0.687116 -0.919597
C132  C     C_3   0.585555 0.619006 0.252085 0.139914
C133  C     C_3   0.604350 0.641591 0.205167 -0.817376
C134  C     C_3   0.592027 0.568156 0.655084 0.200940
C135  C     C_3   0.530431 0.515025 0.693777 0.721530
C136  C     C_3   0.615082 0.618029 0.662723 -0.894940
C137  C     C_3   0.447549 0.631557 0.288299 0.107592
C138  C     C_3   0.400454 0.662432 0.277716 -0.820416
C139  C     C_3   0.404292 0.577557 0.666252 0.117641
C140  C     C_3   0.380216 0.623152 0.687104 -0.919552
C141  C     C_3   0.586053 0.118800 0.754208 0.138044
C142  C     C_3   0.604745 0.142437 0.707776 -0.818657
C143  C     C_3   0.592027 0.068163 0.155089 0.201071
C144  C     C_3   0.615083 0.118036 0.162733 -0.895248
C145  C     C_3   0.447715 0.131527 0.789212 0.107049
C146  C     C_3   0.469590 0.546492 0.282232 0.707312
C147  C     C_3   0.400934 0.162757 0.778449 -0.821455
C148  C     C_3   0.404293 0.077566 0.166259 0.118095
C149  C     C_3   0.380218 0.123160 0.187113 -0.920444
C150  C     C_3   0.086062 0.618790 0.754269 0.137886
C151  C     C_3   0.104749 0.642457 0.707851 -0.818398
C152  C     C_3   0.092028 0.568165 0.155091 0.200923
C153  C     C_3   0.115084 0.618037 0.162737 -0.894989
C154  C     C_3   0.947722 0.631508 0.789278 0.107047
C155  C     C_3   0.900946 0.662748 0.778525 -0.821472
C156  C     C_3   0.904293 0.577567 0.166261 0.117657
C157  C     C_3   0.468213 0.518872 0.694702 0.730757
C158  C     C_3   0.880218 0.623161 0.187115 -0.919602
C159  C     C_3   0.531221 0.050370 0.775548 0.715254
C160  C     C_3   0.530431 0.015030 0.193777 0.721568
C161  C     C_3   0.469408 0.046400 0.782746 0.714577
C162  C     C_3   0.468213 0.018877 0.194703 0.730687
C163  C     C_3   0.031223 0.550355 0.775573 0.715261
C164  C     C_R   0.608458 0.000259 0.249373 0.848222
C165  C     C_3   0.030431 0.515031 0.193778 0.721564
C166  C     C_3   0.969410 0.546384 0.782769 0.714564
C167  C     C_3   0.968213 0.518878 0.194703 0.730727
C168  C     C_3   0.027745 0.994577 0.197661 -0.176363
C169  C     C_3   0.031047 0.040631 0.784478 -0.044394
C170  C     C_3   0.969052 0.003232 0.198568 -0.082420
C171  C     C_3   0.971874 0.037198 0.789097 -0.134182
C172  C     C_3   0.527805 0.493504 0.197768 -0.172743
C173  C     C_3   0.531047 0.540635 0.784474 -0.044398
C174  C     C_3   0.469071 0.501954 0.198501 -0.074103
C175  C     C_R   0.608398 0.999758 0.749480 0.900518
C176  C     C_3   0.471874 0.537202 0.789093 -0.134180
C177  C     C_3   0.527745 0.994579 0.697661 -0.176329
C178  C     C_3   0.531047 0.040632 0.284477 -0.044152
C179  C     C_3   0.469052 0.003234 0.698568 -0.082369
C180  C     C_3   0.471874 0.037199 0.289096 -0.133957
C181  C     C_3   0.027743 0.494605 0.697656 -0.176364
C182  C     C_3   0.031047 0.540631 0.284478 -0.044393
C183  C     C_3   0.969051 0.503261 0.698570 -0.082390
C184  C     C_3   0.971874 0.537198 0.289097 -0.134188
C185  C     C_3   0.050639 0.001442 0.250246 -0.088724
C186  C     C_R   0.891427 0.501150 0.249217 0.846438
C187  C     C_3   0.050904 0.001309 0.747476 -0.165538
C188  C     C_3   0.949087 0.000969 0.252225 -0.106934
C189  C     C_3   0.948871 0.003150 0.747645 -0.126254
C190  C     C_3   0.550611 0.501326 0.250215 -0.087093
C191  C     C_3   0.550904 0.501309 0.747477 -0.165568
C192  C     C_3   0.449138 0.500917 0.252141 -0.085278
C193  C     C_3   0.448870 0.503150 0.747645 -0.126281
C194  C     C_3   0.550639 0.001442 0.750246 -0.088714
C195  C     C_3   0.550904 0.001309 0.247476 -0.165530
C196  C     C_3   0.449087 0.000970 0.752226 -0.106938
C197  C     C_R   0.891505 0.499872 0.750227 0.833546
C198  C     C_3   0.448871 0.003150 0.247645 -0.126166
C199  C     C_3   0.050639 0.501441 0.750245 -0.088708
C200  C     C_3   0.050904 0.501309 0.247476 -0.165495
C201  C     C_3   0.949088 0.500970 0.752227 -0.106941
C202  C     C_3   0.948871 0.503150 0.247645 -0.126238
C203  C     C_1   0.250199 0.000310 0.069009 -0.155401
C204  C     C_1   0.250423 0.000119 0.931000 -0.152367
C205  C     C_1   0.749744 0.000042 0.069007 -0.152112
C206  C     C_1   0.749928 0.000189 0.930998 -0.150302
C207  C     C_1   0.750198 0.500310 0.069009 -0.155186
C208  C     C_R   0.108458 0.500259 0.249373 0.848122
C209  C     C_1   0.750423 0.500119 0.931000 -0.152293
C210  C     C_1   0.249744 0.500042 0.069007 -0.151760
C211  C     C_1   0.249928 0.500189 0.930998 -0.150181
C212  C     C_1   0.750199 0.000310 0.569009 -0.155477
C213  C     C_1   0.750423 0.000119 0.431000 -0.152475
C214  C     C_1   0.249744 0.000042 0.569007 -0.152201
C215  C     C_1   0.249928 0.000189 0.430998 -0.150449
C216  C     C_1   0.250197 0.500309 0.569009 -0.155510
C217  C     C_1   0.250422 0.500118 0.431000 -0.152720
C218  C     C_1   0.749746 0.500040 0.569008 -0.152187
C219  C     C_R   0.108399 0.499756 0.749478 0.900487
C220  C     C_1   0.749931 0.500187 0.430998 -0.150514
C221  C     C_1   0.250397 0.000332 0.025487 -0.003286
C222  C     C_1   0.250507 0.000237 0.974525 -0.005598
C223  C     C_1   0.749727 0.000115 0.025484 -0.005874
C224  C     C_1   0.749819 0.000190 0.974522 -0.004370
C225  C     C_1   0.750396 0.500331 0.025487 -0.003140
C226  C     C_1   0.750507 0.500237 0.974525 -0.005491
C227  C     C_1   0.249727 0.500115 0.025484 -0.005582
C228  C     C_1   0.249819 0.500190 0.974522 -0.004186
C229  C     C_1   0.750397 0.000331 0.525487 -0.003386
C230  C     C_R   0.891427 0.001150 0.749217 0.846472
C231  C     C_1   0.750507 0.000237 0.474525 -0.005706
C232  C     C_1   0.249726 0.000115 0.525484 -0.005989
C233  C     C_1   0.249819 0.000190 0.474522 -0.004503
C234  C     C_1   0.250394 0.500330 0.525487 -0.003499
C235  C     C_1   0.250505 0.500235 0.474525 -0.005953
C236  C     C_1   0.749730 0.500112 0.525484 -0.006003
C237  C     C_1   0.749824 0.500187 0.474522 -0.004515
C238  C     C_R   0.249983 0.000067 0.379203 0.821342
C239  C     C_R   0.249900 0.000013 0.620799 0.807938
C240  C     C_R   0.750144 0.000029 0.379205 0.809921
H1    H     H_    0.037924 0.966794 0.320637 0.215289
H2    H     H_    0.543821 0.920446 0.246069 0.156213
H3    H     H_    0.481210 0.473510 0.594857 0.194512
H4    H     H_    0.470126 0.535557 0.604458 0.158237
H5    H     H_    0.373109 0.515661 0.593355 0.237199
H6    H     H_    0.412078 0.499518 0.542375 0.210234
H7    H     H_    0.391378 0.453703 0.584404 0.277580
H8    H     H_    0.522547 0.076022 0.882272 0.215417
H9    H     H_    0.532804 0.122051 0.837723 0.099736
H10   H     H_    0.626874 0.118239 0.854149 0.234557
H11   H     H_    0.590367 0.130852 0.907904 0.218228
H12   H     H_    0.615576 0.070923 0.897803 0.271600
H13   H     H_    0.454993 0.951280 0.814419 0.204565
H14   H     H_    0.510915 0.919606 0.163320 0.163406
H15   H     H_    0.578634 0.921000 0.181278 0.194965
H16   H     H_    0.606324 0.930155 0.099065 0.270910
H17   H     H_    0.572121 0.874702 0.110517 0.211525
H18   H     H_    0.541280 0.922584 0.077919 0.233114
H19   H     H_    0.393715 0.003627 0.852795 0.193088
H20   H     H_    0.382179 0.061830 0.824853 0.163180
H21   H     H_    0.418648 0.100651 0.899727 0.241024
H22   H     H_    0.365420 0.061290 0.912862 0.222890
H23   H     H_    0.430327 0.041412 0.924679 0.263608
H24   H     H_    0.461763 0.928543 0.225152 0.178595
H25   H     H_    0.481210 0.973524 0.094854 0.194646
H26   H     H_    0.470127 0.035570 0.104461 0.158212
H27   H     H_    0.373108 0.015676 0.093356 0.237015
H28   H     H_    0.412078 0.999542 0.042374 0.210391
H29   H     H_    0.391378 0.953720 0.084396 0.277734
H30   H     H_    0.022555 0.575948 0.882313 0.215397
H31   H     H_    0.032806 0.622002 0.837788 0.099714
H32   H     H_    0.126880 0.618178 0.854202 0.234568
H33   H     H_    0.090377 0.630769 0.907965 0.218147
H34   H     H_    0.115583 0.570844 0.897836 0.271615
H35   H     H_    0.037926 0.466755 0.820617 0.215305
H36   H     H_    0.010915 0.419608 0.163318 0.163413
H37   H     H_    0.078634 0.421001 0.181276 0.194979
H38   H     H_    0.106324 0.430158 0.099064 0.270906
H39   H     H_    0.072121 0.374705 0.110514 0.211570
H40   H     H_    0.041280 0.422588 0.077918 0.233095
H41   H     H_    0.893718 0.503582 0.852805 0.193122
H42   H     H_    0.882184 0.561797 0.824887 0.163159
H43   H     H_    0.918665 0.600581 0.899779 0.240978
H44   H     H_    0.865430 0.561223 0.912897 0.222886
H45   H     H_    0.930334 0.541328 0.924702 0.263611
H46   H     H_    0.043821 0.420446 0.246067 0.156215
H47   H     H_    0.981210 0.473527 0.094854 0.194636
H48   H     H_    0.970127 0.535573 0.104462 0.158190
H49   H     H_    0.873108 0.515678 0.093357 0.236996
H50   H     H_    0.912078 0.499547 0.042374 0.210371
H51   H     H_    0.891379 0.453722 0.084393 0.277752
H52   H     H_    0.061247 0.056792 0.168220 0.264390
H53   H     H_    0.086638 0.004210 0.148184 0.200504
H54   H     H_    0.025182 0.109037 0.751545 0.274259
H55   H     H_    0.051526 0.109341 0.806604 0.185723
H56   H     H_    0.977004 0.076841 0.181966 0.271131
H57   H     H_    0.954995 0.451249 0.814396 0.204573
H58   H     H_    0.956130 0.042355 0.136086 0.189301
H59   H     H_    0.934126 0.098777 0.763176 0.263334
H60   H     H_    0.919789 0.084837 0.821057 0.219527
H61   H     H_    0.560865 0.555332 0.167176 0.264546
H62   H     H_    0.586923 0.502541 0.148457 0.199686
H63   H     H_    0.525183 0.609037 0.751534 0.274259
H64   H     H_    0.551527 0.609347 0.806593 0.185750
H65   H     H_    0.476156 0.575224 0.180609 0.271109
H66   H     H_    0.456462 0.539541 0.135084 0.189956
H67   H     H_    0.434127 0.598779 0.763164 0.263321
H68   H     H_    0.961763 0.428544 0.225151 0.178595
H69   H     H_    0.419788 0.584845 0.821046 0.219570
H70   H     H_    0.561246 0.056794 0.668220 0.264366
H71   H     H_    0.586638 0.004212 0.648183 0.200485
H72   H     H_    0.525182 0.109037 0.251543 0.273976
H73   H     H_    0.551526 0.109342 0.306602 0.185011
H74   H     H_    0.477004 0.076842 0.681968 0.271089
H75   H     H_    0.456130 0.042357 0.636087 0.189182
H76   H     H_    0.434126 0.098778 0.263174 0.263182
H77   H     H_    0.419789 0.084838 0.321055 0.219188
H78   H     H_    0.061250 0.556835 0.668249 0.264395
H79   H     H_    0.032934 0.956093 0.187696 0.149026
H80   H     H_    0.086631 0.504262 0.648177 0.200518
H81   H     H_    0.025182 0.609037 0.251545 0.274261
H82   H     H_    0.051526 0.609341 0.306604 0.185715
H83   H     H_    0.977006 0.576879 0.682008 0.271127
H84   H     H_    0.956128 0.542420 0.636109 0.189291
H85   H     H_    0.934126 0.598777 0.263175 0.263334
H86   H     H_    0.919789 0.584837 0.321057 0.219514
H87   H     H_    0.118160 0.098120 0.270552 0.190017
H88   H     H_    0.075996 0.149082 0.278465 0.125754
H89   H     H_    0.072317 0.160859 0.189179 0.245824
H90   H     H_    0.047335 0.031686 0.820646 0.146039
H91   H     H_    0.134706 0.169699 0.216370 0.217406
H92   H     H_    0.121661 0.115246 0.183140 0.272432
H93   H     H_    0.080996 0.064463 0.616427 0.164209
H94   H     H_    0.122155 0.041187 0.663816 0.160294
H95   H     H_    0.127191 0.122319 0.701019 0.266559
H96   H     H_    0.149200 0.122652 0.639206 0.207234
H97   H     H_    0.086321 0.146284 0.653661 0.268792
H98   H     H_    0.981877 0.151634 0.276500 0.172147
H99   H     H_    0.949684 0.126801 0.328713 0.147510
H100  H     H_    0.865486 0.144459 0.291121 0.242363
H101  H     H_    0.950611 0.973314 0.177994 0.128074
H102  H     H_    0.904611 0.197992 0.297289 0.202904
H103  H     H_    0.897699 0.169355 0.238970 0.272468
H104  H     H_    0.876649 0.047568 0.670665 0.165649
H105  H     H_    0.908912 0.085173 0.627217 0.161483
H106  H     H_    0.909305 0.152378 0.690008 0.277242
H107  H     H_    0.848540 0.135641 0.663165 0.217356
H108  H     H_    0.863366 0.115774 0.723028 0.255003
H109  H     H_    0.617730 0.598930 0.269051 0.191092
H110  H     H_    0.575207 0.649820 0.275556 0.124714
H111  H     H_    0.571922 0.659428 0.186003 0.245724
H112  H     H_    0.043821 0.920446 0.746067 0.156220
H113  H     H_    0.964856 0.018790 0.824057 0.148748
H114  H     H_    0.634156 0.669169 0.213222 0.217289
H115  H     H_    0.621517 0.613891 0.181263 0.272394
H116  H     H_    0.580993 0.564448 0.616420 0.164225
H117  H     H_    0.622155 0.541180 0.663811 0.160299
H118  H     H_    0.627191 0.622315 0.701002 0.266526
H119  H     H_    0.649194 0.622643 0.639187 0.207286
H120  H     H_    0.586315 0.646275 0.653645 0.268814
H121  H     H_    0.481451 0.651813 0.275219 0.171268
H122  H     H_    0.449866 0.627017 0.327818 0.147031
H123  H     H_    0.365243 0.643976 0.290731 0.241885
H124  H     H_    0.533042 0.454758 0.188621 0.168172
H125  H     H_    0.404025 0.697783 0.296358 0.202677
H126  H     H_    0.396854 0.668817 0.238230 0.272675
H127  H     H_    0.376649 0.547558 0.670657 0.165669
H128  H     H_    0.408911 0.585160 0.627208 0.161523
H129  H     H_    0.409301 0.652370 0.689995 0.277250
H130  H     H_    0.348537 0.635629 0.663152 0.217392
H131  H     H_    0.363363 0.615765 0.723017 0.254983
H132  H     H_    0.618159 0.098121 0.770553 0.190015
H133  H     H_    0.575995 0.149083 0.778466 0.125773
H134  H     H_    0.572314 0.160857 0.689179 0.245746
H135  H     H_    0.547335 0.531693 0.820643 0.146093
H136  H     H_    0.634702 0.169703 0.716370 0.217363
H137  H     H_    0.621662 0.115248 0.683142 0.272437
H138  H     H_    0.580994 0.064459 0.116425 0.164263
H139  H     H_    0.622155 0.041186 0.163815 0.160295
H140  H     H_    0.627192 0.122319 0.201012 0.266431
H141  H     H_    0.649196 0.122651 0.139198 0.207407
H142  H     H_    0.586317 0.146282 0.153657 0.268776
H143  H     H_    0.481877 0.151633 0.776505 0.172131
H144  H     H_    0.449682 0.126800 0.828716 0.147563
H145  H     H_    0.365485 0.144463 0.791128 0.242393
H146  H     H_    0.451040 0.470997 0.179003 0.149810
H147  H     H_    0.404614 0.197995 0.797285 0.202994
H148  H     H_    0.397697 0.169350 0.738971 0.272373
H149  H     H_    0.376649 0.047567 0.170663 0.165631
H150  H     H_    0.408912 0.085171 0.127215 0.161535
H151  H     H_    0.409305 0.152377 0.190006 0.276899
H152  H     H_    0.348540 0.135639 0.163163 0.217620
H153  H     H_    0.363365 0.115773 0.223026 0.254951
H154  H     H_    0.118168 0.598096 0.770595 0.189982
H155  H     H_    0.076013 0.649058 0.778550 0.125786
H156  H     H_    0.072318 0.660894 0.689271 0.245838
H157  H     H_    0.464856 0.518799 0.824055 0.148820
H158  H     H_    0.134711 0.669714 0.716459 0.217340
H159  H     H_    0.121658 0.615284 0.683195 0.272436
H160  H     H_    0.080995 0.564463 0.116427 0.164220
H161  H     H_    0.122155 0.541187 0.163816 0.160253
H162  H     H_    0.127193 0.622318 0.201017 0.266543
H163  H     H_    0.149198 0.622652 0.139203 0.207263
H164  H     H_    0.086320 0.646284 0.153662 0.268813
H165  H     H_    0.981887 0.651617 0.776584 0.172156
H166  H     H_    0.949684 0.626762 0.828779 0.147527
H167  H     H_    0.865491 0.644438 0.791165 0.242403
H168  H     H_    0.532934 0.956095 0.687696 0.149017
H169  H     H_    0.904614 0.697965 0.797402 0.202936
H170  H     H_    0.897732 0.669383 0.739053 0.272414
H171  H     H_    0.876649 0.547568 0.170664 0.165635
H172  H     H_    0.908912 0.585173 0.127217 0.161497
H173  H     H_    0.909305 0.652378 0.190008 0.277251
H174  H     H_    0.848539 0.635641 0.163165 0.217364
H175  H     H_    0.863365 0.615773 0.223028 0.254985
H176  H     H_    0.547335 0.031688 0.320645 0.145913
H177  H     H_    0.450611 0.973316 0.677994 0.128057
H178  H     H_    0.464856 0.018792 0.324056 0.148672
H179  H     H_    0.032931 0.456127 0.687670 0.149007
H180  H     H_    0.954993 0.951282 0.314421 0.204562
H181  H     H_    0.047335 0.531686 0.320646 0.146034
H182  H     H_    0.950609 0.473356 0.677979 0.128066
H183  H     H_    0.964856 0.518790 0.324057 0.148741
H184  H     H_    0.051044 0.899163 0.238175 0.188008
H185  H     H_    0.042282 0.885622 0.297171 0.217040
H186  H     H_    0.022806 0.960070 0.841608 0.197384
H187  H     H_    0.082167 0.944558 0.821725 0.172141
H188  H     H_    0.965946 0.907500 0.216659 0.175772
H189  H     H_    0.915503 0.903044 0.254621 0.220939
H190  H     H_    0.931438 0.948219 0.824953 0.176428
H191  H     H_    0.961763 0.928544 0.725150 0.178593
H192  H     H_    0.909248 0.908692 0.784050 0.188619
H193  H     H_    0.550179 0.398069 0.240583 0.201504
H194  H     H_    0.544595 0.387080 0.300628 0.193768
H195  H     H_    0.522805 0.460080 0.841612 0.197513
H196  H     H_    0.582167 0.444566 0.821732 0.172205
H197  H     H_    0.418021 0.410167 0.238340 0.201651
H198  H     H_    0.460479 0.379718 0.270994 0.191529
H199  H     H_    0.431439 0.448228 0.824959 0.176548
H200  H     H_    0.409247 0.408697 0.784061 0.188625
H201  H     H_    0.551044 0.899163 0.738172 0.188005
H202  H     H_    0.536652 0.467968 0.321158 0.213329
H203  H     H_    0.542283 0.885622 0.797167 0.217047
H204  H     H_    0.522806 0.960072 0.341609 0.197333
H205  H     H_    0.582167 0.944560 0.321726 0.172128
H206  H     H_    0.465948 0.907501 0.716656 0.175768
H207  H     H_    0.415503 0.903045 0.754617 0.220938
H208  H     H_    0.431438 0.948221 0.324954 0.176404
H209  H     H_    0.409248 0.908693 0.284052 0.188607
H210  H     H_    0.051041 0.399170 0.738118 0.187983
H211  H     H_    0.042284 0.385597 0.797106 0.217053
H212  H     H_    0.022806 0.460070 0.341608 0.197373
H213  H     H_    0.543821 0.420445 0.746076 0.156205
H214  H     H_    0.082167 0.444559 0.321725 0.172097
H215  H     H_    0.965943 0.407519 0.716611 0.175758
H216  H     H_    0.915498 0.403049 0.754569 0.220902
H217  H     H_    0.931438 0.448220 0.324953 0.176407
H218  H     H_    0.909248 0.408692 0.284050 0.188608
H219  H     H_    0.022547 0.076022 0.382271 0.215393
H220  H     H_    0.032804 0.122051 0.337722 0.099697
H221  H     H_    0.126876 0.118234 0.354146 0.234553
H222  H     H_    0.090368 0.130856 0.407898 0.218104
H223  H     H_    0.115573 0.070925 0.397805 0.271632
H224  H     H_    0.453359 0.449445 0.313271 0.189461
H225  H     H_    0.010915 0.919608 0.663318 0.163404
H226  H     H_    0.078634 0.921002 0.681276 0.194976
H227  H     H_    0.106324 0.930159 0.599063 0.270912
H228  H     H_    0.072121 0.874705 0.610514 0.211538
H229  H     H_    0.041280 0.922588 0.577917 0.233102
H230  H     H_    0.893713 0.003631 0.352793 0.193086
H231  H     H_    0.882179 0.061833 0.324850 0.163162
H232  H     H_    0.918653 0.100653 0.399724 0.240964
H233  H     H_    0.865419 0.061299 0.412858 0.222872
H234  H     H_    0.930322 0.041412 0.424677 0.263624
H235  H     H_    0.461763 0.428541 0.725159 0.178563
H236  H     H_    0.981210 0.973527 0.594854 0.194636
H237  H     H_    0.970127 0.035573 0.604462 0.158187
H238  H     H_    0.873108 0.015677 0.593359 0.237018
H239  H     H_    0.912077 0.999549 0.542375 0.210370
H240  H     H_    0.891380 0.953722 0.584392 0.277740
H241  H     H_    0.522699 0.577942 0.380900 0.215247
H242  H     H_    0.533264 0.623373 0.335799 0.099072
H243  H     H_    0.627181 0.619545 0.352391 0.234727
H244  H     H_    0.590647 0.632895 0.405957 0.218036
H245  H     H_    0.615730 0.572792 0.396623 0.271376
H246  H     H_    0.537923 0.966793 0.820635 0.215292
H247  H     H_    0.510915 0.419598 0.663327 0.163303
H248  H     H_    0.578634 0.420994 0.681285 0.194966
H249  H     H_    0.606325 0.430142 0.599072 0.270993
H250  H     H_    0.572121 0.374690 0.610529 0.211406
H251  H     H_    0.541281 0.422569 0.577927 0.232849
H252  H     H_    0.394419 0.503759 0.352709 0.191783
H253  H     H_    0.382605 0.561920 0.324770 0.162467
H254  H     H_    0.419438 0.600943 0.399312 0.240976
H255  H     H_    0.366346 0.561536 0.412837 0.222849
H256  H     H_    0.431357 0.541782 0.424372 0.263602
N1    N     N_3   0.056421 0.911714 0.273324 -0.411165
N2    N     N_3   0.542774 0.939564 0.316292 -0.416933
N3    N     N_3   0.455105 0.908413 0.752815 -0.459282
N4    N     N_3   0.442726 0.924825 0.297472 -0.417506
N5    N     N_3   0.056421 0.411702 0.773272 -0.411203
N6    N     N_3   0.042774 0.439562 0.316290 -0.416951
N7    N     N_3   0.955101 0.408413 0.752771 -0.459284
N8    N     N_3   0.942726 0.424824 0.297471 -0.417508
N9    N     N_3   0.052656 0.021540 0.158375 -0.460477
N10   N     N_3   0.049989 0.089872 0.774242 -0.373857
N11   N     N_3   0.953262 0.047787 0.173376 -0.363377
N12   N     N_3   0.042774 0.939562 0.816290 -0.416903
N13   N     N_3   0.948892 0.085377 0.795113 -0.461705
N14   N     N_3   0.552700 0.519801 0.158039 -0.464089
N15   N     N_3   0.549990 0.589874 0.774233 -0.373857
N16   N     N_3   0.452955 0.545724 0.172201 -0.372118
N17   N     N_3   0.448892 0.585382 0.795103 -0.461676
N18   N     N_3   0.552655 0.021542 0.658375 -0.460576
N19   N     N_3   0.549989 0.089873 0.274240 -0.374133
N20   N     N_3   0.453261 0.047789 0.673377 -0.363457
N21   N     N_3   0.448892 0.085378 0.295111 -0.462569
N22   N     N_3   0.052652 0.521590 0.658384 -0.460494
N23   N     N_3   0.955105 0.908413 0.252819 -0.459289
N24   N     N_3   0.049989 0.589872 0.274242 -0.373854
N25   N     N_3   0.953262 0.547832 0.673403 -0.363362
N26   N     N_3   0.948892 0.585377 0.295112 -0.461712
N27   N     N_3   0.942726 0.924824 0.797471 -0.417479
N28   N     N_3   0.556775 0.412279 0.274947 -0.416325
N29   N     N_3   0.542774 0.439569 0.816298 -0.416748
N30   N     N_3   0.456649 0.409869 0.248494 -0.466521
N31   N     N_3   0.442725 0.424830 0.797479 -0.417362
N32   N     N_3   0.556421 0.911714 0.773321 -0.411164
O1    O     O_3   0.250000 0.999990 0.250000 -0.478357
O2    O     O_R   0.366860 0.972110 0.777870 -0.700192
O3    O     O_R   0.133150 0.027840 0.222150 -0.677641
O4    O     O_R   0.366850 0.527840 0.777850 -0.671161
O5    O     O_R   0.366850 0.527840 0.222150 -0.580091
O6    O     O_R   0.633150 0.527840 0.777850 -0.628818
O7    O     O_R   0.633150 0.527840 0.222150 -0.677518
O8    O     O_3   0.059677 0.051949 0.320538 -0.671194
O9    O     O_3   0.049214 0.985690 0.654058 -0.670970
O10   O     O_3   0.959988 0.039425 0.333418 -0.700351
O11   O     O_3   0.945024 0.986999 0.659756 -0.665565
O12   O     O_3   0.559931 0.552987 0.319544 -0.670585
O13   O     O_R   0.633140 0.972110 0.222130 -0.665748
O14   O     O_3   0.549214 0.485680 0.654061 -0.670954
O15   O     O_3   0.460492 0.539674 0.332974 -0.698425
O16   O     O_3   0.445024 0.486988 0.659758 -0.665556
O17   O     O_3   0.559677 0.051949 0.820539 -0.671215
O18   O     O_3   0.549214 0.985688 0.154059 -0.670968
O19   O     O_3   0.459989 0.039423 0.833420 -0.700349
O20   O     O_3   0.445024 0.986997 0.159756 -0.665583
O21   O     O_3   0.059680 0.551909 0.820565 -0.671185
O22   O     O_3   0.049214 0.485690 0.154058 -0.670977
O23   O     O_3   0.959992 0.539381 0.833440 -0.700352
O24   O     O_R   0.633140 0.972110 0.777870 -0.606693
O25   O     O_3   0.945024 0.486999 0.159756 -0.665563
O26   O     O_3   0.041685 0.090563 0.244225 -0.680683
O27   O     O_3   0.047693 0.063362 0.684362 -0.612908
O28   O     O_3   0.942778 0.087664 0.263542 -0.617959
O29   O     O_3   0.953733 0.068728 0.686848 -0.630209
O30   O     O_3   0.541387 0.590295 0.242646 -0.679710
O31   O     O_3   0.547693 0.563355 0.684356 -0.612909
O32   O     O_3   0.442768 0.587562 0.262852 -0.618909
O33   O     O_3   0.453732 0.568721 0.686840 -0.630210
O34   O     O_3   0.541684 0.090563 0.744226 -0.680702
O35   O     O_R   0.866860 0.472110 0.222130 -0.615372
O36   O     O_3   0.547693 0.063361 0.184360 -0.612944
O37   O     O_3   0.442777 0.087664 0.763544 -0.617986
O38   O     O_3   0.453733 0.068727 0.186847 -0.630268
O39   O     O_3   0.041688 0.590566 0.744274 -0.680690
O40   O     O_3   0.047693 0.563362 0.184362 -0.612901
O41   O     O_3   0.942780 0.587658 0.763589 -0.617986
O42   O     O_3   0.953733 0.568728 0.186848 -0.630207
O43   O     O_R   0.866860 0.472110 0.777870 -0.700209
O44   O     O_R   0.133140 0.472110 0.222130 -0.665820
O45   O     O_R   0.133140 0.472110 0.777870 -0.606685
O46   O     O_R   0.866860 0.972110 0.722130 -0.615357
O47   O     O_R   0.866860 0.972110 0.277870 -0.700198
O48   O     O_R   0.133140 0.972110 0.722130 -0.665756
O49   O     O_3   0.250000 0.999990 0.750000 -0.479531
O50   O     O_R   0.133140 0.972110 0.277870 -0.606693
O51   O     O_R   0.366860 0.472110 0.722130 -0.615366
O52   O     O_R   0.366860 0.472110 0.277870 -0.697694
O53   O     O_R   0.633140 0.472110 0.722130 -0.665751
O54   O     O_R   0.633140 0.472110 0.277870 -0.605817
O55   O     O_R   0.280630 0.027850 0.356260 -0.638953
O56   O     O_R   0.280630 0.027850 0.643740 -0.631734
O57   O     O_R   0.719370 0.027850 0.356260 -0.635530
O58   O     O_R   0.719370 0.027850 0.643740 -0.643440
O59   O     O_R   0.780630 0.527850 0.356260 -0.638710
O60   O     O_3   0.750000 0.999990 0.250000 -0.479507
O61   O     O_R   0.780630 0.527850 0.643740 -0.631653
O62   O     O_R   0.219370 0.527850 0.356260 -0.635322
O63   O     O_R   0.219370 0.527850 0.643740 -0.643355
O64   O     O_R   0.780630 0.027850 0.856260 -0.638799
O65   O     O_R   0.780630 0.027850 0.143740 -0.631652
O66   O     O_R   0.219370 0.027850 0.856260 -0.635411
O67   O     O_R   0.219370 0.027850 0.143740 -0.643375
O68   O     O_R   0.280630 0.527850 0.856260 -0.638765
O69   O     O_R   0.280630 0.527850 0.143740 -0.631137
O70   O     O_R   0.719370 0.527850 0.856260 -0.635393
O71   O     O_3   0.750000 0.999990 0.750000 -0.478400
O72   O     O_R   0.719370 0.527850 0.143740 -0.643514
O73   O     O_R   0.280630 0.106260 0.277850 -0.640579
O74   O     O_R   0.280630 0.106260 0.722150 -0.627242
O75   O     O_R   0.719370 0.106260 0.277850 -0.634475
O76   O     O_R   0.719370 0.106260 0.722150 -0.648895
O77   O     O_R   0.780630 0.606260 0.277850 -0.640155
O78   O     O_R   0.780630 0.606260 0.722150 -0.627172
O79   O     O_R   0.219370 0.606260 0.277850 -0.634244
O80   O     O_R   0.219370 0.606260 0.722150 -0.648865
O81   O     O_R   0.780630 0.106260 0.777850 -0.640239
O82   O     O_3   0.750000 0.499990 0.250000 -0.478326
O83   O     O_R   0.780630 0.106260 0.222150 -0.627099
O84   O     O_R   0.219370 0.106260 0.777850 -0.634248
O85   O     O_R   0.219370 0.106260 0.222150 -0.648738
O86   O     O_R   0.280630 0.606260 0.777850 -0.640256
O87   O     O_R   0.280630 0.606260 0.222150 -0.627349
O88   O     O_R   0.719370 0.606260 0.777850 -0.634281
O89   O     O_R   0.719370 0.606260 0.222150 -0.649016
O90   O     O_R   0.280650 0.893700 0.222130 -0.635957
O91   O     O_R   0.280650 0.893700 0.777870 -0.634994
O92   O     O_R   0.719350 0.893700 0.222130 -0.638221
O93   O     O_3   0.750000 0.499990 0.750000 -0.479545
O94   O     O_R   0.719350 0.893700 0.777870 -0.632545
O95   O     O_R   0.780650 0.393700 0.222130 -0.635790
O96   O     O_R   0.780650 0.393700 0.777870 -0.634965
O97   O     O_R   0.219350 0.393700 0.222130 -0.637942
O98   O     O_R   0.219350 0.393700 0.777870 -0.632497
O99   O     O_R   0.780650 0.893700 0.722130 -0.635953
O100  O     O_R   0.780650 0.893700 0.277870 -0.634985
O101  O     O_R   0.219350 0.893700 0.722130 -0.638199
O102  O     O_R   0.219350 0.893700 0.277870 -0.632542
O103  O     O_R   0.280650 0.393700 0.722130 -0.636037
O104  O     O_3   0.250000 0.499990 0.250000 -0.479427
O105  O     O_R   0.280650 0.393700 0.277870 -0.635050
O106  O     O_R   0.719350 0.393700 0.722130 -0.638239
O107  O     O_R   0.719350 0.393700 0.277870 -0.633070
O108  O     O_R   0.219370 0.972130 0.356260 -0.627316
O109  O     O_R   0.219370 0.972130 0.643740 -0.641542
O110  O     O_R   0.780630 0.972130 0.356260 -0.643913
O111  O     O_R   0.780630 0.972130 0.643740 -0.630154
O112  O     O_R   0.719370 0.472130 0.356260 -0.627610
O113  O     O_R   0.719370 0.472130 0.643740 -0.641613
O114  O     O_R   0.280630 0.472130 0.356260 -0.644536
O115  O     O_3   0.250000 0.499990 0.750000 -0.478404
O116  O     O_R   0.280630 0.472130 0.643740 -0.630260
O117  O     O_R   0.719370 0.972130 0.856260 -0.627364
O118  O     O_R   0.719370 0.972130 0.143740 -0.641572
O119  O     O_R   0.280630 0.972130 0.856260 -0.643951
O120  O     O_R   0.280630 0.972130 0.143740 -0.630176
O121  O     O_R   0.219370 0.472130 0.856260 -0.627354
O122  O     O_R   0.219370 0.472130 0.143740 -0.641612
O123  O     O_R   0.780630 0.472130 0.856260 -0.643954
O124  O     O_R   0.780630 0.472130 0.143740 -0.630167
O125  O     O_R   0.366850 0.027840 0.277850 -0.671168
O126  O     O_R   0.366860 0.972110 0.222130 -0.615365
O127  O     O_R   0.366850 0.027840 0.722150 -0.580173
O128  O     O_R   0.633150 0.027840 0.277850 -0.628873
O129  O     O_R   0.633150 0.027840 0.722150 -0.677628
O130  O     O_R   0.866850 0.527840 0.277850 -0.671217
O131  O     O_R   0.866850 0.527840 0.722150 -0.580186
O132  O     O_R   0.133150 0.527840 0.277850 -0.628864
O133  O     O_R   0.133150 0.527840 0.722150 -0.677650
O134  O     O_R   0.866850 0.027840 0.777850 -0.671185
O135  O     O_R   0.866850 0.027840 0.222150 -0.580160
O136  O     O_R   0.133150 0.027840 0.777850 -0.628836
Zn1   Zn    Zn3+2 0.206230 0.960180 0.289800 0.990623
Zn2   Zn    Zn3+2 0.706230 0.960180 0.210200 0.954740
Zn3   Zn    Zn3+2 0.293770 0.960180 0.789800 0.942061
Zn4   Zn    Zn3+2 0.293770 0.960180 0.210200 0.973802
Zn5   Zn    Zn3+2 0.206230 0.460180 0.789800 0.990662
Zn6   Zn    Zn3+2 0.206230 0.460180 0.210200 0.955122
Zn7   Zn    Zn3+2 0.793770 0.460180 0.789800 0.942081
Zn8   Zn    Zn3+2 0.793770 0.460180 0.210200 0.973857
Zn9   Zn    Zn3+2 0.293770 0.039800 0.289800 0.944135
Zn10  Zn    Zn3+2 0.293770 0.039800 0.710200 0.987017
Zn11  Zn    Zn3+2 0.706230 0.039800 0.289800 0.964674
Zn12  Zn    Zn3+2 0.206230 0.960180 0.710200 0.954750
Zn13  Zn    Zn3+2 0.706230 0.039800 0.710200 0.933600
Zn14  Zn    Zn3+2 0.793770 0.539800 0.289800 0.944749
Zn15  Zn    Zn3+2 0.793770 0.539800 0.710200 0.987114
Zn16  Zn    Zn3+2 0.206230 0.539800 0.289800 0.964902
Zn17  Zn    Zn3+2 0.206230 0.539800 0.710200 0.933650
Zn18  Zn    Zn3+2 0.793770 0.039800 0.789800 0.944517
Zn19  Zn    Zn3+2 0.793770 0.039800 0.210200 0.987158
Zn20  Zn    Zn3+2 0.206230 0.039800 0.789800 0.964957
Zn21  Zn    Zn3+2 0.206230 0.039800 0.210200 0.933712
Zn22  Zn    Zn3+2 0.293770 0.539800 0.789800 0.944578
Zn23  Zn    Zn3+2 0.793770 0.960180 0.289800 0.942063
Zn24  Zn    Zn3+2 0.293770 0.539800 0.210200 0.987835
Zn25  Zn    Zn3+2 0.706230 0.539800 0.789800 0.964993
Zn26  Zn    Zn3+2 0.706230 0.539800 0.210200 0.933821
Zn27  Zn    Zn3+2 0.793770 0.960180 0.710200 0.973789
Zn28  Zn    Zn3+2 0.706230 0.460180 0.289800 0.990247
Zn29  Zn    Zn3+2 0.706230 0.460180 0.710200 0.954700
Zn30  Zn    Zn3+2 0.293770 0.460180 0.289800 0.941460
Zn31  Zn    Zn3+2 0.293770 0.460180 0.710200 0.973665
Zn32  Zn    Zn3+2 0.706230 0.960180 0.789800 0.990615

loop_
_geom_bond_atom_site_label_1
_geom_bond_atom_site_label_2
_ccdc_geom_bond_type
C156  H171  S    
C159  O17   S    
C126  C127  S    
H208  N4    S    
C148  H149  S    
C159  C194  S    
C149  H152  S    
H204  N2    S    
C1    C198  S    
C215  C233  T    
O1    Zn1   S    
C83   N5    S    
C94   H236  S    
C115  H30   S    
C19   O75   A    
O129  Zn13  S    
C153  H162  S    
C157  C193  S    
C50   C59   S    
C20   C66   S    
C84   C86   S    
C82   C198  S    
C52   C61   T    
C130  O29   S    
C161  O37   S    
H80   N22   S    
H60   N13   S    
C123  O26   S    
C54   C63   T    
C163  O39   S    
C143  C144  S    
C151  H156  S    
C154  H166  S    
C22   O88   A    
C186  C202  S    
C109  O19   S    
C106  H12   S    
O115  Zn5   S    
C77   C193  S    
C86   N8    S    
C70   C185  S    
C74   C190  S    
C167  O42   S    
O43   Zn7   S    
C44   C53   S    
O104  Zn24  S    
C223  C224  S    
C172  C174  S    
H210  N5    S    
C129  H103  S    
C179  N20   S    
C159  C161  S    
O112  Zn28  S    
C78   H246  S    
C101  C188  S    
C86   C202  S    
C102  H256  S    
C6    O114  A    
H61   N14   S    
C16   C207  S    
C86   H68   S    
O123  Zn7   S    
C200  C208  S    
H217  N8    S    
C26   C34   S    
O75   Zn11  S    
C16   O124  A    
C131  H106  S    
H82   N24   S    
H216  N7    S    
O73   Zn9   S    
O1    Zn21  S    
C181  C183  S    
O66   Zn20  S    
C164  C195  S    
C178  N19   S    
C122  H51   S    
C183  C201  S    
H69   N17   S    
C169  C187  S    
C138  H125  S    
C46   C192  S    
C71   C73   S    
C4    O112  A    
C155  H167  S    
C159  O34   S    
C172  C190  S    
C169  H90   S    
C173  C191  S    
O70   Zn25  S    
C98   O14   S    
C161  C196  S    
C24   C185  S    
C146  O32   S    
C109  H19   S    
C105  H8    S    
C46   O52   A    
O45   Zn5   S    
C115  O21   S    
C6    C217  S    
C121  O25   S    
C227  C228  S    
C88   H221  S    
C104  H7    S    
H52   N9    S    
C17   O73   A    
C68   O7    A    
C158  H173  S    
C154  C155  S    
C96   O12   S    
C152  H160  S    
C184  H183  S    
C131  H107  S    
C238  O108  A    
C176  H157  S    
C179  H177  S    
C153  H164  S    
C140  H130  S    
H70   N18   S    
C36   C44   T    
H81   N24   S    
C209  C226  T    
C32   C41   S    
C37   C45   T    
C141  O34   S    
C114  H29   S    
O71   Zn32  S    
H218  N8    S    
C2    O47   A    
C85   N7    S    
H197  N30   S    
C145  H143  S    
C92   O10   S    
H212  N6    S    
C8    O117  A    
O60   Zn23  S    
C71   C187  S    
C155  H169  S    
C139  C140  S    
C57   C191  S    
C186  O35   A    
C162  C198  S    
C149  H153  S    
H207  N3    S    
C106  H10   S    
C156  C158  S    
C189  C230  S    
C90   O9    S    
C136  H120  S    
O54   Zn28  S    
C118  H39   S    
H214  N6    S    
H53   N9    S    
C87   H219  S    
O87   Zn24  S    
C230  O46   A    
C130  C131  S    
O59   Zn14  S    
C3    O111  A    
C25   C62   S    
O65   Zn19  S    
C25   O86   A    
C102  H254  S    
C180  C198  S    
C105  H9    S    
C80   H2    S    
C119  O23   S    
C30   O107  A    
C167  O25   S    
C98   C99   S    
C134  O31   S    
H205  N2    S    
C8    O64   A    
C99   H250  S    
C127  H95   S    
C125  H91   S    
C126  O27   S    
C75   N29   S    
C81   H13   S    
C114  H27   S    
C165  O40   S    
C127  H97   S    
O58   Zn13  S    
O2    Zn3   S    
C171  H113  S    
O53   Zn29  S    
C93   H234  S    
C169  N10   S    
C13   C187  S    
O96   Zn7   S    
O85   Zn21  S    
C122  H50   S    
O89   Zn26  S    
C128  C129  S    
C217  C235  T    
C144  H140  S    
C100  H253  S    
C119  H41   S    
C135  O14   S    
O71   Zn13  S    
C20   O76   A    
C6    O62   A    
C33   O98   A    
C74   C76   S    
O74   Zn10  S    
C33   C42   S    
C112  O127  A    
C97   H243  S    
O116  Zn31  S    
C147  H147  S    
O120  Zn4   S    
C115  H31   S    
C43   C52   S    
C88   H223  S    
C40   C49   T    
C123  H88   S    
O135  Zn19  S    
C236  C237  S    
C7    O116  A    
C167  C202  S    
C3    O58   A    
C92   C93   S    
O7    Zn26  S    
C17   O85   A    
O93   Zn15  S    
H201  N32   S    
C59   C67   T    
C238  O55   A    
C120  H43   S    
O4    Zn22  S    
C20   O81   A    
C14   O122  A    
C206  C224  T    
C177  C179  S    
C135  O31   S    
C29   C38   S    
C107  C108  S    
C175  O129  A    
C165  O22   S    
C32   O97   A    
C89   C91   S    
C197  O43   A    
O127  Zn10  S    
C7    C216  S    
C213  C231  T    
H215  N7    S    
C96   H241  S    
C81   N3    S    
C18   C69   S    
C5    O113  A    
C158  H174  S    
C165  C167  S    
O108  Zn1   S    
C96   C97   S    
C129  H100  S    
C180  N21   S    
C169  C171  S    
C108  H17   S    
C136  H118  S    
O6    Zn25  S    
C83   H35   S    
C80   N2    S    
C15   O123  A    
C87   O8    S    
C105  O17   S    
C111  H26   S    
C124  O30   S    
O49   Zn20  S    
C137  H121  S    
C98   H247  S    
C18   O74   A    
C199  C219  S    
C111  H25   S    
C113  O29   S    
H193  N28   S    
H85   N26   S    
H56   N11   S    
C19   O83   A    
C177  H168  S    
C11   O67   A    
O71   Zn18  S    
C124  C146  S    
C10   O66   A    
O81   Zn18  S    
C133  H115  S    
C94   O11   S    
C74   H202  S    
C121  H48   S    
C160  C162  S    
C90   O27   S    
C75   C191  S    
C221  C222  S    
C76   C192  S    
C156  O42   S    
C152  O40   S    
C144  H141  S    
C150  H154  S    
O88   Zn25  S    
C27   O91   A    
O5    Zn24  S    
C173  H135  S    
C103  H4    S    
C110  H23   S    
C107  H15   S    
O103  Zn31  S    
C75   C77   S    
C100  O15   S    
C172  N14   S    
H84   N25   S    
O51   Zn31  S    
C101  O10   S    
H198  N30   S    
O90   Zn4   S    
C211  C228  T    
C141  C142  S    
C82   H24   S    
C154  O41   S    
H75   N20   S    
C112  C196  S    
C139  H127  S    
C181  C199  S    
C46   O5    A    
H194  N28   S    
C2    O135  A    
C219  O133  A    
O113  Zn29  S    
C183  H182  S    
C148  H150  S    
C74   N28   S    
C149  H151  S    
C97   H245  S    
C34   C43   T    
C12   C211  S    
O107  Zn28  S    
C134  H116  S    
C45   C54   S    
C147  H145  S    
C130  H105  S    
O136  Zn20  S    
O72   Zn26  S    
C71   H112  S    
C78   N32   S    
O86   Zn22  S    
C177  N18   S    
C104  H6    S    
O121  Zn5   S    
O126  Zn4   S    
C57   O6    A    
H77   N21   S    
O49   Zn3   S    
C132  O30   S    
C117  C118  S    
C175  O24   A    
C79   C101  S    
C28   C37   S    
C28   O92   A    
O60   Zn2   S    
H209  N4    S    
C30   C39   S    
C128  H99   S    
H67   N17   S    
C116  H33   S    
C73   C189  S    
C95   H238  S    
O71   Zn27  S    
O92   Zn2   S    
C152  C153  S    
C25   O80   A    
C170  C188  S    
C129  H102  S    
C16   O72   A    
O56   Zn10  S    
C150  C151  S    
O105  Zn30  S    
O60   Zn11  S    
C51   C60   S    
C83   C199  S    
C21   O89   A    
O110  Zn23  S    
C174  C192  S    
O13   Zn2   S    
C141  H133  S    
C87   C88   S    
C186  O130  A    
C151  H158  S    
C73   H191  S    
C216  C234  T    
O64   Zn18  S    
O48   Zn12  S    
C213  C240  S    
C214  C232  T    
O79   Zn16  S    
C171  N13   S    
C124  C190  S    
C164  O128  A    
C82   N4    S    
H211  N5    S    
O52   Zn30  S    
C113  O11   S    
C135  C157  S    
C47   C55   S    
C138  H126  S    
C35   O4    A    
C70   H1    S    
C158  H175  S    
O68   Zn22  S    
C123  C125  S    
C141  H132  S    
C90   C187  S    
O35   Zn8   S    
O69   Zn24  S    
C31   C40   S    
O102  Zn1   S    
C156  H172  S    
C78   C194  S    
C181  H179  S    
C110  H21   S    
C1    O126  A    
C178  H176  S    
C108  H18   S    
O76   Zn13  S    
O106  Zn29  S    
C88   H222  S    
C91   H228  S    
C4    C220  S    
C89   H226  S    
C168  C185  S    
C143  H138  S    
C73   N27   S    
C183  N25   S    
C85   C201  S    
C117  O22   S    
O115  Zn31  S    
C9    O118  A    
H59   N13   S    
H195  N29   S    
C29   O99   A    
O94   Zn32  S    
H206  N3    S    
C153  H163  S    
C108  H16   S    
O104  Zn6   S    
C22   O78   A    
H78   N22   S    
C132  H109  S    
C168  H79   S    
C18   O84   A    
C173  N15   S    
C145  C147  S    
C170  N11   S    
H86   N26   S    
C179  C196  S    
O101  Zn12  S    
C72   H180  S    
C103  O16   S    
C17   C67   S    
C157  O16   S    
C163  C166  S    
H199  N31   S    
C10   O119  A    
C13   O136  A    
C171  C189  S    
C177  C194  S    
C79   O8    S    
C154  H165  S    
C76   H224  S    
C76   N30   S    
C166  C201  S    
C106  H11   S    
C174  H146  S    
O95   Zn8   S    
O3    Zn21  S    
O98   Zn5   S    
C130  H104  S    
C94   H237  S    
O117  Zn32  S    
C5    C218  S    
C68   C190  S    
C151  H159  S    
C182  C200  S    
C11   C203  S    
H64   N15   S    
C92   H230  S    
C168  N9    S    
C135  C191  S    
C121  C122  S    
O131  Zn15  S    
C160  C195  S    
C161  O19   S    
C112  O2    A    
H58   N11   S    
C172  H124  S    
O128  Zn11  S    
C99   H249  S    
O133  Zn17  S    
C220  C237  T    
H72   N19   S    
C234  C235  S    
C93   H233  S    
O82   Zn28  S    
C41   C50   T    
O1    Zn9   S    
O104  Zn16  S    
C92   H231  S    
C84   N6    S    
C137  C138  S    
C80   C195  S    
O115  Zn17  S    
O55   Zn9   S    
C204  C222  T    
H200  N31   S    
O62   Zn16  S    
H76   N21   S    
C181  N22   S    
C26   O102  A    
C14   O69   A    
H185  N1    S    
C138  H123  S    
O50   Zn1   S    
C178  C180  S    
C119  C120  S    
C27   C36   S    
C113  C189  S    
C105  C106  S    
C107  O18   S    
C30   O95   A    
H71   N18   S    
O63   Zn17  S    
C109  H20   S    
C214  C239  S    
C218  C236  T    
O57   Zn11  S    
C170  H101  S    
C109  C110  S    
C93   H232  S    
C78   C81   S    
O134  Zn18  S    
H55   N10   S    
C132  H110  S    
C79   O26   S    
C123  H87   S    
C232  C233  S    
C80   C82   S    
C205  C223  T    
C19   C65   S    
C111  C114  S    
C142  H136  S    
C152  H161  S    
C94   C95   S    
C2    C188  S    
H189  N23   S    
C35   C193  S    
C22   C64   S    
C23   C61   S    
C107  H14   S    
C101  O28   S    
C68   O54   A    
C140  H129  S    
C103  C104  S    
C12   O121  A    
C77   H235  S    
C9    C205  S    
H54   N10   S    
C128  H98   S    
C116  H32   S    
O1    Zn4   S    
O104  Zn30  S    
C95   H239  S    
C115  C116  S    
C9    O65   A    
C39   C48   T    
O24   Zn32  S    
C96   H242  S    
C239  O109  A    
C160  O36   S    
C145  H144  S    
O125  Zn9   S    
C212  C229  T    
O84   Zn20  S    
C210  C227  T    
C71   N12   S    
C240  O110  A    
C182  N24   S    
C118  H38   S    
C26   O90   A    
C155  H170  S    
C208  O44   A    
C99   H251  S    
C84   C200  S    
C219  O45   A    
C203  C221  T    
C98   H248  S    
C60   C69   T    
C174  N16   S    
O44   Zn6   S    
C229  C231  S    
C114  H28   S    
H83   N25   S    
C136  H119  S    
C168  C170  S    
O83   Zn19  S    
O118  Zn2   S    
C56   C65   T    
C87   H220  S    
C208  O132  A    
O119  Zn3   S    
C133  H114  S    
C12   O68   A    
C148  O38   S    
C121  H47   S    
C90   C113  S    
C72   C188  S    
C72   N23   S    
C117  H37   S    
H192  N27   S    
C144  H142  S    
C150  H155  S    
C58   C66   T    
C23   O87   A    
C100  H252  S    
C21   C63   S    
C132  C133  S    
C4    O59   A    
C160  O18   S    
O49   Zn10  S    
C103  H3    S    
C127  H96   S    
C125  H92   S    
C197  C201  S    
C139  O33   S    
C35   O51   A    
O97   Zn6   S    
O82   Zn26  S    
C166  O41   S    
C28   O100  A    
C175  C194  S    
C89   O9    S    
H196  N29   S    
C24   O50   A    
C42   C51   T    
C165  C200  S    
C124  O12   S    
O130  Zn14  S    
C91   H229  S    
C143  O36   S    
C146  C192  S    
C122  H49   S    
C143  H139  S    
C117  H36   S    
C197  O131  A    
C207  C225  T    
C162  O38   S    
C119  H42   S    
C182  C184  S    
C27   O101  A    
C120  H45   S    
O91   Zn3   S    
C85   H57   S    
C184  C202  S    
C14   C210  S    
C126  H93   S    
H186  N12   S    
C145  O37   S    
C29   O94   A    
C97   H244  S    
C1    O125  A    
C148  C149  S    
O114  Zn30  S    
C134  H117  S    
C147  H148  S    
C142  H137  S    
H65   N16   S    
C134  C136  S    
H187  N12   S    
H73   N19   S    
C49   C58   S    
H74   N20   S    
C142  H134  S    
C24   O3    A    
O60   Zn19  S    
C8    C206  S    
H63   N15   S    
C150  O39   S    
C239  O56   A    
C184  N26   S    
C53   C62   T    
O122  Zn6   S    
H184  N1    S    
C31   O96   A    
C140  H131  S    
C55   C64   T    
C100  C102  S    
C225  C226  S    
C102  H255  S    
C215  C238  S    
C116  H34   S    
C38   C47   T    
O82   Zn14  S    
C164  O13   A    
C15   O70   A    
O93   Zn25  S    
C133  H111  S    
O82   Zn8   S    
O77   Zn14  S    
O80   Zn17  S    
O67   Zn21  S    
C70   N1    S    
C176  C193  S    
C126  H94   S    
O109  Zn12  S    
C5    O61   A    
O93   Zn7   S    
C137  O32   S    
C7    O63   A    
C173  C176  S    
O93   Zn29  S    
C3    C212  S    
C48   C56   S    
C84   H46   S    
C146  O15   S    
C79   C185  S    
O100  Zn23  S    
C83   C85   S    
C137  H122  S    
C32   O105  A    
O46   Zn27  S    
C57   O53   A    
C182  H181  S    
C95   H240  S    
C31   O106  A    
C180  H178  S    
C131  H108  S    
O78   Zn15  S    
H203  N32   S    
C70   C72   S    
C77   N31   S    
C33   O103  A    
O61   Zn15  S    
C178  C195  S    
O115  Zn22  S    
C162  O20   S    
O111  Zn27  S    
H188  N23   S    
C120  H44   S    
C15   C209  S    
C157  O33   S    
C11   O120  A    
O124  Zn8   S    
C81   C196  S    
C118  H40   S    
C13   O48   A    
C21   O77   A    
C240  O57   A    
C230  O134  A    
O132  Zn16  S    
O49   Zn12  S    
C163  O21   S    
C23   O79   A    
C128  O28   S    
C75   H213  S    
C166  O23   S    
C176  N17   S    
C110  H22   S    
H66   N16   S    
C163  C199  S    
O47   Zn23  S    
C125  H89   S    
C91   H227  S    
C104  H5    S    
H190  N27   S    
C89   H225  S    
C139  H128  S    
C10   C204  S    
H62   N14   S    
O99   Zn27  S    
C111  O20   S    
