data_mof_unit_52886.cif
_audit_creation_date              2012-10-26T19:40:06-0400
_audit_creation_method            fapswitch 2.2
_symmetry_space_group_name_H-M    P1
_symmetry_Int_Tables_number       1
_space_group_crystal_system       triclinic
_cell_length_a                    14.990173
_cell_length_b                    8.757898
_cell_length_c                    7.430833
_cell_angle_alpha                 102.744523
_cell_angle_beta                  94.169474
_cell_angle_gamma                 93.493998
_cell_volume                      946.009141434

loop_
_atom_site_label
_atom_site_type_symbol
_atom_type_description
_atom_site_fract_x
_atom_site_fract_y
_atom_site_fract_z
_atom_type_partial_charge
C1    C     C_R   0.497029 0.200102 0.454154 0.582063
C2    C     C_R   0.180085 0.349664 0.472374 0.059002
C3    C     C_R   0.767306 0.506871 0.493184 0.021408
C4    C     C_R   0.232694 0.493131 0.506816 0.021408
C5    C     C_R   0.805727 0.364496 0.453082 -0.133200
C6    C     C_R   0.194274 0.635506 0.546916 -0.133200
C7    C     C_R   0.897873 0.361924 0.447256 -0.001433
C8    C     C_R   0.102127 0.638079 0.552738 -0.001433
C9    C     C_R   0.953169 0.503194 0.499559 0.028987
C10   C     C_R   0.046831 0.496810 0.500433 0.028988
C11   C     C_R   0.914718 0.650145 0.550341 0.048036
C12   C     C_R   0.502971 0.799898 0.545846 0.582063
C13   C     C_R   0.085281 0.349859 0.449650 0.048037
C14   C     C_R   0.934549 0.219388 0.385224 -0.113457
C15   C     C_R   0.065451 0.780616 0.614767 -0.113456
C16   C     C_3   0.057563 0.059764 0.270633 -0.371588
C17   C     C_3   0.942437 0.940244 0.729347 -0.371590
C18   C     C_R   0.027021 0.211645 0.378142 0.002195
C19   C     C_R   0.972979 0.788360 0.621846 0.002192
C20   C     C_2   0.485481 0.033616 0.430820 0.067578
C21   C     C_2   0.514518 0.966384 0.569180 0.067578
C22   C     C_R   0.329006 0.497131 0.502135 0.571108
C23   C     C_R   0.670994 0.502869 0.497865 0.571108
C24   C     C_R   0.819914 0.650338 0.527622 0.059004
Cu1   Cu    Cu3+1 0.510010 0.517380 0.684380 1.060753
Cu2   Cu    Cu3+1 0.489990 0.482620 0.315620 1.060753
H1    H     H_    0.763070 0.255525 0.420532 0.142417
H2    H     H_    0.996854 0.006471 0.831334 0.126219
H3    H     H_    0.924006 0.016687 0.634395 0.170847
H4    H     H_    0.885855 0.917362 0.810673 0.174923
H5    H     H_    0.236930 0.744477 0.579467 0.142418
H6    H     H_    0.890204 0.113423 0.335243 0.143221
H7    H     H_    0.109796 0.886581 0.664746 0.143224
H8    H     H_    0.429739 0.377292 0.948354 0.262414
H9    H     H_    0.570260 0.622708 0.051645 0.262414
H10   H     H_    0.003150 0.993555 0.168622 0.126217
H11   H     H_    0.114155 0.082648 0.189331 0.174929
H12   H     H_    0.075980 0.983305 0.365575 0.170845
I1    I     I_    0.752242 0.850233 0.485490 -0.421954
I2    I     I_    0.247754 0.149765 0.514507 -0.421958
I3    I     I_    0.408502 0.917391 0.173983 -0.239185
I4    I     I_    0.591496 0.082609 0.826018 -0.239184
N1    N     N_2   0.474890 0.456420 0.038520 -0.236221
N2    N     N_2   0.525110 0.543580 0.961480 -0.236220
O1    O     O_R   0.506510 0.286130 0.619770 -0.496358
O2    O     O_R   0.493490 0.713870 0.380230 -0.496358
O3    O     O_R   0.489600 0.256770 0.308360 -0.468432
O4    O     O_R   0.510400 0.743230 0.691640 -0.468431
O5    O     O_R   0.378710 0.514640 0.655720 -0.494460
O6    O     O_R   0.621290 0.485360 0.344280 -0.494459
O7    O     O_R   0.361800 0.485290 0.344300 -0.484886
O8    O     O_R   0.638200 0.514710 0.655700 -0.484886

loop_
_geom_bond_atom_site_label_1
_geom_bond_atom_site_label_2
_ccdc_geom_bond_type
C2    C4    A    
N1    N2    D    
C17   H4    S    
Cu1   O1    S    
C7    C14   A    
C17   H3    S    
C9    C10   A    
C14   C18   A    
C3    C23   S    
C16   H11   S    
C12   O4    A    
C11   C19   A    
C6    H5    S    
C23   O8    A    
Cu1   O8    S    
Cu2   O7    S    
C16   H10   S    
C15   C19   A    
H9    N2    S    
C9    C11   A    
Cu1   O4    S    
C1    O1    A    
C3    C24   A    
Cu2   O3    S    
C22   O5    A    
C13   C18   A    
Cu1   N2    S    
C12   O2    A    
C17   C19   S    
Cu2   N1    S    
C20   I3    S    
C8    C15   A    
C7    C9    A    
Cu2   O6    S    
Cu1   O5    S    
C4    C6    A    
Cu2   O2    S    
C21   I4    S    
C2    I2    S    
C11   C24   A    
C24   I1    S    
C4    C22   S    
C20   C21   D    
C16   C18   S    
C14   H6    S    
C5    C7    A    
C2    C13   A    
C1    O3    A    
C23   O6    A    
C6    C8    A    
C3    C5    A    
Cu1   Cu2   S    
C5    H1    S    
C17   H2    S    
C12   C21   S    
C15   H7    S    
C8    C10   A    
H8    N1    S    
C16   H12   S    
C22   O7    A    
C1    C20   S    
C10   C13   A    
