data_mof_unit_21567.cif
_audit_creation_date              2012-12-11T14:36:04-0500
_audit_creation_method            fapswitch 2.2
_symmetry_space_group_name_H-M    P1
_symmetry_Int_Tables_number       1
_space_group_crystal_system       triclinic
_cell_length_a                    13.545593
_cell_length_b                    13.554667
_cell_length_c                    27.513407
_cell_angle_alpha                 90.72516
_cell_angle_beta                  90.650935
_cell_angle_gamma                 60.07641
_cell_volume                      4377.77667145

loop_
_atom_site_label
_atom_site_type_symbol
_atom_type_description
_atom_site_fract_x
_atom_site_fract_y
_atom_site_fract_z
_atom_type_partial_charge
C1    C     C_R   0.621852 0.101686 0.569719 0.545182
C2    C     C_1   0.635467 0.721954 0.614165 0.073440
C3    C     C_3   0.645788 0.575862 0.768900 0.388166
C4    C     C_3   0.680574 0.643360 0.803529 -0.099248
C5    C     C_3   0.565607 0.685387 0.740902 0.099733
C6    C     C_3   0.665946 0.661304 0.707188 -0.079088
C7    C     C_3   0.601101 0.752614 0.775819 0.397412
C8    C     C_3   0.700573 0.728660 0.741964 0.344907
C9    C     C_1   0.688374 0.627070 0.856437 0.091433
C10   C     C_1   0.654072 0.687059 0.655202 0.094858
C11   C     C_3   0.074957 0.191116 0.735083 -0.124291
C12   C     C_R   0.600507 0.777976 0.568192 0.541279
C13   C     C_3   0.135430 0.094421 0.772696 0.377792
C14   C     C_1   0.092459 0.204673 0.902008 0.070734
C15   C     C_1   0.239282 0.136010 0.619146 0.071081
C16   C     C_3   0.087412 0.273211 0.771125 0.382902
C17   C     C_3   0.145906 0.176830 0.808261 -0.083141
C18   C     C_3   0.203805 0.241379 0.749896 0.400826
C19   C     C_3   0.192643 0.158717 0.714143 -0.099088
C20   C     C_3   0.263319 0.145130 0.787674 0.091284
C21   C     C_3   0.251984 0.062582 0.751636 0.395408
C22   C     C_1   0.119115 0.188452 0.859967 0.087406
C23   C     C_R   0.280462 0.120920 0.570230 0.550237
C24   C     C_1   0.215760 0.146987 0.661764 0.082598
C25   C     C_3   0.623169 0.275096 0.740376 0.419806
C26   C     C_3   0.557655 0.238768 0.774152 0.410092
C27   C     C_1   0.686735 0.206645 0.903546 0.061824
C28   C     C_1   0.644259 0.134907 0.616701 0.072586
C29   C     C_3   0.728586 0.218048 0.774355 0.108490
C30   C     C_3   0.662253 0.181459 0.808110 -0.108866
C31   C     C_3   0.772720 0.105450 0.745627 0.361181
C32   C     C_3   0.668137 0.163117 0.711712 -0.073473
C33   C     C_3   0.708337 0.067871 0.779788 0.099553
C34   C     C_R   0.622673 0.101353 0.432282 0.561710
C35   C     C_3   0.602490 0.125471 0.745539 0.058595
C36   C     C_1   0.668752 0.194100 0.861334 0.075533
C37   C     C_1   0.659850 0.151892 0.658614 0.100550
C38   C     C_R   0.732456 0.718096 0.360248 0.362455
C39   C     C_R   0.742467 0.702134 0.309892 -0.008762
C40   C     C_R   0.753960 0.678738 0.207721 -0.020827
C41   C     C_R   0.825613 0.710567 0.232883 0.175429
C42   C     C_R   0.818747 0.722670 0.283471 0.428323
C43   C     C_R   0.762950 0.655812 0.157271 0.388208
C44   C     C_R   0.685222 0.630847 0.134123 -0.003897
C45   C     C_R   0.603073 0.774569 0.431047 0.576150
C46   C     C_R   0.581074 0.670963 0.361440 0.373845
C47   C     C_R   0.589322 0.655023 0.311246 -0.038969
C48   C     C_R   0.668530 0.673507 0.285191 -0.187706
C49   C     C_R   0.514646 0.628516 0.286202 0.472709
C50   C     C_R   0.514822 0.625360 0.235979 0.399688
C51   C     C_R   0.592066 0.644541 0.210084 -0.044165
C52   C     C_R   0.671870 0.665487 0.234344 -0.101071
C53   C     C_R   0.593910 0.637215 0.160158 -0.137829
C54   C     C_R   0.644664 0.712796 0.385051 -0.017280
C55   C     C_R   0.213553 0.056224 0.358143 0.337879
C56   C     C_R   0.276337 0.121173 0.431408 0.585559
C57   C     C_R   0.187616 0.070427 0.308541 -0.001840
C58   C     C_R   0.153314 0.091398 0.207156 0.015464
C59   C     C_R   0.176964 0.989476 0.230698 0.102018
C60   C     C_R   0.194100 0.980222 0.280795 -0.039724
C61   C     C_R   0.126923 0.108831 0.157321 0.342085
C62   C     C_R   0.112383 0.207675 0.134695 -0.015083
C63   C     C_R   0.170826 0.252427 0.364359 0.327054
C64   C     C_R   0.154359 0.265726 0.313946 -0.058871
C65   C     C_R   0.163447 0.173020 0.285840 -0.095828
C66   C     C_R   0.134395 0.366293 0.290425 0.148718
C67   C     C_3   0.744959 0.551851 0.734815 0.404937
C68   C     C_R   0.127658 0.371854 0.239933 0.374606
C69   C     C_R   0.139364 0.279349 0.211738 -0.021491
C70   C     C_R   0.151003 0.181641 0.234938 -0.094940
C71   C     C_R   0.136671 0.283150 0.160818 0.093869
C72   C     C_R   0.212846 0.144893 0.385295 0.020010
C73   C     C_R   0.553627 0.235182 0.363554 -0.168149
C74   C     C_R   0.564186 0.256513 0.315145 -0.004449
C75   C     C_R   0.579319 0.284257 0.214590 0.030543
C76   C     C_R   0.477644 0.354043 0.239980 -0.044704
C77   C     C_R   0.470326 0.340031 0.289617 -0.059678
C78   C     C_3   0.781520 0.618649 0.769815 -0.116469
C79   C     C_R   0.588933 0.295898 0.163997 0.078098
C80   C     C_R   0.692869 0.220334 0.140512 -0.001951
C81   C     C_R   0.752298 0.085242 0.365817 0.438513
C82   C     C_R   0.763841 0.104179 0.316970 0.026958
C83   C     C_R   0.667934 0.188094 0.291126 -0.057107
C84   C     C_R   0.866970 0.036523 0.292535 0.453519
C85   C     C_R   0.872485 0.047819 0.242830 -0.096794
C86   C     C_R   0.776778 0.127535 0.216987 -0.066443
C87   C     C_R   0.674744 0.200712 0.240892 0.020335
C88   C     C_R   0.783496 0.135163 0.167445 -0.127047
C89   C     C_1   0.697078 0.604253 0.899113 0.068822
C90   C     C_R   0.645088 0.144808 0.387886 -0.016784
C91   C     C_R   0.047979 0.237030 0.949886 0.545338
C92   C     C_R   0.711575 0.561969 0.947863 0.546706
C93   C     C_R   0.721242 0.225401 0.951024 0.547392
C94   C     C_R   0.050100 0.244386 0.088092 0.568455
C95   C     C_R   0.708012 0.574203 0.086608 0.568054
C96   C     C_R   0.720976 0.235660 0.090624 0.549421
Cr1   Cr    Cr6+3 0.417550 0.169090 0.500530 1.118708
Cr2   Cr    Cr6+3 0.669180 0.913420 0.499920 1.185125
Cr3   Cr    Cr6+3 0.413260 0.917540 0.499520 1.172710
Cr4   Cr    Cr6+3 0.909170 0.177380 0.020380 1.130819
Cr5   Cr    Cr6+3 0.912710 0.429210 0.018220 1.142025
Cr6   Cr    Cr6+3 0.657170 0.432570 0.019030 1.107661
H1    H     H_    0.868914 0.595453 0.781701 0.241621
H2    H     H_    0.530495 0.622915 0.142194 0.232605
H3    H     H_    0.214564 0.900672 0.297952 0.249529
H4    H     H_    0.471284 0.283263 0.380928 0.177251
H5    H     H_    0.402002 0.418734 0.222073 0.220344
H6    H     H_    0.390265 0.393242 0.307907 0.176456
H7    H     H_    0.864074 0.076993 0.150406 0.194621
H8    H     H_    0.951682 0.993084 0.224333 0.172451
H9    H     H_    0.998024 0.210052 0.713347 0.227972
O1    O     O_R   0.301710 0.195650 0.554160 -0.477218
O2    O     O_R   0.658900 0.818120 0.449760 -0.445384
O3    O     O_R   0.503220 0.801620 0.445520 -0.413026
O4    O     O_R   0.319370 0.022040 0.450020 -0.437933
O5    O     O_3   0.499990 0.000010 0.499990 -0.323854
O6    O     O_R   0.818720 0.150820 0.967160 -0.486818
O7    O     O_R   0.006410 0.181720 0.970200 -0.487763
O8    O     O_R   0.027890 0.334070 0.964920 -0.490653
O9    O     O_R   0.809600 0.521790 0.967960 -0.492504
O10   O     O_R   0.635520 0.542770 0.964420 -0.480244
O11   O     O_R   0.665950 0.325030 0.970100 -0.481222
O12   O     O_R   0.522390 0.158990 0.550460 -0.489646
O13   O     O_R   0.816620 0.158530 0.074540 -0.497772
O14   O     O_R   0.004460 0.188870 0.069750 -0.433832
O15   O     O_R   0.025800 0.341780 0.072300 -0.476327
O16   O     O_R   0.807650 0.528950 0.067500 -0.426578
O17   O     O_R   0.633420 0.550490 0.071810 -0.522472
O18   O     O_R   0.664000 0.332180 0.069640 -0.476211
O19   O     O_3   0.826350 0.346390 0.019210 -0.304212
O20   O     O_R   0.694390 0.003530 0.554040 -0.478109
O21   O     O_R   0.657700 0.819660 0.549320 -0.486309
O22   O     O_R   0.501930 0.803280 0.552920 -0.492321
O23   O     O_R   0.318170 0.023580 0.549580 -0.491896
O24   O     O_R   0.303010 0.193990 0.446760 -0.447705
O25   O     O_R   0.523600 0.157450 0.450900 -0.525200
O26   O     O_R   0.695690 0.001860 0.446640 -0.391576
I1    I     I_    0.396603 0.115865 0.838468 -0.032786
F1    F     F_    0.237833 0.318388 0.737507 -0.489385
F2    F     F_    0.004350 0.383033 0.782351 -0.558669
F3    F     F_    0.446663 0.309022 0.788973 -0.487081
F4    F     F_    0.579219 0.380136 0.718597 -0.496893
I2    I     I_    0.511499 0.050399 0.712496 -0.057682
I3    I     I_    0.781141 0.910045 0.817800 -0.022948
F5    F     F_    0.883665 0.037622 0.730156 -0.509511
I4    I     I_    0.832930 0.279085 0.805443 -0.075582
F6    F     F_    0.849983 0.649543 0.130990 -0.569979
F7    F     F_    0.816751 0.448260 0.712932 -0.535268
F8    F     F_    0.802481 0.747017 0.384543 -0.494230
I5    I     I_    0.939018 0.754296 0.198441 0.041515
F9    F     F_    0.884117 0.759162 0.306490 -0.486538
F10   F     F_    0.441091 0.600373 0.212677 -0.593061
F11   F     F_    0.438623 0.609021 0.309886 -0.507431
F12   F     F_    0.504527 0.655210 0.386866 -0.503141
F13   F     F_    0.109843 0.033499 0.130892 -0.598782
F14   F     F_    0.246878 0.953720 0.378967 -0.551564
I6    I     I_    0.200852 0.838476 0.195206 -0.034465
F15   F     F_    0.731090 0.805602 0.725728 -0.549371
I7    I     I_    0.190984 0.385732 0.122997 -0.073578
F16   F     F_    0.101175 0.472170 0.219048 -0.567864
I8    I     I_    0.122264 0.513492 0.325898 0.113826
F17   F     F_    0.151896 0.341341 0.393601 -0.572753
I9    I     I_    0.448168 0.426769 0.124127 -0.160966
F18   F     F_    0.529367 0.855815 0.797719 -0.519651
F19   F     F_    0.961505 0.956489 0.315940 -0.494357
F20   F     F_    0.842813 0.003569 0.390870 -0.478769
I10   I     I_    0.404328 0.709632 0.716672 0.150774
F21   F     F_    0.611897 0.501259 0.784688 -0.521228
F22   F     F_    0.101758 0.017117 0.785070 -0.498543
F23   F     F_    0.337378 0.954225 0.740784 -0.529857

loop_
_geom_bond_atom_site_label_1
_geom_bond_atom_site_label_2
_ccdc_geom_bond_type
C63   F17   S    
C83   C87   A    
C11   C13   S    
C73   C74   A    
C66   C68   A    
C25   F4    S    
Cr6   O18   S    
C74   C83   A    
C43   C44   A    
C8    F15   S    
Cr3   O3    S    
C34   C90   S    
C81   C82   A    
C7    C8    S    
C47   C49   A    
C95   O16   A    
C85   C86   A    
C23   O1    A    
C11   C19   S    
C20   C21   S    
C49   F11   S    
C19   C21   S    
C73   C90   A    
Cr6   O17   S    
C69   C70   A    
Cr3   O4    S    
C5    C6    S    
C86   C88   A    
C53   H2    S    
C65   C70   A    
C17   C20   S    
Cr3   O22   S    
C18   C19   S    
C41   C42   A    
C20   I1    S    
C69   C71   A    
C84   F19   S    
Cr5   O16   S    
C44   C53   A    
C40   C43   A    
C31   C32   S    
C16   C17   S    
C56   C72   S    
C74   C77   A    
Cr2   O20   S    
C1    C28   S    
C81   F20   S    
C31   C33   S    
C80   C96   S    
Cr6   O10   S    
C38   F8    S    
C18   C20   S    
C55   C72   A    
C30   C33   S    
C57   C60   A    
Cr5   O19   S    
C61   C62   A    
C25   C32   S    
C15   C23   S    
C2    C12   S    
C59   C60   A    
C8    C78   S    
C16   F2    S    
C67   C78   S    
C93   O6    A    
C4    C7    S    
C61   F13   S    
C3    F21   S    
Cr5   O15   S    
C39   C42   A    
C94   O15   A    
C33   I3    S    
C25   C29   S    
C55   F14   S    
C46   F12   S    
C3    C67   S    
C96   O13   A    
Cr2   O26   S    
C11   H9    S    
Cr4   O14   S    
Cr5   O8    S    
C32   C35   S    
C76   C77   A    
C85   H8    S    
C9    C89   T    
C29   I4    S    
C5    C7    S    
Cr1   O1    S    
C86   C87   A    
C68   C69   A    
Cr2   O2    S    
C6    C8    S    
C41   I5    S    
C95   O17   A    
C3    C5    S    
C25   C26   S    
C45   O3    A    
C51   C52   A    
C66   I8    S    
Cr4   O13   S    
C64   C66   A    
C75   C76   A    
C1    O12   A    
C4    C78   S    
C29   C30   S    
C50   F10   S    
C11   C16   S    
Cr2   O5    S    
C47   C48   A    
C38   C54   A    
C34   O25   A    
C29   C31   S    
C46   C54   A    
C50   C51   A    
C91   O7    A    
C13   C21   S    
C32   C37   S    
C84   C85   A    
C89   C92   S    
C79   I9    S    
C42   F9    S    
Cr6   O11   S    
C88   H7    S    
Cr1   O12   S    
C75   C87   A    
C15   C24   T    
C45   C54   S    
C26   C30   S    
C76   H5    S    
C82   C84   A    
C12   O22   A    
C62   C94   S    
C49   C50   A    
C91   O8    A    
C27   C93   S    
Cr4   O7    S    
C81   C90   A    
C3    C4    S    
C26   F3    S    
C6    C67   S    
Cr3   O5    S    
C56   O24   A    
C94   O14   A    
C46   C47   A    
C40   C41   A    
C12   O21   A    
C23   O23   A    
C78   H1    S    
Cr5   O9    S    
C77   H6    S    
C58   C70   A    
Cr6   O19   S    
C57   C65   A    
C63   C64   A    
C1    O20   A    
C6    C10   S    
C30   C36   S    
C27   C36   T    
C71   I7    S    
C7    F18   S    
C34   O26   A    
C17   C22   S    
C13   C17   S    
C64   C65   A    
C14   C22   T    
C55   C57   A    
C19   C24   S    
C58   C59   A    
C80   C88   A    
C44   C95   S    
C40   C52   A    
C92   O10   A    
C59   I6    S    
C73   H4    S    
C38   C39   A    
C28   C37   T    
C58   C61   A    
C13   F22   S    
C33   C35   S    
C56   O4    A    
C62   C71   A    
Cr1   O5    S    
Cr4   O19   S    
C5    I10   S    
C92   O9    A    
C18   F1    S    
C14   C91   S    
C43   F6    S    
C79   C80   A    
C31   F5    S    
C45   O2    A    
C26   C35   S    
C48   C52   A    
C63   C72   A    
Cr3   O23   S    
C16   C18   S    
C82   C83   A    
Cr2   O21   S    
C67   F7    S    
Cr1   O24   S    
C39   C48   A    
Cr4   O6    S    
Cr1   O25   S    
C51   C53   A    
C4    C9    S    
C68   F16   S    
C75   C79   A    
C93   O11   A    
C60   H3    S    
C21   F23   S    
C35   I2    S    
C96   O18   A    
C2    C10   T    
