data_mof_unit_45027.cif
_audit_creation_date              2013-03-05T16:13:55-0500
_audit_creation_method            fapswitch 2.2
_symmetry_space_group_name_H-M    P1
_symmetry_Int_Tables_number       1
_space_group_crystal_system       triclinic
_cell_length_a                    10.67386
_cell_length_b                    9.967488
_cell_length_c                    17.555716
_cell_angle_alpha                 90.731444
_cell_angle_beta                  93.294232
_cell_angle_gamma                 88.675971
_cell_volume                      1864.07362765

loop_
_atom_site_label
_atom_site_type_symbol
_atom_site_description
_atom_site_fract_x
_atom_site_fract_y
_atom_site_fract_z
_atom_type_partial_charge
O1    O     O_R   0.316770 0.614620 0.500000 -0.628695
O2    O     O_R   0.683230 0.385380 0.500000 -0.628703
O3    O     O_R   0.683230 0.614620 0.500000 -0.619308
O4    O     O_R   0.316770 0.385380 0.500000 -0.619318
C1    C     C_R   0.261031 0.501942 0.508379 0.885607
C2    C     C_R   0.738979 0.498063 0.491635 0.885652
O5    O     O_R   0.500010 0.614710 0.389120 -0.616260
O6    O     O_R   0.499990 0.385290 0.610880 -0.616234
O7    O     O_R   0.499990 0.614710 0.610880 -0.625474
O8    O     O_R   0.500010 0.385290 0.389120 -0.625374
C3    C     C_R   0.065975 0.382835 0.524758 0.138821
C4    C     C_R   0.934055 0.617221 0.475337 0.138857
C5    C     C_R   0.942437 0.373926 0.496063 0.149631
C6    C     C_R   0.057596 0.626111 0.504027 0.149729
C7    C     C_R   0.500074 0.499019 0.354311 0.916061
C8    C     C_R   0.499912 0.500977 0.645691 0.916023
Zn1   Zn    Zn3+2 0.500000 0.653120 0.500000 0.921436
Zn2   Zn    Zn3+2 0.500000 0.346880 0.500000 0.921508
C9    C     C_R   0.872976 0.494209 0.481390 -0.161124
C10   C     C_R   0.127052 0.505824 0.518672 -0.161238
N1    N     N_R   0.500000 0.857200 0.500000 -0.114959
N2    N     N_R   0.500000 0.142800 0.500000 -0.114942
C11   C     C_R   0.614860 0.476297 0.850590 0.290529
C12   C     C_R   0.607825 0.456087 0.156546 0.303901
C13   C     C_R   0.384705 0.522150 0.149411 0.290714
C14   C     C_R   0.392011 0.543518 0.843472 0.304056
C15   C     C_R   0.614846 0.473488 0.770731 0.011190
C16   C     C_R   0.609115 0.458021 0.236373 0.025596
C17   C     C_R   0.384885 0.525622 0.229281 0.010955
C18   C     C_R   0.390900 0.542221 0.763639 0.025345
C19   C     C_R   0.501841 0.504242 0.727973 -0.111927
C20   C     C_R   0.498090 0.495676 0.272034 -0.111824
C21   C     C_R   0.574064 0.071407 0.552775 0.194423
C22   C     C_R   0.425931 0.928590 0.447226 0.194317
C23   C     C_R   0.424606 0.072301 0.447856 0.195461
C24   C     C_R   0.575386 0.927698 0.552147 0.195409
C25   C     C_R   0.503522 0.510288 0.885849 -0.209009
C26   C     C_R   0.496106 0.488370 0.114157 -0.209012
C27   C     C_1   0.501176 0.502594 0.966300 0.188775
C28   C     C_1   0.498388 0.495674 0.033689 0.188779
N3    N     N_R   0.728187 0.446790 0.896120 0.237116
O9    O     O_R   0.771775 0.534169 0.945939 -0.277253
O10   O     O_R   0.786925 0.331947 0.888788 -0.304201
N4    N     N_R   0.719945 0.423776 0.118084 0.222710
O11   O     O_R   0.724138 0.319302 0.072999 -0.305022
O12   O     O_R   0.814687 0.503841 0.124028 -0.295428
N5    N     N_R   0.271179 0.550779 0.103875 0.237490
O13   O     O_R   0.211764 0.665255 0.111101 -0.303421
O14   O     O_R   0.228175 0.463055 0.054072 -0.277929
N6    N     N_R   0.279924 0.576106 0.881932 0.222957
O15   O     O_R   0.184491 0.497067 0.875250 -0.296160
O16   O     O_R   0.276666 0.679113 0.928093 -0.305289
C29   C     C_3   0.736961 0.444091 0.732863 -0.774416
H1    H     H_    0.765142 0.337139 0.740889 0.267534
H2    H     H_    0.731649 0.464132 0.670828 0.200659
H3    H     H_    0.811926 0.508603 0.758645 0.269299
C30   C     C_3   0.726605 0.417673 0.283994 -0.788886
H4    H     H_    0.805922 0.384901 0.249764 0.279375
H5    H     H_    0.757964 0.503386 0.320529 0.216615
H6    H     H_    0.706172 0.331849 0.320479 0.232590
C31   C     C_3   0.262782 0.554881 0.267192 -0.774556
H7    H     H_    0.187976 0.489912 0.241646 0.269041
H8    H     H_    0.268303 0.535357 0.329284 0.200639
H9    H     H_    0.234252 0.661685 0.258925 0.267675
C32   C     C_3   0.273722 0.583590 0.716019 -0.788856
H10   H     H_    0.194549 0.616797 0.750244 0.279323
H11   H     H_    0.294745 0.669447 0.679710 0.232782
H12   H     H_    0.241887 0.498276 0.679313 0.216662
C33   C     C_3   0.648591 0.144152 0.615874 -0.811053
H13   H     H_    0.672976 0.245139 0.600242 0.285903
H14   H     H_    0.594538 0.148533 0.668044 0.250661
H15   H     H_    0.741270 0.096094 0.629990 0.204896
C34   C     C_3   0.351393 0.855840 0.384128 -0.810786
H16   H     H_    0.326987 0.754857 0.399750 0.285845
H17   H     H_    0.258735 0.903913 0.370007 0.204881
H18   H     H_    0.405442 0.851443 0.331963 0.250633
C35   C     C_3   0.336115 0.144087 0.390713 -0.789781
H19   H     H_    0.335174 0.252549 0.394955 0.291820
H20   H     H_    0.360247 0.116751 0.331729 0.237561
H21   H     H_    0.237867 0.116824 0.399521 0.199807
C36   C     C_3   0.663856 0.855911 0.609302 -0.789713
H22   H     H_    0.664820 0.747450 0.605047 0.291813
H23   H     H_    0.762109 0.883189 0.600522 0.199795
H24   H     H_    0.639684 0.883230 0.668282 0.237568
C37   C     C_3   0.127992 0.263352 0.565951 -0.804450
H25   H     H_    0.207687 0.293879 0.605231 0.246292
H26   H     H_    0.060305 0.215783 0.602419 0.235450
H27   H     H_    0.161387 0.187761 0.524412 0.244390
C38   C     C_3   0.872053 0.736778 0.434201 -0.804573
H28   H     H_    0.792301 0.706374 0.394938 0.246264
H29   H     H_    0.838744 0.812350 0.475777 0.244378
H30   H     H_    0.939727 0.784341 0.397722 0.235417
C39   C     C_3   0.891324 0.236184 0.476246 -0.829682
H31   H     H_    0.815362 0.240666 0.430584 0.251858
H32   H     H_    0.965307 0.170430 0.452560 0.228900
H33   H     H_    0.858152 0.188421 0.527732 0.242202
C40   C     C_3   0.108733 0.763833 0.523873 -0.829699
H34   H     H_    0.184737 0.759296 0.569507 0.251870
H35   H     H_    0.141864 0.811652 0.472392 0.242210
H36   H     H_    0.034781 0.829562 0.547611 0.228898

loop_
_geom_bond_atom_site_label_1
_geom_bond_atom_site_label_2
_geom_bond_distance
_ccdc_geom_bond_type
C35   H19   1.082559 S    
C39   H31   1.107502 S    
O2    Zn2   2.001746 S    
N3    O10   1.300891 A    
C34   H16   1.087927 S    
O3    C2    1.303509 A    
C36   H24   1.110450 S    
C36   H22   1.082561 S    
C7    C20   1.443354 S    
N5    O14   1.300996 A    
N1    C24   1.380000 A    
C29   H1    1.109469 S    
C8    C19   1.443441 S    
C2    C9    1.451315 S    
O1    C1    1.296975 A    
O7    C8    1.294755 A    
C3    C37   1.519893 S    
C17   C20   1.413267 A    
O8    C7    1.294693 A    
C14   N6    1.435979 S    
C37   H25   1.109471 S    
C18   C19   1.412817 A    
C30   H5    1.108107 S    
C21   C24   1.432070 A    
C33   H14   1.110038 S    
C22   C23   1.432093 A    
N3    O9    1.300955 A    
C31   H8    1.107750 S    
C36   H23   1.109214 S    
C32   H11   1.108276 S    
N6    O16   1.300945 A    
C11   C15   1.401892 A    
C38   H29   1.109040 S    
C13   N5    1.437828 S    
C31   H7    1.110577 S    
C21   C33   1.513451 S    
O4    Zn2   1.984345 S    
C29   H3    1.110562 S    
O5    C7    1.298155 A    
C39   H32   1.110373 S    
C34   H17   1.105523 S    
O2    C2    1.297037 A    
C40   H35   1.106605 S    
N4    O12   1.301329 A    
C40   H34   1.107491 S    
C29   H2    1.107751 S    
C13   C17   1.402057 A    
C17   C31   1.517830 S    
C3    C10   1.409796 A    
C5    C9    1.413615 A    
C37   H26   1.110583 S    
C15   C19   1.413193 A    
C6    C10   1.413540 A    
C4    C38   1.519941 S    
C16   C20   1.412750 A    
C27   C28   1.188082 T    
C1    C10   1.451279 S    
C30   H6    1.108285 S    
N1    C22   1.377110 A    
O5    Zn1   1.979076 S    
C16   C30   1.515961 S    
C23   C35   1.512847 S    
O6    Zn2   1.979074 S    
C5    C39   1.517979 S    
C33   H15   1.105632 S    
N2    C23   1.380019 A    
C13   C26   1.403947 A    
C12   C26   1.402033 A    
N5    O13   1.300913 A    
C24   C36   1.512852 S    
C32   H12   1.108169 S    
N6    O15   1.301168 A    
C35   H20   1.110446 S    
C38   H30   1.110584 S    
O7    Zn1   1.988666 S    
C4    C6    1.388652 A    
C14   C18   1.400793 A    
C39   H33   1.106593 S    
C12   N4    1.435754 S    
C34   H18   1.109925 S    
C40   H36   1.110367 S    
N4    O11   1.301437 A    
C6    C40   1.517993 S    
C37   H27   1.109058 S    
N2    C21   1.377104 A    
Zn2   N2    2.034165 S    
C12   C16   1.400596 A    
O4    C1    1.303542 A    
C15   C29   1.517804 S    
C14   C25   1.402206 A    
O1    Zn1   2.001747 S    
C11   N3    1.437717 S    
C25   C27   1.417120 S    
C11   C25   1.403862 A    
C31   H9    1.109496 S    
C26   C28   1.417111 S    
C3    C5    1.388646 A    
C30   H4    1.106910 S    
C35   H21   1.109223 S    
O8    Zn2   1.988668 S    
C4    C9    1.409942 A    
O3    Zn1   1.984344 S    
C33   H13   1.087953 S    
Zn1   N1    2.034165 S    
C18   C32   1.515948 S    
C22   C34   1.513512 S    
O6    C8    1.298142 A    
C32   H10   1.106832 S    
C38   H28   1.109392 S    
