data_mof_unit_43954.cif
_audit_creation_date              2012-12-10T17:14:42-0500
_audit_creation_method            fapswitch 2.2
_symmetry_space_group_name_H-M    P1
_symmetry_Int_Tables_number       1
_space_group_crystal_system       triclinic
_cell_length_a                    10.63484
_cell_length_b                    13.002957
_cell_length_c                    11.671532
_cell_angle_alpha                 99.721438
_cell_angle_beta                  93.874534
_cell_angle_gamma                 90.340133
_cell_volume                      1586.93119811

loop_
_atom_site_label
_atom_site_type_symbol
_atom_type_description
_atom_site_fract_x
_atom_site_fract_y
_atom_site_fract_z
_atom_type_partial_charge
C1    C     C_R   0.498202 0.299083 0.478722 0.801595
C2    C     C_R   0.501798 0.700917 0.521278 0.801601
C3    C     C_R   0.504676 0.139201 0.566377 -0.268094
C4    C     C_R   0.495324 0.860799 0.433623 -0.268089
C5    C     C_R   0.504116 0.031187 0.555963 0.175146
C6    C     C_R   0.495884 0.968813 0.444037 0.175146
C7    C     C_R   0.375406 0.407147 0.022326 -0.358839
C8    C     C_R   0.624590 0.592855 0.977674 -0.358845
C9    C     C_R   0.388008 0.415384 0.144386 0.116278
C10   C     C_R   0.611991 0.584617 0.855614 0.116255
C11   C     C_R   0.554761 0.539243 0.156710 0.011439
C12   C     C_R   0.445238 0.460758 0.843290 0.011437
C13   C     C_R   0.545521 0.533478 0.033994 0.069636
C14   C     C_R   0.454477 0.466524 0.966006 0.069632
C15   C     C_R   0.259255 0.499167 0.500001 0.830450
C16   C     C_R   0.740745 0.500832 0.499998 0.830449
C17   C     C_3   0.045499 0.428465 0.563887 -0.308721
C18   C     C_3   0.954502 0.571532 0.436110 -0.308658
C19   C     C_3   0.952936 0.403660 0.453647 -0.305926
C20   C     C_3   0.047064 0.596336 0.546351 -0.305829
C21   C     C_3   0.877330 0.500908 0.499992 -0.092333
C22   C     C_3   0.122670 0.499089 0.500006 -0.092311
C23   C     C_3   0.968793 0.525297 0.608277 0.553057
C24   C     C_3   0.031207 0.474700 0.391721 0.553025
C25   C     C_R   0.502800 0.814281 0.533573 -0.049202
C26   C     C_R   0.497200 0.185719 0.466427 -0.049201
C27   C     C_R   0.488302 0.015398 0.344272 -0.217445
C28   C     C_R   0.511698 0.984602 0.655728 -0.217447
C29   C     C_R   0.488933 0.123475 0.355397 -0.196401
C30   C     C_R   0.511067 0.876525 0.644603 -0.196391
Cu1   Cu    Cu3+1 0.509400 0.507730 0.615930 0.946700
Cu2   Cu    Cu3+1 0.490600 0.492270 0.384070 0.946707
H1    H     H_    0.911401 0.326061 0.414710 0.148061
H2    H     H_    0.088597 0.673934 0.585302 0.148092
H3    H     H_    0.085750 0.371433 0.616504 0.143726
H4    H     H_    0.914254 0.628559 0.383486 0.143753
H5    H     H_    0.489028 0.813199 0.347592 0.153914
H6    H     H_    0.510972 0.186801 0.652408 0.153911
H7    H     H_    0.516981 0.841818 0.722836 0.156899
H8    H     H_    0.483019 0.158182 0.277164 0.156895
H9    H     H_    0.481929 0.968397 0.257986 0.135030
H10   H     H_    0.518072 0.031603 0.742014 0.135029
H11   H     H_    0.375717 0.409218 0.790149 0.114941
H12   H     H_    0.624281 0.590782 0.209851 0.114946
H13   H     H_    0.673545 0.630584 0.813180 0.154505
H14   H     H_    0.326454 0.369418 0.186821 0.154495
H15   H     H_    0.304310 0.354818 0.972528 0.136925
H16   H     H_    0.695684 0.645187 0.027472 0.136929
N1    N     N_R   0.523540 0.519360 0.790140 -0.183967
N2    N     N_R   0.476460 0.480640 0.209860 -0.183968
O1    O     O_R   0.506670 0.354460 0.582000 -0.590202
O2    O     O_R   0.493330 0.645540 0.418000 -0.590200
O3    O     O_R   0.490800 0.341410 0.386200 -0.596880
O4    O     O_R   0.509200 0.658590 0.613800 -0.596875
O5    O     O_R   0.324790 0.506500 0.597880 -0.607671
O6    O     O_R   0.675210 0.493500 0.402120 -0.607662
O7    O     O_R   0.308910 0.493440 0.402080 -0.544160
O8    O     O_R   0.691090 0.506560 0.597920 -0.544179
O9    O     O_3   0.925812 0.553383 0.720870 -0.576362
C31   C     C_3   0.029311 0.564828 0.804402 0.075152
H17   H     H_    0.103154 0.618434 0.783273 0.144320
H18   H     H_    0.071178 0.487552 0.810593 0.142251
C32   C     C_3   0.983883 0.611045 0.922649 -0.821130
H19   H     H_    0.911208 0.558888 0.947560 0.252587
H20   H     H_    0.064283 0.620230 0.989626 0.211034
H21   H     H_    0.942382 0.688747 0.919168 0.243628
O10   O     O_3   0.074206 0.446635 0.279131 -0.576367
C33   C     C_3   0.970711 0.435025 0.195611 0.075195
H22   H     H_    0.928631 0.512217 0.189434 0.142275
H23   H     H_    0.897036 0.381284 0.216741 0.144315
C34   C     C_3   0.016212 0.388921 0.077358 -0.821311
H24   H     H_    0.057953 0.311318 0.080826 0.243633
H25   H     H_    0.935821 0.379589 0.010389 0.211071
H26   H     H_    0.088710 0.441221 0.052447 0.252595

loop_
_geom_bond_atom_site_label_1
_geom_bond_atom_site_label_2
_ccdc_geom_bond_type
C32   H20   S    
C16   C21   S    
C27   C29   A    
C18   C21   S    
C16   O6    A    
C12   N1    A    
C23   O9    S    
C17   C23   S    
C31   C32   S    
C18   C24   S    
Cu1   O8    S    
C19   C21   S    
C12   H11   S    
C5    C6    A    
C31   H18   S    
C1    O3    A    
Cu2   O2    S    
C24   O10   S    
C7    C14   A    
C6    C27   A    
C3    H6    S    
C33   H22   S    
C20   H2    S    
C32   H21   S    
C9    H14   S    
C13   C14   A    
C15   O7    A    
Cu2   O7    S    
Cu1   N1    S    
C4    C25   A    
C15   C22   S    
O10   C33   S    
C4    C6    A    
C19   H1    S    
Cu1   O1    S    
C34   H25   S    
C31   H17   S    
C7    H15   S    
C8    H16   S    
C5    C28   A    
C27   H9    S    
Cu1   Cu2   S    
C20   C23   S    
C10   H13   S    
C11   H12   S    
C16   O8    A    
C1    O1    A    
Cu2   N2    S    
C2    O2    A    
C33   H23   S    
C12   C14   A    
C21   C23   S    
C2    O4    A    
C1    C26   S    
C22   C24   S    
Cu2   O3    S    
C25   C30   A    
C7    C9    A    
C3    C26   A    
C9    N2    A    
C20   C22   S    
C3    C5    A    
C34   H26   S    
C17   C22   S    
C28   C30   A    
C19   C24   S    
C34   H24   S    
C11   N2    A    
C11   C13   A    
C33   C34   S    
C29   H8    S    
C28   H10   S    
C17   C19   S    
C30   H7    S    
C2    C25   S    
C18   C20   S    
Cu1   O4    S    
C32   H19   S    
C8    C13   A    
O9    C31   S    
C4    H5    S    
C26   C29   A    
C8    C10   A    
C17   H3    S    
Cu1   O5    S    
C10   N1    A    
C18   H4    S    
Cu2   O6    S    
C15   O5    A    
