data_mof_unit_62625.cif
_audit_creation_date              2012-12-10T19:38:43-0500
_audit_creation_method            fapswitch 2.2
_symmetry_space_group_name_H-M    P1
_symmetry_Int_Tables_number       1
_space_group_crystal_system       triclinic
_cell_length_a                    10.631403
_cell_length_b                    15.880582
_cell_length_c                    17.195178
_cell_angle_alpha                 95.642612
_cell_angle_beta                  92.826597
_cell_angle_gamma                 92.730634
_cell_volume                      2881.50300271

loop_
_atom_site_label
_atom_site_type_symbol
_atom_type_description
_atom_site_fract_x
_atom_site_fract_y
_atom_site_fract_z
_atom_type_partial_charge
C1    C     C_R   0.503650 0.490015 0.348316 0.931079
C2    C     C_R   0.493867 0.509633 0.651407 0.934184
C3    C     C_R   0.467238 0.472595 0.096556 0.084387
C4    C     C_R   0.517071 0.506248 0.901684 0.086477
C5    C     C_R   0.487717 0.399774 0.134007 0.311373
C6    C     C_R   0.533437 0.583217 0.869115 0.312078
C7    C     C_R   0.508213 0.405395 0.215589 0.290004
C8    C     C_R   0.513648 0.586896 0.788343 0.284717
C9    C     C_R   0.430890 0.753611 0.465530 0.535649
C10   C     C_R   0.564172 0.246919 0.537996 0.533314
C11   C     C_R   0.436065 0.842523 0.468115 -0.293704
C12   C     C_R   0.559334 0.158007 0.535330 -0.294536
C13   C     C_R   0.527865 0.891966 0.516198 0.208153
C14   C     C_R   0.472335 0.108316 0.483783 0.210624
C15   C     C_R   0.613005 0.849601 0.561080 0.262121
C16   C     C_R   0.391470 0.150473 0.435797 0.262867
C17   C     C_R   0.606177 0.759965 0.557247 0.339018
C18   C     C_R   0.398245 0.240069 0.439683 0.343450
C19   C     C_R   0.259327 0.499855 0.499895 0.862970
C20   C     C_R   0.740721 0.500129 0.500086 0.862795
C21   C     C_3   0.034932 0.419282 0.497574 -0.153386
C22   C     C_3   0.965311 0.580669 0.502461 -0.153538
C23   C     C_3   0.950401 0.455818 0.435115 0.297230
C24   C     C_3   0.049845 0.544133 0.564937 0.302543
C25   C     C_3   0.877446 0.500563 0.500034 -0.127669
C26   C     C_3   0.122706 0.499388 0.499994 -0.124142
C27   C     C_3   0.960303 0.464576 0.563175 -0.197355
C28   C     C_3   0.039904 0.535356 0.436877 -0.201532
C29   C     C_R   0.503673 0.484961 0.261167 -0.352531
C30   C     C_R   0.487319 0.511276 0.737976 -0.345687
C31   C     C_R   0.492285 0.559017 0.221527 0.285639
C32   C     C_R   0.461745 0.434538 0.772034 0.289944
C33   C     C_R   0.466903 0.551825 0.140495 0.305058
C34   C     C_R   0.482171 0.431489 0.852718 0.306891
Cu1   Cu    Cu3+1 0.493870 0.415220 0.496180 1.109650
Cu2   Cu    Cu3+1 0.506130 0.584780 0.503820 1.106823
H1    H     H_    0.065242 0.353186 0.495147 0.219962
H2    H     H_    0.935373 0.646823 0.504666 0.220101
H3    H     H_    0.925282 0.436264 0.615057 0.221020
H4    H     H_    0.074845 0.563596 0.384942 0.222493
H5    H     H_    0.623510 0.128410 0.573855 0.247871
H6    H     H_    0.367820 0.872374 0.432482 0.248710
N1    N     N_2   0.449980 0.466063 0.014097 -0.069479
N2    N     N_2   0.534548 0.507068 0.984060 -0.082275
N3    N     N_R   0.515330 0.712130 0.509560 -0.267093
N4    N     N_R   0.484670 0.287870 0.490440 -0.262125
N5    N     N_2   0.538217 0.983171 0.521706 -0.117721
N6    N     N_2   0.461924 0.017120 0.478311 -0.117817
O1    O     O_R   0.494270 0.420530 0.382500 -0.526257
O2    O     O_R   0.505730 0.579470 0.617500 -0.525644
O3    O     O_R   0.504620 0.563720 0.388950 -0.524256
O4    O     O_R   0.495380 0.436280 0.611050 -0.521281
O5    O     O_R   0.311680 0.428420 0.496760 -0.574307
O6    O     O_R   0.688320 0.571580 0.503240 -0.577359
O7    O     O_R   0.322030 0.571610 0.503210 -0.536813
O8    O     O_R   0.677970 0.428390 0.496790 -0.536081
Br1   Br    Br    0.876661 0.392143 0.340730 -0.315059
Br2   Br    Br    0.124843 0.607698 0.659120 -0.321808
Cl1   Cl    Cl    0.729217 0.910402 0.622326 -0.368377
Cl2   Cl    Cl    0.280849 0.089594 0.370576 -0.366863
Br3   Br    Br    0.729091 0.708883 0.621166 -0.266778
Br4   Br    Br    0.281497 0.291773 0.372057 -0.277434
Cl3   Cl    Cl    0.393523 0.341595 0.716919 -0.408677
Cl4   Cl    Cl    0.519129 0.662928 0.268879 -0.383949
Cl5   Cl    Cl    0.473024 0.331770 0.890242 -0.300866
Cl6   Cl    Cl    0.427268 0.642289 0.094088 -0.309611
Cl7   Cl    Cl    0.488939 0.300609 0.077882 -0.273612
Cl8   Cl    Cl    0.579640 0.676322 0.930818 -0.281415
Cl9   Cl    Cl    0.549600 0.311866 0.256923 -0.361553
Cl10  Cl    Cl    0.511707 0.688304 0.754317 -0.353091
Cl11  Cl    Cl    0.675341 0.302615 0.605358 -0.489081
Cl12  Cl    Cl    0.311269 0.699242 0.403405 -0.478431

loop_
_geom_bond_atom_site_label_1
_geom_bond_atom_site_label_2
_ccdc_geom_bond_type
C21   C26   S    
C9    N3    A    
C7    C29   A    
Cu1   O5    S    
Cu1   Cu2   S    
C24   C27   S    
C20   O8    A    
C3    N1    S    
C24   C26   S    
C20   C25   S    
C28   H4    S    
C22   H2    S    
C8    Cl10  S    
C11   H6    S    
C15   C17   A    
C16   Cl2   S    
C19   C26   S    
C2    O2    A    
C17   Br3   S    
C27   H3    S    
C22   C25   S    
Cu1   O1    S    
C9    Cl12  S    
C5    Cl7   S    
C10   Cl11  S    
C19   O5    A    
C6    Cl8   S    
C21   C27   S    
C22   C28   S    
C18   N4    A    
C34   Cl5   S    
C33   Cl6   S    
C10   C12   A    
C4    C34   A    
C31   C33   A    
C20   O6    A    
C5    C7    A    
C18   Br4   S    
C14   N6    S    
C4    N2    S    
C32   C34   A    
N1    N2    D    
C10   N4    A    
C12   H5    S    
C9    C11   A    
N5    N6    D    
C1    C29   S    
Cu2   N3    S    
C16   C18   A    
C23   C28   S    
C1    O3    A    
Cu2   O3    S    
C2    O4    A    
C4    C6    A    
C12   C14   A    
C13   C15   A    
C14   C16   A    
Cu2   O2    S    
C13   N5    S    
C19   O7    A    
C23   Br1   S    
Cu1   O8    S    
C15   Cl1   S    
C31   Cl4   S    
C32   Cl3   S    
C17   N3    A    
C3    C5    A    
C7    Cl9   S    
C6    C8    A    
C25   C27   S    
C26   C28   S    
C2    C30   S    
C8    C30   A    
C21   C23   S    
C29   C31   A    
Cu2   O7    S    
C30   C32   A    
C11   C13   A    
C22   C24   S    
C23   C25   S    
Cu2   O6    S    
C21   H1    S    
C24   Br2   S    
Cu1   O4    S    
C3    C33   A    
Cu1   N4    S    
C1    O1    A    
