data_mof_unit_39729.cif
_audit_creation_date              2012-10-26T18:47:55-0400
_audit_creation_method            fapswitch 2.2
_symmetry_space_group_name_H-M    P1
_symmetry_Int_Tables_number       1
_space_group_crystal_system       triclinic
_cell_length_a                    15.842447
_cell_length_b                    8.686087
_cell_length_c                    7.478793
_cell_angle_alpha                 102.442214
_cell_angle_beta                  94.944123
_cell_angle_gamma                 91.957478
_cell_volume                      999.766674028

loop_
_atom_site_label
_atom_site_type_symbol
_atom_type_description
_atom_site_fract_x
_atom_site_fract_y
_atom_site_fract_z
_atom_type_partial_charge
C1    C     C_R   0.490041 0.200758 0.454642 0.553998
C2    C     C_2   0.497316 0.966551 0.566032 -0.143831
C3    C     C_R   0.340394 0.498861 0.501064 0.528764
C4    C     C_R   0.497363 0.799250 0.545129 0.542273
C5    C     C_R   0.659622 0.499630 0.498765 0.554444
C6    C     C_3   0.051493 0.410987 0.650831 -0.081479
C7    C     C_3   0.038362 0.391964 0.312221 -0.242131
C8    C     C_3   0.941481 0.374118 0.327672 -0.196304
C9    C     C_1   0.749210 0.497610 0.497170 -0.029741
C10   C     C_3   0.082734 0.489876 0.496973 0.064238
C11   C     C_3   0.110994 0.427121 0.829760 -0.258376
C12   C     C_3   0.957881 0.450302 0.677031 -0.249349
C13   C     C_3   0.135952 0.595720 0.938541 -0.301040
C14   C     C_3   0.207279 0.593861 0.088470 -0.444539
C15   C     C_3   0.921610 0.856847 0.327397 -0.021521
C16   C     C_3   0.905804 0.883263 0.132829 -0.373828
C17   C     C_3   0.404635 0.957988 0.264577 -0.242050
C18   C     C_3   0.320818 0.042744 0.257631 -0.305984
C19   C     C_3   0.276321 0.009379 0.062735 -0.458363
C20   C     C_3   0.917046 0.495466 0.498840 0.083740
C21   C     C_3   0.954095 0.661697 0.490925 0.180957
C22   C     C_3   0.052593 0.661612 0.515523 -0.170741
C23   C     C_1   0.824839 0.496166 0.498381 -0.050074
C24   C     C_1   0.175006 0.490848 0.497466 -0.087158
C25   C     C_1   0.250797 0.494414 0.501496 -0.062379
C26   C     C_2   0.465613 0.036060 0.432806 -0.045587
Cu1   Cu    Cu3+1 0.509300 0.517380 0.684380 0.941722
Cu2   Cu    Cu3+1 0.490700 0.482620 0.315620 0.929607
H1    H     H_    0.922841 0.345741 0.704354 0.102185
H2    H     H_    0.905798 0.390556 0.198858 0.159775
H3    H     H_    0.075142 0.738178 0.650399 0.056448
H4    H     H_    0.080210 0.716640 0.410787 0.128538
H5    H     H_    0.931810 0.750061 0.607056 0.073092
H6    H     H_    0.197384 0.491132 0.150842 0.167406
H7    H     H_    0.269227 0.583551 0.028729 0.170951
H8    H     H_    0.209687 0.704231 0.196592 0.138645
H9    H     H_    0.160781 0.668914 0.849129 0.166533
H10   H     H_    0.080114 0.650497 0.001215 0.161043
H11   H     H_    0.080441 0.359388 0.918755 0.117347
H12   H     H_    0.954398 0.549524 0.797666 0.124606
H13   H     H_    0.169868 0.365906 0.794158 0.148220
H14   H     H_    0.981448 0.924036 0.393509 0.104348
H15   H     H_    0.867709 0.901895 0.406044 0.131675
H16   H     H_    0.847011 0.815588 0.062616 0.166056
H17   H     H_    0.898370 0.010229 0.136211 0.085182
H18   H     H_    0.960077 0.843360 0.053191 0.131265
H19   H     H_    0.313929 0.065572 0.972901 0.154706
H20   H     H_    0.268894 0.880610 0.004077 0.155652
H21   H     H_    0.212604 0.058908 0.065096 0.129706
H22   H     H_    0.278162 0.002187 0.350820 0.137701
H23   H     H_    0.533104 0.035028 0.690048 0.118873
H24   H     H_    0.331252 0.172435 0.304734 0.189260
H25   H     H_    0.437299 0.959935 0.139200 0.168956
H26   H     H_    0.385431 0.833693 0.260368 0.177931
H27   H     H_    0.435013 0.376466 0.948864 0.235776
H28   H     H_    0.564818 0.623770 0.051232 0.243887
H29   H     H_    0.049170 0.280775 0.594337 0.111214
H30   H     H_    0.048448 0.454845 0.201338 0.149855
H31   H     H_    0.064792 0.273440 0.274711 0.091128
H32   H     H_    0.924638 0.252757 0.343107 0.088367
N1    N     N_2   0.476670 0.456430 0.038530 -0.262518
N2    N     N_2   0.523330 0.543570 0.961470 -0.256005
O1    O     O_R   0.506050 0.286130 0.619770 -0.511909
O2    O     O_R   0.490330 0.256780 0.308370 -0.495642
O3    O     O_R   0.387300 0.514690 0.655770 -0.503838
O4    O     O_R   0.371580 0.485340 0.344370 -0.516558
O5    O     O_R   0.509670 0.743220 0.691630 -0.499248
O6    O     O_R   0.493950 0.713870 0.380230 -0.511762
O7    O     O_R   0.628420 0.514660 0.655630 -0.491127
O8    O     O_R   0.612700 0.485310 0.344230 -0.488995
O9    O     O_3   0.926943 0.693426 0.317034 -0.563990

loop_
_geom_bond_atom_site_label_1
_geom_bond_atom_site_label_2
_ccdc_geom_bond_type
C16   H17   S    
C6    C10   S    
C7    C10   S    
C2    C4    S    
C14   H6    S    
C5    O8    A    
Cu1   O3    S    
Cu1   N2    S    
C17   H25   S    
C12   H1    S    
C4    O5    A    
C15   O9    S    
C1    C26   S    
C19   H21   S    
C7    H30   S    
Cu2   O4    S    
Cu1   O7    S    
C20   C23   S    
C8    H2    S    
Cu2   N1    S    
C12   C20   S    
C17   C18   S    
C15   H15   S    
C7    C8    S    
C2    C26   D    
C3    O3    A    
C21   C22   S    
C8    H32   S    
C11   H11   S    
Cu2   O8    S    
C11   C13   S    
C6    H29   S    
C13   H10   S    
C8    C20   S    
Cu1   O1    S    
C21   O9    S    
C17   C26   S    
C1    O1    A    
C7    H31   S    
Cu2   O6    S    
C11   H13   S    
C19   H19   S    
C6    C12   S    
N1    N2    D    
H28   N2    S    
C3    O4    A    
Cu1   O5    S    
C22   H3    S    
H27   N1    S    
C18   H24   S    
C15   C16   S    
C1    O2    A    
Cu2   O2    S    
C3    C25   S    
C22   H4    S    
C21   H5    S    
C24   C25   T    
C18   H22   S    
C18   C19   S    
C2    H23   S    
C16   H18   S    
C6    C11   S    
C4    O6    A    
C16   H16   S    
C19   H20   S    
C9    C23   T    
C14   H8    S    
C5    O7    A    
C12   H12   S    
C10   C24   S    
C20   C21   S    
C13   C14   S    
C13   H9    S    
C17   H26   S    
C14   H7    S    
C10   C22   S    
C15   H14   S    
C5    C9    S    
Cu1   Cu2   S    
