data_mof_unit_11690.cif
_audit_creation_date              2012-10-26T20:06:13-0400
_audit_creation_method            fapswitch 2.2
_symmetry_space_group_name_H-M    P1
_symmetry_Int_Tables_number       1
_space_group_crystal_system       triclinic
_cell_length_a                    9.580988
_cell_length_b                    10.826903
_cell_length_c                    13.341404
_cell_angle_alpha                 91.643168
_cell_angle_beta                  72.839285
_cell_angle_gamma                 90.000758
_cell_volume                      1321.72917052

loop_
_atom_site_label
_atom_site_type_symbol
_atom_type_description
_atom_site_fract_x
_atom_site_fract_y
_atom_site_fract_z
_atom_type_partial_charge
Br1   Br    Br    0.736276 0.140189 0.608950 -0.408014
Br2   Br    Br    0.231401 0.307105 0.339726 -0.406184
Br3   Br    Br    0.897345 0.312103 0.335452 -0.356935
Br4   Br    Br    0.545363 0.292486 0.132383 -0.410926
Br5   Br    Br    0.142650 0.317767 0.787224 -0.420932
C1    C     C_R   0.499553 0.737544 0.501161 0.523790
C2    C     C_R   0.376744 0.481264 0.814588 0.012470
C3    C     C_R   0.600400 0.935042 0.541982 -0.095782
C4    C     C_R   0.421662 0.497181 0.700237 0.546695
C5    C     C_R   0.600205 0.063180 0.545868 0.166831
C6    C     C_R   0.497889 0.128205 0.508984 0.041221
C7    C     C_R   0.393076 0.062958 0.474840 -0.116447
C8    C     C_R   0.393118 0.935325 0.472644 -0.129999
C9    C     C_R   0.498207 0.871158 0.504603 -0.012929
C10   C     C_R   0.898616 0.577133 0.566500 -0.003812
C11   C     C_R   0.046986 0.577178 0.566401 0.001103
C12   C     C_R   0.446966 0.488797 0.976780 0.042365
C13   C     C_R   0.100737 0.421939 0.433621 0.300387
C14   C     C_R   0.952843 0.422515 0.433042 0.314702
C15   C     C_R   0.498773 0.262346 0.503987 0.609266
C16   C     C_R   0.578333 0.503574 0.300171 0.597368
C17   C     C_R   0.714810 0.686490 0.058383 -0.120315
C18   C     C_R   0.622322 0.532891 0.189221 0.033600
C19   C     C_R   0.262427 0.399302 0.861603 0.151265
C20   C     C_R   0.235611 0.370187 0.966475 -0.079455
C21   C     C_R   0.327047 0.413096 0.023214 -0.104035
C22   C     C_R   0.461162 0.534210 0.875815 0.006736
C23   C     C_R   0.545657 0.528917 0.031675 0.054184
C24   C     C_R   0.633805 0.633493 0.996443 0.033326
C25   C     C_R   0.638265 0.684691 0.900738 -0.114687
C26   C     C_R   0.556111 0.633867 0.839879 -0.108214
C27   C     C_R   0.558897 0.469777 0.121316 0.144981
C28   C     C_R   0.703116 0.639919 0.156763 -0.148579
Cu1   Cu    Cu3+1 0.359340 0.499980 0.500000 1.054045
Cu2   Cu    Cu3+1 0.640660 0.500020 0.500000 1.051336
H1    H     H_    0.753572 0.689181 0.208674 0.140069
H2    H     H_    0.145619 0.310563 0.003720 0.186436
H3    H     H_    0.678886 0.885336 0.570171 0.149473
H4    H     H_    0.311706 0.110123 0.448421 0.201180
H5    H     H_    0.312411 0.886971 0.444414 0.155486
H6    H     H_    0.821307 0.639256 0.619923 0.116545
H7    H     H_    0.080599 0.639248 0.619770 0.131812
H8    H     H_    0.706005 0.764017 0.872558 0.129107
H9    H     H_    0.299382 0.390091 0.104934 0.197326
H10   H     H_    0.561963 0.677896 0.766984 0.122829
H11   H     H_    0.779964 0.768069 0.033515 0.143181
N1    N     N_R   0.147940 0.499970 0.499970 -0.239167
N2    N     N_R   0.852060 0.500060 0.499990 -0.240702
O1    O     O_R   0.381250 0.680340 0.500010 -0.521235
O2    O     O_R   0.618820 0.680370 0.500010 -0.529374
O3    O     O_R   0.323240 0.499950 0.650980 -0.469709
O4    O     O_R   0.560810 0.499980 0.650980 -0.501637
O5    O     O_R   0.381180 0.319630 0.499990 -0.459558
O6    O     O_R   0.618750 0.319660 0.499990 -0.424213
O7    O     O_R   0.439190 0.500020 0.349020 -0.465095
O8    O     O_R   0.676760 0.500050 0.349020 -0.471179

loop_
_geom_bond_atom_site_label_1
_geom_bond_atom_site_label_2
_ccdc_geom_bond_type
C16   O8    A    
C6    C7    A    
C19   C20   A    
Br3   C14   S    
C24   C25   A    
C17   C24   A    
Br2   C13   S    
C4    O3    A    
C13   N1    A    
C7    H4    S    
Cu2   O8    S    
C21   H9    S    
Cu1   O7    S    
C8    C9    A    
C1    O2    A    
Cu2   O6    S    
Br5   C19   S    
C8    H5    S    
Cu1   O3    S    
Br4   C27   S    
C4    O4    A    
C3    H3    S    
C10   N2    A    
Cu2   O2    S    
Cu2   N2    S    
C11   N1    A    
C3    C5    A    
C23   C24   A    
C17   H11   S    
C13   C14   A    
C16   C18   S    
C1    O1    A    
C25   C26   A    
C25   H8    S    
C6    C15   S    
C1    C9    S    
C5    C6    A    
C12   C21   A    
C22   C26   A    
C10   C11   A    
C12   C22   A    
C11   H7    S    
C23   C27   A    
C28   H1    S    
C2    C22   A    
C7    C8    A    
C10   H6    S    
Cu1   O5    S    
C15   O6    A    
Cu1   Cu2   S    
C26   H10   S    
Cu2   O4    S    
C2    C4    S    
C17   C28   A    
C14   N2    A    
Cu1   O1    S    
C3    C9    A    
Cu1   N1    S    
C20   H2    S    
C20   C21   A    
C12   C23   A    
C16   O7    A    
Br1   C5    S    
C2    C19   A    
C18   C27   A    
C15   O5    A    
C18   C28   A    
