data_mof_unit_61613.cif
_audit_creation_date              2012-10-26T19:01:43-0400
_audit_creation_method            fapswitch 2.2
_symmetry_space_group_name_H-M    P1
_symmetry_Int_Tables_number       1
_space_group_crystal_system       triclinic
_cell_length_a                    13.893043
_cell_length_b                    15.842304
_cell_length_c                    17.135752
_cell_angle_alpha                 96.070036
_cell_angle_beta                  89.628297
_cell_angle_gamma                 82.593888
_cell_volume                      3718.33384438

loop_
_atom_site_label
_atom_site_type_symbol
_atom_type_description
_atom_site_fract_x
_atom_site_fract_y
_atom_site_fract_z
_atom_type_partial_charge
C1    C     C_R   0.501265 0.510145 0.651244 0.577899
C2    C     C_R   0.546490 0.836975 0.464213 0.356523
C3    C     C_R   0.519256 0.107604 0.484231 0.105945
C4    C     C_R   0.480744 0.892396 0.515769 0.105945
C5    C     C_R   0.580087 0.145363 0.436211 0.367946
C6    C     C_R   0.419914 0.854637 0.563789 0.367946
C7    C     C_R   0.575300 0.234930 0.440022 0.473294
C8    C     C_R   0.424701 0.765070 0.559978 0.473294
C9    C     C_R   0.316221 0.513520 0.500627 0.554220
C10   C     C_R   0.683779 0.486480 0.499373 0.554220
C11   C     C_1   0.787184 0.478592 0.499100 0.067774
C12   C     C_R   0.498735 0.489855 0.348756 0.577899
C13   C     C_1   0.212815 0.521408 0.500900 0.067774
C14   C     C_2   0.978129 0.464841 0.498628 -0.086040
C15   C     C_2   0.021871 0.535159 0.501372 -0.086040
C16   C     C_1   0.125737 0.528134 0.501130 0.015967
C17   C     C_1   0.874263 0.471866 0.498870 0.015967
C18   C     C_R   0.507314 0.514576 0.737114 -0.067455
C19   C     C_R   0.492685 0.485424 0.262886 -0.067456
C20   C     C_R   0.462555 0.456136 0.776209 0.408686
C21   C     C_R   0.537443 0.543865 0.223791 0.408686
C22   C     C_R   0.470221 0.455351 0.856807 0.447254
C23   C     C_R   0.568031 0.572786 0.862049 -0.088037
C24   C     C_R   0.529777 0.544650 0.143193 0.447253
C25   C     C_R   0.522132 0.514424 0.900761 0.142916
C26   C     C_R   0.477867 0.485576 0.099239 0.142916
C27   C     C_1   0.622726 0.632284 0.907182 0.330062
C28   C     C_1   0.377277 0.367712 0.092818 0.330062
C29   C     C_1   0.611540 0.631752 0.740722 0.271215
C30   C     C_1   0.388463 0.368245 0.259277 0.271216
C31   C     C_R   0.431970 0.427212 0.137951 -0.088038
C32   C     C_R   0.560750 0.573353 0.780195 -0.127579
C33   C     C_R   0.439252 0.426645 0.219805 -0.127579
C34   C     C_R   0.451142 0.252263 0.537616 0.494683
C35   C     C_R   0.548857 0.747736 0.462383 0.494683
C36   C     C_R   0.453509 0.163025 0.535786 0.356523
Cu1   Cu    Cu3+1 0.495370 0.585120 0.503830 1.188619
Cu2   Cu    Cu3+1 0.504630 0.414880 0.496170 1.188619
F1    F     F_    0.589623 0.600518 0.263769 -0.482304
F2    F     F_    0.355738 0.904817 0.614454 -0.481158
F3    F     F_    0.634749 0.269538 0.392893 -0.526323
F4    F     F_    0.365253 0.730461 0.607108 -0.526323
F5    F     F_    0.410373 0.399484 0.736230 -0.482305
F6    F     F_    0.571427 0.604824 0.108896 -0.517539
F7    F     F_    0.428568 0.395178 0.891104 -0.517539
F8    F     F_    0.612615 0.695822 0.412903 -0.475044
F9    F     F_    0.387383 0.304178 0.587095 -0.475045
F10   F     F_    0.608286 0.867683 0.415906 -0.480584
F11   F     F_    0.391712 0.132317 0.584092 -0.480584
F12   F     F_    0.644264 0.095183 0.385548 -0.481158
H1    H     H_    0.979976 0.598272 0.503814 0.175703
H2    H     H_    0.020024 0.401728 0.496186 0.175703
N1    N     N_2   0.532391 0.515561 0.983260 -0.117401
N2    N     N_1   0.347928 0.321671 0.290751 -0.217948
N3    N     N_2   0.467608 0.484438 0.016740 -0.117399
N4    N     N_R   0.511590 0.287020 0.490400 -0.323830
N5    N     N_R   0.488410 0.712980 0.509600 -0.323829
N6    N     N_2   0.527492 0.015489 0.477861 -0.048188
N7    N     N_2   0.472508 0.984510 0.522139 -0.048188
N8    N     N_1   0.666371 0.679768 0.943233 -0.123413
N9    N     N_1   0.333634 0.320227 0.056766 -0.123412
N10   N     N_1   0.652077 0.678325 0.709248 -0.217949
O1    O     O_R   0.495670 0.579790 0.617520 -0.468765
O2    O     O_R   0.504330 0.420210 0.382480 -0.468767
O3    O     O_R   0.503490 0.436020 0.611040 -0.423435
O4    O     O_R   0.496510 0.563980 0.388960 -0.423434
O5    O     O_R   0.357690 0.582040 0.503680 -0.466536
O6    O     O_R   0.642310 0.417960 0.496320 -0.466535
O7    O     O_R   0.365510 0.438280 0.497200 -0.457128
O8    O     O_R   0.634490 0.561720 0.502800 -0.457129

loop_
_geom_bond_atom_site_label_1
_geom_bond_atom_site_label_2
_ccdc_geom_bond_type
C2    C35   A    
C2    C4    A    
C31   C33   A    
C34   N4    A    
Cu1   Cu2   S    
C15   H1    S    
C8    N5    A    
N1    N3    D    
C1    O3    A    
C21   F1    S    
Cu2   O3    S    
C35   N5    A    
C3    C36   A    
C23   C32   A    
C22   F7    S    
C9    O5    A    
C27   N8    T    
Cu2   O7    S    
C26   C31   A    
C25   N1    S    
Cu1   O8    S    
C28   N9    T    
C30   N2    T    
C14   C17   S    
C1    C18   S    
C7    N4    A    
C12   O2    A    
C1    O1    A    
C12   C19   S    
Cu1   O1    S    
C26   N3    S    
C9    O7    A    
C29   C32   S    
C34   C36   A    
C23   C27   S    
C23   C25   A    
Cu1   O4    S    
Cu1   N5    S    
C24   F6    S    
C6    F2    S    
C5    F12   S    
C13   C16   T    
C18   C32   A    
C10   C11   S    
C20   C22   A    
C15   C16   S    
C3    N6    S    
Cu1   O5    S    
C20   F5    S    
Cu2   N4    S    
C4    N7    S    
C18   C20   A    
C4    C6    A    
C19   C33   A    
C21   C24   A    
Cu2   O6    S    
C5    C7    A    
Cu2   O2    S    
C9    C13   S    
C14   C15   D    
C11   C17   T    
C6    C8    A    
C34   F9    S    
C30   C33   S    
C2    F10   S    
N6    N7    D    
C29   N10   T    
C35   F8    S    
C12   O4    A    
C19   C21   A    
C22   C25   A    
C28   C31   S    
C14   H2    S    
C36   F11   S    
C10   O6    A    
C7    F3    S    
C8    F4    S    
C3    C5    A    
C24   C26   A    
C10   O8    A    
