data_mof_unit_22537.cif
_audit_creation_date              2012-12-11T16:28:33-0500
_audit_creation_method            fapswitch 2.2
_symmetry_space_group_name_H-M    P1
_symmetry_Int_Tables_number       1
_space_group_crystal_system       triclinic
_cell_length_a                    16.554084
_cell_length_b                    7.254798
_cell_length_c                    15.218273
_cell_angle_alpha                 90.000234
_cell_angle_beta                  94.827941
_cell_angle_gamma                 90.000028
_cell_volume                      1821.17719898

loop_
_atom_site_label
_atom_site_type_symbol
_atom_type_description
_atom_site_fract_x
_atom_site_fract_y
_atom_site_fract_z
_atom_type_partial_charge
O1    O     O_R   0.663460 0.361760 0.165970 -0.531490
O2    O     O_R   0.336540 0.638240 0.834030 -0.533055
O3    O     O_R   0.836540 0.861760 0.334030 -0.533058
O4    O     O_R   0.163460 0.138240 0.665970 -0.531487
O5    O     O_R   0.827100 0.689870 0.163730 -0.532505
O6    O     O_R   0.172900 0.310130 0.836270 -0.531829
O7    O     O_R   0.672900 0.189870 0.336270 -0.531831
O8    O     O_R   0.327100 0.810130 0.663730 -0.532504
H1    H     H_    0.212163 0.026662 0.503919 0.107672
H2    H     H_    0.788225 0.957778 0.494878 0.117475
H3    H     H_    0.288224 0.542200 0.994879 0.117472
H4    H     H_    0.712164 0.473309 0.003921 0.107674
C1    C     C_R   0.853361 0.522952 0.143665 0.697794
C2    C     C_R   0.146720 0.477076 0.856429 0.698340
C3    C     C_R   0.646720 0.022924 0.356429 0.698340
C4    C     C_R   0.353361 0.977047 0.643665 0.697794
O9    O     O_R   0.663490 0.691370 0.155500 -0.533491
O10   O     O_R   0.336510 0.308630 0.844500 -0.532588
O11   O     O_R   0.836510 0.191370 0.344500 -0.532584
O12   O     O_R   0.163490 0.808630 0.655500 -0.533494
O13   O     O_R   0.671770 0.863320 0.325740 -0.531688
O14   O     O_R   0.328230 0.136680 0.674260 -0.530460
O15   O     O_R   0.828230 0.363320 0.174260 -0.530459
O16   O     O_R   0.171770 0.636680 0.825740 -0.531689
C5    C     C_R   0.635594 0.522855 0.134461 0.772390
C6    C     C_R   0.364392 0.477195 0.865551 0.766568
C7    C     C_R   0.864392 0.022805 0.365551 0.766568
C8    C     C_R   0.135594 0.977144 0.634461 0.772389
O17   O     O_3   0.752910 0.528800 0.305860 -0.372103
O18   O     O_3   0.247090 0.471200 0.694140 -0.371360
O19   O     O_3   0.747090 0.028800 0.194140 -0.371361
O20   O     O_3   0.252910 0.971200 0.805860 -0.372103
V1    V     V_3+5 0.749460 0.803010 0.239640 1.457525
V2    V     V_3+5 0.250540 0.196990 0.760360 1.459136
V3    V     V_3+5 0.750540 0.303010 0.260360 1.459136
V4    V     V_3+5 0.249460 0.696990 0.739640 1.457525
C9    C     C_1   0.469026 0.994654 0.530343 0.007176
C10   C     C_1   0.531331 0.005108 0.470063 0.001571
C11   C     C_1   0.031330 0.494892 0.970063 0.001570
C12   C     C_1   0.969026 0.505345 0.030343 0.007178
C13   C     C_R   0.035347 0.057195 0.320391 0.145845
C14   C     C_R   0.964244 0.944977 0.679879 0.093045
C15   C     C_R   0.464244 0.555025 0.179879 0.093043
C16   C     C_R   0.535347 0.442814 0.820389 0.145846
C17   C     C_R   0.116501 0.075529 0.300457 0.197554
C18   C     C_R   0.882653 0.920338 0.699152 0.198398
C19   C     C_R   0.382653 0.579652 0.199152 0.198398
C20   C     C_R   0.616502 0.424465 0.800457 0.197550
C21   C     C_R   0.179780 0.064861 0.367555 0.149363
C22   C     C_R   0.820319 0.922891 0.631026 0.194629
C23   C     C_R   0.320318 0.577087 0.131026 0.194630
C24   C     C_R   0.679781 0.435116 0.867556 0.149366
C25   C     C_R   0.161625 0.035353 0.454232 -0.175485
C26   C     C_R   0.838759 0.954275 0.544810 -0.218506
C27   C     C_R   0.338759 0.545709 0.044811 -0.218505
C28   C     C_R   0.661625 0.464627 0.954233 -0.175488
C29   C     C_R   0.080883 0.017618 0.477166 -0.040135
C30   C     C_R   0.919220 0.979009 0.522597 -0.031818
C31   C     C_R   0.419220 0.520986 0.022597 -0.031818
C32   C     C_R   0.580883 0.482376 0.977166 -0.040135
C33   C     C_R   0.015914 0.029687 0.409616 0.018274
C34   C     C_R   0.983961 0.970223 0.590467 0.044974
C35   C     C_R   0.483961 0.529777 0.090467 0.044974
C36   C     C_R   0.515915 0.470316 0.909616 0.018274
C37   C     C_R   0.065439 0.987774 0.566705 -0.114615
C38   C     C_R   0.934537 0.011880 0.433331 -0.113728
C39   C     C_R   0.434537 0.488122 0.933330 -0.113727
C40   C     C_R   0.565439 0.512224 0.066705 -0.114614
C41   C     C_1   0.416173 0.986124 0.581655 -0.193329
C42   C     C_1   0.584088 0.013731 0.418644 -0.196744
C43   C     C_1   0.084088 0.486270 0.918644 -0.196745
C44   C     C_1   0.916172 0.513875 0.081655 -0.193327
N1    N     N_3   0.133223 0.105504 0.210558 -0.685624
H5    H     H_    0.164594 0.229710 0.207017 0.240258
H6    H     H_    0.170196 0.998891 0.191214 0.238763
N2    N     N_3   0.862687 0.892391 0.788210 -0.689355
H7    H     H_    0.882306 0.006169 0.826329 0.232119
H8    H     H_    0.892402 0.774450 0.813647 0.231297
N3    N     N_3   0.362686 0.607602 0.288210 -0.689351
H9    H     H_    0.382312 0.493832 0.326331 0.232118
H10   H     H_    0.392397 0.725550 0.313643 0.231298
N4    N     N_3   0.633225 0.394479 0.710559 -0.685621
H11   H     H_    0.670222 0.501052 0.691222 0.238774
H12   H     H_    0.664568 0.270235 0.707018 0.240251
C45   C     C_3   0.732714 0.892288 0.647241 -0.761280
H13   H     H_    0.723273 0.872244 0.717892 0.241507
H14   H     H_    0.696074 0.012398 0.622505 0.200868
H15   H     H_    0.709776 0.768347 0.610375 0.200672
C46   C     C_3   0.267004 0.084648 0.347252 -0.785898
H16   H     H_    0.282465 0.975853 0.300248 0.224002
H17   H     H_    0.276642 0.222084 0.317852 0.219832
H18   H     H_    0.309512 0.071625 0.407379 0.208670
C47   C     C_3   0.767006 0.415319 0.847253 -0.785894
H19   H     H_    0.782473 0.524140 0.800266 0.223998
H20   H     H_    0.809513 0.428298 0.907384 0.208667
H21   H     H_    0.776638 0.277897 0.817834 0.219834
C48   C     C_3   0.232712 0.607672 0.147243 -0.761284
H22   H     H_    0.223271 0.627711 0.217894 0.241509
H23   H     H_    0.209769 0.731610 0.110378 0.200666
H24   H     H_    0.196076 0.487556 0.122506 0.200872
N5    N     N_3   0.973484 0.065353 0.248531 -0.651141
H25   H     H_    0.983603 0.959811 0.203945 0.245980
H26   H     H_    0.977787 0.191939 0.216410 0.251778
N6    N     N_3   0.026175 0.946660 0.751817 -0.665031
H27   H     H_    0.014954 0.054391 0.794731 0.227578
H28   H     H_    0.025296 0.821482 0.785658 0.232207
N7    N     N_3   0.526175 0.553357 0.251816 -0.665030
H29   H     H_    0.525292 0.678536 0.285656 0.232207
H30   H     H_    0.514959 0.445625 0.294731 0.227577
N8    N     N_3   0.473485 0.434673 0.748529 -0.651145
H31   H     H_    0.477782 0.308087 0.716406 0.251775
H32   H     H_    0.483608 0.540215 0.703945 0.245983

loop_
_geom_bond_atom_site_label_1
_geom_bond_atom_site_label_2
_ccdc_geom_bond_type
C23   C48   S    
C16   C20   A    
C10   C42   T    
C30   C34   A    
C47   H19   S    
C9    C41   T    
N7    H30   S    
C2    C43   S    
O10   C6    A    
C13   C33   A    
C18   N2    S    
C48   H22   S    
C15   C35   A    
C45   H13   S    
C16   C36   A    
O16   V4    S    
C6    C39   S    
N2    H8    S    
C27   C31   A    
O8    V4    S    
O13   V1    S    
O3    V1    S    
C1    O15   A    
C17   N1    S    
N1    H5    S    
C2    O16   A    
N8    H31   S    
C22   C45   S    
C31   C39   A    
C33   C38   A    
C30   C38   A    
C20   N4    S    
O5    V1    S    
N7    H29   S    
O19   V1    S    
C19   N3    S    
C46   H17   S    
O11   C7    A    
C14   C34   A    
O5    C1    A    
O7    C3    A    
N5    H26   S    
C11   C43   T    
O1    C5    A    
N1    H6    S    
C5    C40   S    
O9    V1    S    
N6    H28   S    
N6    H27   S    
C48   H23   S    
N5    H25   S    
C45   H14   S    
O14   V2    S    
O4    V2    S    
C36   C39   A    
N2    H7    S    
C29   C37   A    
C11   C12   S    
N3    H10   S    
C25   C29   A    
C19   C23   A    
O12   C8    A    
O6    V2    S    
O20   V2    S    
C9    C10   S    
O6    C2    A    
C17   C21   A    
C24   C47   S    
O2    C6    A    
C15   N7    S    
C46   H18   S    
O10   V2    S    
H4    C28   S    
C47   H21   S    
N4    H12   S    
C14   C18   A    
C31   C35   A    
H1    C25   S    
C48   H24   S    
H3    C27   S    
O1    V3    S    
C26   C30   A    
C45   H15   S    
O2    V4    S    
C3    C42   S    
O17   V3    S    
C35   C40   A    
C4    O14   A    
C12   C44   T    
C34   C37   A    
O7    V3    S    
C4    C41   S    
C21   C46   S    
C14   N6    S    
C29   C33   A    
C1    C44   S    
C18   C22   A    
O15   V3    S    
O18   V4    S    
C32   C36   A    
O9    C5    A    
O3    C7    A    
C8    C37   S    
C22   C26   A    
C7    C38   S    
O11   V3    S    
C47   H20   S    
C3    O13   A    
C21   C25   A    
C13   N5    S    
C23   C27   A    
H2    C26   S    
N8    H32   S    
N3    H9    S    
O12   V4    S    
C28   C32   A    
C20   C24   A    
C32   C40   A    
O8    C4    A    
N4    H11   S    
O4    C8    A    
C13   C17   A    
C46   H16   S    
C15   C19   A    
C24   C28   A    
C16   N8    S    
