data_mof_unit_42758.cif
_audit_creation_date              2012-12-10T17:54:17-0500
_audit_creation_method            fapswitch 2.2
_symmetry_space_group_name_H-M    P1
_symmetry_Int_Tables_number       1
_space_group_crystal_system       triclinic
_cell_length_a                    27.730047
_cell_length_b                    10.619831
_cell_length_c                    9.908773
_cell_angle_alpha                 89.948219
_cell_angle_beta                  90.132039
_cell_angle_gamma                 91.703104
_cell_volume                      2916.72103929

loop_
_atom_site_label
_atom_site_type_symbol
_atom_type_description
_atom_site_fract_x
_atom_site_fract_y
_atom_site_fract_z
_atom_type_partial_charge
C1    C     C_R   0.501308 0.260738 0.500095 0.856484
C2    C     C_R   0.972943 0.374314 0.497302 0.046437
C3    C     C_R   0.975882 0.607077 0.489150 0.047282
C4    C     C_R   0.406095 0.499105 0.499808 0.857963
C5    C     C_R   0.949185 0.490931 0.493686 0.069152
C6    C     C_R   0.944625 0.261322 0.492686 -0.215844
C7    C     C_R   0.894651 0.262956 0.491621 -0.137717
C8    C     C_R   0.871041 0.377059 0.494503 -0.019388
C9    C     C_R   0.898114 0.491422 0.494947 -0.051919
C10   C     C_R   0.873996 0.606288 0.496837 -0.018516
C11   C     C_R   0.823578 0.604593 0.499341 0.491579
C12   C     C_R   0.278124 0.499906 0.375559 -0.103037
C13   C     C_R   0.820656 0.379774 0.496390 0.490840
C14   C     C_R   0.722182 0.491028 0.627229 0.204972
C15   C     C_R   0.671625 0.493476 0.624505 -0.224683
C16   C     C_R   0.501466 0.739452 0.499918 0.878168
C17   C     C_R   0.672088 0.499797 0.379414 -0.208091
C18   C     C_R   0.721988 0.497407 0.380557 -0.121997
C19   C     C_R   0.746932 0.493156 0.502989 0.269452
C20   C     C_R   0.023972 0.374295 0.504645 0.046799
C21   C     C_R   0.050647 0.490053 0.493256 0.070557
C22   C     C_R   0.026863 0.606175 0.481379 0.046316
C23   C     C_R   0.252946 0.489448 0.497165 0.324187
C24   C     C_R   0.049448 0.262261 0.524612 -0.216003
C25   C     C_R   0.105049 0.716026 0.459844 -0.135307
C26   C     C_R   0.950487 0.720602 0.494119 -0.215836
C27   C     C_R   0.900520 0.719921 0.497576 -0.139534
C28   C     C_R   0.593916 0.499910 0.500238 0.852912
C29   C     C_R   0.055101 0.717756 0.461296 -0.215845
C30   C     C_R   0.582287 0.137573 0.624710 -0.174761
C31   C     C_R   0.620175 0.074755 0.685085 -0.113975
C32   C     C_R   0.620215 0.943708 0.684956 -0.119340
C33   C     C_R   0.582385 0.875041 0.624373 -0.190610
C34   C     C_R   0.101726 0.489738 0.493983 -0.051888
C35   C     C_R   0.543383 0.937339 0.563992 0.093595
C36   C     C_R   0.543322 0.069324 0.564186 0.097714
C37   C     C_R   0.504643 0.128719 0.499887 -0.087708
C38   C     C_R   0.468146 0.061853 0.432267 -0.209927
C39   C     C_R   0.468214 0.933266 0.432076 -0.190772
C40   C     C_R   0.176399 0.378088 0.512449 0.503462
C41   C     C_R   0.504773 0.872006 0.499502 -0.101613
C42   C     C_R   0.436515 0.335434 0.139928 -0.160690
C43   C     C_R   0.405213 0.254369 0.069626 -0.193140
C44   C     C_R   0.405244 0.254196 0.929932 -0.186569
C45   C     C_R   0.125933 0.376066 0.511222 -0.020504
C46   C     C_R   0.436584 0.335070 0.859727 -0.158831
C47   C     C_R   0.468724 0.418798 0.927582 0.169182
C48   C     C_R   0.468710 0.418913 0.072207 0.170892
C49   C     C_R   0.530005 0.577432 0.071614 -0.111500
C50   C     C_R   0.529991 0.577412 0.928461 -0.113474
C51   C     C_R   0.179103 0.600746 0.478851 0.505380
C52   C     C_R   0.277684 0.481357 0.619716 -0.102041
C53   C     C_R   0.327809 0.484649 0.620905 -0.218831
C54   C     C_R   0.328216 0.502799 0.376283 -0.220781
C55   C     C_3   0.750962 0.486485 0.758187 -0.392300
C56   C     C_R   0.099449 0.263394 0.527591 -0.137371
C57   C     C_3   0.721387 0.484403 0.888394 -0.891219
C58   C     C_R   0.128722 0.603148 0.477665 -0.022352
C59   C     C_R   0.353404 0.495809 0.499102 -0.040621
C60   C     C_R   0.646602 0.497976 0.501247 -0.089428
H1    H     H_    0.347114 0.511031 0.280992 0.167842
H2    H     H_    0.584307 0.239336 0.624286 0.153668
H3    H     H_    0.649814 0.127979 0.730901 0.149936
H4    H     H_    0.258786 0.506105 0.280821 0.138407
H5    H     H_    0.649883 0.895084 0.730698 0.148807
H6    H     H_    0.584475 0.773538 0.623603 0.143681
H7    H     H_    0.439140 0.881115 0.381808 0.158759
H8    H     H_    0.554523 0.640699 0.125470 0.148735
H9    H     H_    0.434412 0.329762 0.246921 0.199719
H10   H     H_    0.380826 0.191192 0.124067 0.156859
H11   H     H_    0.380868 0.190902 0.875422 0.161374
H12   H     H_    0.258000 0.473416 0.713752 0.138531
H13   H     H_    0.434546 0.329040 0.752707 0.204306
H14   H     H_    0.554492 0.640678 0.874697 0.143854
H15   H     H_    0.117281 0.175093 0.543036 0.189844
H16   H     H_    0.651364 0.491831 0.717501 0.174880
H17   H     H_    0.874567 0.173894 0.488737 0.191489
H18   H     H_    0.959898 0.169445 0.486969 0.138346
H19   H     H_    0.031871 0.171890 0.541603 0.138903
H20   H     H_    0.346411 0.478415 0.716809 0.166116
H21   H     H_    0.700078 0.570982 0.896723 0.258779
H22   H     H_    0.697060 0.399446 0.891800 0.260882
H23   H     H_    0.125067 0.804070 0.444676 0.192031
H24   H     H_    0.746137 0.481099 0.976526 0.259854
H25   H     H_    0.773067 0.400922 0.757315 0.224908
H26   H     H_    0.776060 0.569949 0.762069 0.223340
H27   H     H_    0.968108 0.812215 0.498797 0.137577
H28   H     H_    0.653551 0.503199 0.283202 0.168045
H29   H     H_    0.882748 0.809362 0.501242 0.188851
H30   H     H_    0.741542 0.499147 0.286031 0.141501
H31   H     H_    0.039779 0.808254 0.443400 0.139789
H32   H     H_    0.439032 0.109487 0.382078 0.142790
N1    N     N_R   0.201633 0.489348 0.496274 -0.358832
N2    N     N_R   0.798276 0.492424 0.499854 -0.359864
N3    N     N_R   0.499540 0.498800 0.142780 -0.122505
N4    N     N_R   0.499520 0.498720 0.857170 -0.121671
O1    O     O_R   0.500000 0.316780 0.614690 -0.640365
O2    O     O_R   0.571250 0.499990 0.614680 -0.638981
O3    O     O_R   0.571240 0.499970 0.385350 -0.612943
O4    O     O_2   0.200164 0.270004 0.528888 -0.553851
O5    O     O_2   0.794124 0.271115 0.495419 -0.556846
O6    O     O_2   0.205489 0.708695 0.463535 -0.550493
O7    O     O_2   0.799883 0.713802 0.501632 -0.557042
O8    O     O_R   0.500000 0.316750 0.385360 -0.627860
O9    O     O_R   0.428760 0.500030 0.614650 -0.634825
O10   O     O_R   0.428750 0.500010 0.385320 -0.641300
O11   O     O_R   0.500000 0.683250 0.614640 -0.612634
O12   O     O_R   0.500000 0.683220 0.385310 -0.610437
Zn1   Zn    Zn3+2 0.500000 0.500020 0.653130 0.934601
Zn2   Zn    Zn3+2 0.500000 0.499980 0.346870 0.944083

loop_
_geom_bond_atom_site_label_1
_geom_bond_atom_site_label_2
_ccdc_geom_bond_type
C10   C27   A    
C8    C13   A    
C48   N3    A    
C17   H28   S    
C15   C60   A    
C49   H8    S    
C35   C36   A    
C40   N1    A    
C53   C59   A    
C7    C8    A    
C39   C41   A    
C31   C32   A    
C51   O6    S    
C12   C23   A    
C26   C27   A    
C36   C37   A    
C22   C29   A    
C50   H14   S    
C30   C31   A    
C12   H4    S    
C6    H18   S    
C38   H32   S    
C44   H11   S    
C18   C19   A    
C16   O11   A    
C20   C24   A    
C45   C56   A    
C26   H27   S    
C47   N4    A    
C27   H29   S    
C9    C10   A    
C1    C37   S    
C7    H17   S    
C15   H16   S    
O2    Zn1   S    
C21   C22   A    
O11   Zn1   S    
C2    C6    A    
C44   C46   A    
C33   H6    S    
C54   C59   A    
C28   C60   S    
C25   C29   A    
C40   C45   A    
C2    C20   A    
C18   H30   S    
C31   H3    S    
C53   H20   S    
C1    O1    A    
C34   C45   A    
C8    C9    A    
C21   C34   A    
O3    Zn2   S    
C4    O10   A    
C42   H9    S    
C23   N1    S    
C55   H25   S    
C43   C44   A    
C5    C9    A    
C37   C38   A    
C52   H12   S    
O1    Zn1   S    
C24   H19   S    
C47   C48   A    
C17   C18   A    
C57   H24   S    
C51   C58   A    
C42   C48   A    
C49   N3    A    
C34   C58   A    
C1    O8    A    
C19   N2    S    
C51   N1    A    
C28   O3    A    
C43   H10   S    
C55   C57   S    
C57   H21   S    
C2    C5    A    
C42   C43   A    
C13   O5    S    
C29   H31   S    
C52   C53   A    
C11   N2    A    
C25   H23   S    
O10   Zn2   S    
C4    O9    A    
C28   O2    A    
O9    Zn1   S    
C46   C47   A    
C14   C15   A    
C39   H7    S    
C14   C19   A    
C3    C26   A    
C3    C5    A    
N3    Zn2   S    
C40   O4    S    
C6    C7    A    
C54   H1    S    
C24   C56   A    
N4    Zn1   S    
C30   C36   A    
C13   N2    A    
C32   C33   A    
C55   H26   S    
C30   H2    S    
O8    Zn2   S    
C50   N4    A    
C23   C52   A    
C38   C39   A    
C4    C59   S    
C33   C35   A    
O12   Zn2   S    
C14   C55   S    
C35   C41   A    
C10   C11   A    
C16   O12   A    
C17   C60   A    
C20   C21   A    
C49   C50   A    
C25   C58   A    
C56   H15   S    
C57   H22   S    
C3    C22   A    
C11   O7    S    
C16   C41   S    
C46   H13   S    
C12   C54   A    
C32   H5    S    
