data_mof_unit_37619.cif
_audit_creation_date              2012-10-26T21:00:18-0400
_audit_creation_method            fapswitch 2.2
_symmetry_space_group_name_H-M    P1
_symmetry_Int_Tables_number       1
_space_group_crystal_system       triclinic
_cell_length_a                    19.428388
_cell_length_b                    8.804175
_cell_length_c                    7.701273
_cell_angle_alpha                 104.272539
_cell_angle_beta                  97.163764
_cell_angle_gamma                 102.6035
_cell_volume                      1223.49635574

loop_
_atom_site_label
_atom_site_type_symbol
_atom_type_description
_atom_site_fract_x
_atom_site_fract_y
_atom_site_fract_z
_atom_type_partial_charge
C1    C     C_R   0.497821 0.199223 0.451577 0.522993
C2    C     C_R   0.808148 0.489391 0.344497 -0.131736
C3    C     C_R   0.145994 0.500222 0.494667 0.030904
C4    C     C_R   0.854006 0.499774 0.505337 0.030904
C5    C     C_R   0.173629 0.489384 0.332707 -0.120826
C6    C     C_R   0.826374 0.510648 0.667305 -0.120823
C7    C     C_R   0.245607 0.488731 0.332066 -0.138738
C8    C     C_R   0.754396 0.511302 0.667944 -0.138740
C9    C     C_R   0.291226 0.499124 0.493416 0.015821
C10   C     C_R   0.708774 0.500873 0.506585 0.015822
C11   C     C_R   0.930118 0.499711 0.502878 0.344561
C12   C     C_R   0.502179 0.800776 0.548423 0.522992
C13   C     C_R   0.069882 0.500287 0.497127 0.344561
C14   C     C_R   0.418521 0.307544 0.943221 0.192726
C15   C     C_R   0.379664 0.216093 0.047748 -0.072097
C16   C     C_R   0.326698 0.069267 0.976441 -0.159598
C17   C     C_R   0.305148 0.002963 0.791385 -0.096927
C18   C     C_R   0.335011 0.087408 0.679554 -0.161969
C19   C     C_R   0.387982 0.234615 0.752808 -0.083568
C20   C     C_R   0.581480 0.692453 0.056779 0.192728
C21   C     C_R   0.620337 0.783903 0.952251 -0.072098
C22   C     C_R   0.673308 0.930721 0.023558 -0.159604
C23   C     C_2   0.496820 0.029763 0.427150 -0.147393
C24   C     C_R   0.694860 0.997022 0.208614 -0.096929
C25   C     C_R   0.664994 0.912581 0.320445 -0.161967
C26   C     C_R   0.612020 0.765381 0.247191 -0.083562
C27   C     C_2   0.503180 0.970236 0.572850 -0.147392
C28   C     C_R   0.367509 0.499362 0.496900 0.518873
C29   C     C_R   0.632491 0.500638 0.503100 0.518873
C30   C     C_R   0.263424 0.509974 0.654887 -0.135775
C31   C     C_R   0.736572 0.489984 0.345106 -0.135772
C32   C     C_R   0.191848 0.510568 0.655498 -0.131730
Cu1   Cu    Cu3+1 0.507710 0.517380 0.684380 0.900339
Cu2   Cu    Cu3+1 0.492290 0.482620 0.315620 0.900338
H1    H     H_    0.296920 0.517972 0.781942 0.140456
H2    H     H_    0.509125 0.046190 0.711217 0.147533
H3    H     H_    0.385452 0.246211 0.189104 0.179050
H4    H     H_    0.301797 0.007290 0.067059 0.108015
H5    H     H_    0.264201 0.889500 0.735180 0.139093
H6    H     H_    0.316456 0.039086 0.533132 0.106464
H7    H     H_    0.398139 0.274030 0.641793 0.182135
H8    H     H_    0.614547 0.753789 0.810895 0.179051
H9    H     H_    0.698209 0.992697 0.932939 0.108014
H10   H     H_    0.735810 0.110479 0.264818 0.139092
H11   H     H_    0.683550 0.960901 0.466867 0.106464
H12   H     H_    0.703073 0.481956 0.218044 0.140461
H13   H     H_    0.601860 0.725970 0.358207 0.182135
H14   H     H_    0.172571 0.519089 0.782674 0.133556
H15   H     H_    0.827422 0.480837 0.217315 0.133556
H16   H     H_    0.139710 0.481273 0.206292 0.142418
H17   H     H_    0.860296 0.518791 0.793726 0.142419
H18   H     H_    0.265438 0.480242 0.205578 0.129722
H19   H     H_    0.734568 0.519822 0.794437 0.129724
H20   H     H_    0.490875 0.953810 0.288783 0.147532
N1    N     N_R   0.024604 0.489567 0.342867 -0.221683
N2    N     N_R   0.975396 0.510430 0.657139 -0.221683
N3    N     N_R   0.956199 0.489316 0.345781 -0.228682
N4    N     N_R   0.043801 0.510682 0.654225 -0.228682
N5    N     N_2   0.480680 0.456420 0.038530 -0.146561
N6    N     N_2   0.519320 0.543580 0.961470 -0.146561
O1    O     O_R   0.505010 0.286130 0.619770 -0.517635
O2    O     O_R   0.494990 0.713870 0.380230 -0.517636
O3    O     O_R   0.491990 0.256780 0.308370 -0.516494
O4    O     O_R   0.508010 0.743220 0.691630 -0.516494
O5    O     O_R   0.406650 0.514660 0.655750 -0.522839
O6    O     O_R   0.593350 0.485340 0.344250 -0.522840
O7    O     O_R   0.393640 0.485310 0.344340 -0.532147
O8    O     O_R   0.606360 0.514690 0.655660 -0.532146

loop_
_geom_bond_atom_site_label_1
_geom_bond_atom_site_label_2
_ccdc_geom_bond_type
Cu2   O7    S    
C8    H19   S    
C2    C4    A    
C2    H15   S    
C23   C27   D    
C27   H2    S    
C20   N6    S    
C29   O8    A    
C12   O2    A    
C2    C31   A    
C22   H9    S    
C3    C13   S    
C17   C18   A    
Cu2   O6    S    
C28   O5    A    
Cu1   O5    S    
N5    N6    D    
C21   C22   A    
C24   C25   A    
C4    C11   S    
C30   C32   A    
C14   N5    S    
C32   H14   S    
C10   C29   S    
C19   H7    S    
Cu2   N5    S    
C20   C26   A    
C30   H1    S    
Cu1   O4    S    
C24   H10   S    
C9    C30   A    
C4    C6    A    
Cu2   O3    S    
N2    N4    A    
C7    H18   S    
C1    C23   S    
Cu1   N6    S    
C5    C7    A    
N1    N3    A    
C3    C32   A    
C12   O4    A    
C22   C24   A    
C5    H16   S    
C21   H8    S    
C12   C27   S    
C1    O1    A    
C29   O6    A    
C25   H11   S    
Cu2   O2    S    
C28   O7    A    
Cu1   Cu2   S    
C20   C21   A    
C9    C28   S    
C23   H20   S    
Cu1   O1    S    
C18   C19   A    
C17   H5    S    
C6    H17   S    
C7    C9    A    
C18   H6    S    
C14   C15   A    
C1    O3    A    
C6    C8    A    
C13   N4    A    
C26   H13   S    
C3    C5    A    
C25   C26   A    
C11   N3    A    
C14   C19   A    
C8    C10   A    
C15   H3    S    
C11   N2    A    
C15   C16   A    
Cu1   O8    S    
C16   H4    S    
C16   C17   A    
C13   N1    A    
C31   H12   S    
C10   C31   A    
