data_mof_unit_57038.cif
_audit_creation_date              2012-12-11T16:28:25-0500
_audit_creation_method            fapswitch 2.2
_symmetry_space_group_name_H-M    P1
_symmetry_Int_Tables_number       1
_space_group_crystal_system       triclinic
_cell_length_a                    16.86836
_cell_length_b                    7.244359
_cell_length_c                    14.903488
_cell_angle_alpha                 88.500044
_cell_angle_beta                  94.611559
_cell_angle_gamma                 88.813198
_cell_volume                      1814.21931623

loop_
_atom_site_label
_atom_site_type_symbol
_atom_type_description
_atom_site_fract_x
_atom_site_fract_y
_atom_site_fract_z
_atom_type_partial_charge
O1    O     O_R   0.663460 0.361760 0.165970 -0.532398
O2    O     O_R   0.336540 0.638240 0.834030 -0.532397
O3    O     O_R   0.836540 0.861760 0.334030 -0.529569
O4    O     O_R   0.163460 0.138240 0.665970 -0.529569
O5    O     O_R   0.827100 0.689870 0.163730 -0.522974
O6    O     O_R   0.172900 0.310130 0.836270 -0.522974
O7    O     O_R   0.672900 0.189870 0.336270 -0.530990
O8    O     O_R   0.327100 0.810130 0.663730 -0.530990
C1    C     C_R   0.853852 0.523084 0.144151 0.729840
C2    C     C_R   0.146148 0.476916 0.855849 0.729839
C3    C     C_R   0.645946 0.023332 0.355443 0.730295
C4    C     C_R   0.354054 0.976668 0.644557 0.730294
O9    O     O_R   0.663490 0.691370 0.155500 -0.528301
O10   O     O_R   0.336510 0.308630 0.844500 -0.528300
O11   O     O_R   0.836510 0.191370 0.344500 -0.531521
O12   O     O_R   0.163490 0.808630 0.655500 -0.531521
O13   O     O_R   0.671770 0.863320 0.325740 -0.523220
O14   O     O_R   0.328230 0.136680 0.674260 -0.523220
O15   O     O_R   0.828230 0.363320 0.174260 -0.532987
O16   O     O_R   0.171770 0.636680 0.825740 -0.532986
C5    C     C_R   0.639609 0.526162 0.128543 0.703178
C6    C     C_R   0.360391 0.473838 0.871457 0.703178
C7    C     C_R   0.860379 0.018321 0.370773 0.704665
C8    C     C_R   0.139621 0.981679 0.629227 0.704665
O17   O     O_3   0.752910 0.528800 0.305860 -0.362199
O18   O     O_3   0.247090 0.471200 0.694140 -0.362199
O19   O     O_3   0.747090 0.028800 0.194140 -0.365557
O20   O     O_3   0.252910 0.971200 0.805860 -0.365557
V1    V     V_3+5 0.749460 0.803010 0.239640 1.539108
V2    V     V_3+5 0.250540 0.196990 0.760360 1.539108
V3    V     V_3+5 0.750540 0.303010 0.260360 1.527095
V4    V     V_3+5 0.249460 0.696990 0.739640 1.527095
C9    C     C_1   0.469139 0.994487 0.530480 0.108482
C10   C     C_1   0.530861 0.005513 0.469520 0.108482
C11   C     C_1   0.030978 0.494615 0.969699 0.106257
C12   C     C_1   0.969022 0.505385 0.030301 0.106257
C13   C     C_R   0.016734 0.957595 0.314577 -0.178858
C14   C     C_R   0.983266 0.042405 0.685424 -0.178858
C15   C     C_R   0.482240 0.563203 0.183598 -0.174706
C16   C     C_R   0.517759 0.436797 0.816402 -0.174707
C17   C     C_R   0.091195 0.953368 0.281115 0.157695
C18   C     C_R   0.908805 0.046631 0.718885 0.157695
C19   C     C_R   0.408387 0.557242 0.218196 0.158091
C20   C     C_R   0.591613 0.442757 0.781804 0.158092
C21   C     C_R   0.158159 0.997609 0.336922 -0.057233
C22   C     C_R   0.841841 0.002391 0.663078 -0.057233
C23   C     C_R   0.342651 0.498537 0.164484 -0.057586
C24   C     C_R   0.657349 0.501462 0.835516 -0.057587
C25   C     C_R   0.150171 0.039253 0.427690 0.041757
C26   C     C_R   0.849829 0.960747 0.572310 0.041757
C27   C     C_R   0.351422 0.446239 0.075251 0.043696
C28   C     C_R   0.648578 0.553760 0.924749 0.043696
C29   C     C_R   0.076901 0.007560 0.466625 0.033129
C30   C     C_R   0.923099 0.992439 0.533375 0.033128
C31   C     C_R   0.423626 0.482078 0.034396 0.032234
C32   C     C_R   0.576374 0.517922 0.965604 0.032234
C33   C     C_R   0.007681 0.986543 0.406689 0.018047
C34   C     C_R   0.992319 0.013457 0.593311 0.018047
C35   C     C_R   0.491883 0.525167 0.092506 0.018072
C36   C     C_R   0.508117 0.474833 0.907494 0.018072
C37   C     C_R   0.069327 0.005184 0.561433 -0.115875
C38   C     C_R   0.930673 0.994816 0.438567 -0.115875
C39   C     C_R   0.431170 0.470603 0.939724 -0.116696
C40   C     C_R   0.568830 0.529397 0.060276 -0.116696
C41   C     C_1   0.416727 0.985609 0.582323 -0.106383
C42   C     C_1   0.583273 0.014391 0.417677 -0.106382
C43   C     C_1   0.083519 0.485841 0.918060 -0.108849
C44   C     C_1   0.916481 0.514159 0.081940 -0.108849
H1    H     H_    0.966249 0.933627 0.267297 0.141969
H2    H     H_    0.033751 0.066373 0.732703 0.141969
H3    H     H_    0.531848 0.602137 0.229161 0.138818
H4    H     H_    0.468152 0.397862 0.770839 0.138818
I1    I     I_    0.233633 0.231220 0.482962 -0.325583
I2    I     I_    0.766367 0.768779 0.517038 -0.325584
I3    I     I_    0.270389 0.241788 0.027134 -0.324781
I4    I     I_    0.729611 0.758212 0.972865 -0.324781
I5    I     I_    0.097019 0.900384 0.142169 -0.357732
I6    I     I_    0.902981 0.099615 0.857832 -0.357732
I7    I     I_    0.402298 0.616774 0.356431 -0.360413
I8    I     I_    0.597702 0.383224 0.643569 -0.360413
C45   C     C_1   0.765875 0.987873 0.700867 0.453512
N1    N     N_1   0.705106 0.975907 0.731256 -0.294877
C46   C     C_1   0.234125 0.012126 0.299133 0.453511
N2    N     N_1   0.294894 0.024091 0.268744 -0.294877
C47   C     C_1   0.733030 0.517015 0.797070 0.451247
N3    N     N_1   0.793604 0.529276 0.766252 -0.297899
C48   C     C_1   0.266970 0.482984 0.202930 0.451247
N4    N     N_1   0.206396 0.470723 0.233749 -0.297899

loop_
_geom_bond_atom_site_label_1
_geom_bond_atom_site_label_2
_ccdc_geom_bond_type
O17   V3    S    
C48   N4    T    
C14   H2    S    
O1    C5    A    
C8    C37   S    
C16   C36   A    
C31   C35   A    
O19   V1    S    
O13   V1    S    
O3    C7    A    
C11   C12   S    
O15   V3    S    
C10   C42   T    
C45   N1    T    
C9    C41   T    
C33   C38   A    
C47   N3    T    
O7    C3    A    
C35   C40   A    
C26   C30   A    
C36   C39   A    
O9    V1    S    
C27   I3    S    
C14   C18   A    
C13   H1    S    
C26   I2    S    
O16   V4    S    
O4    C8    A    
C19   I7    S    
O1    V3    S    
O2    V4    S    
C18   C22   A    
O3    V1    S    
C5    C40   S    
C6    C39   S    
C14   C34   A    
C29   C37   A    
C1    O15   A    
C7    C38   S    
C2    O16   A    
C31   C39   A    
O2    C6    A    
C32   C40   A    
O14   V2    S    
C11   C43   T    
C16   C20   A    
C3    C42   S    
C34   C37   A    
O11   C7    A    
O12   C8    A    
C21   C46   S    
O10   V2    S    
O5    V1    S    
O7    V3    S    
O8    V4    S    
C20   I8    S    
C29   C33   A    
O18   V4    S    
C23   C27   A    
C30   C38   A    
C2    C43   S    
C32   C36   A    
C23   C48   S    
O5    C1    A    
C22   C45   S    
C46   N2    T    
C21   C25   A    
O8    C4    A    
C15   C35   A    
C9    C10   S    
O9    C5    A    
O6    V2    S    
C18   I6    S    
C25   I1    S    
C30   C34   A    
C3    O13   A    
C17   C21   A    
C16   H4    S    
C28   I4    S    
O6    C2    A    
C15   C19   A    
C12   C44   T    
O11   V3    S    
O12   V4    S    
C4    C41   S    
C22   C26   A    
O10   C6    A    
O20   V2    S    
C1    C44   S    
C17   I5    S    
C25   C29   A    
C27   C31   A    
C13   C17   A    
O4    V2    S    
C28   C32   A    
C24   C28   A    
C4    O14   A    
C15   H3    S    
C24   C47   S    
C19   C23   A    
C13   C33   A    
C20   C24   A    
