data_mof_unit_25020.cif
_audit_creation_date              2012-12-10T17:24:49-0500
_audit_creation_method            fapswitch 2.2
_symmetry_space_group_name_H-M    P1
_symmetry_Int_Tables_number       1
_space_group_crystal_system       triclinic
_cell_length_a                    18.760457
_cell_length_b                    18.494177
_cell_length_c                    19.026926
_cell_angle_alpha                 109.248586
_cell_angle_beta                  110.750085
_cell_angle_gamma                 108.705919
_cell_volume                      5062.260206

loop_
_atom_site_label
_atom_site_type_symbol
_atom_type_description
_atom_site_fract_x
_atom_site_fract_y
_atom_site_fract_z
_atom_type_partial_charge
C1    C     C_R   0.619857 0.620662 0.500672 0.869681
C2    C     C_R   0.676265 0.759233 0.498095 0.100081
C3    C     C_R   0.813153 0.813721 0.499340 -0.120566
C4    C     C_R   0.380454 0.501444 0.379802 0.915484
C5    C     C_R   0.820168 0.739455 0.497857 0.088905
C6    C     C_R   0.761134 0.680937 0.508194 0.089024
C7    C     C_R   0.686985 0.688404 0.503133 -0.147569
C8    C     C_R   0.885008 0.722108 0.486693 -0.111835
C9    C     C_R   0.896964 0.654599 0.496102 -0.090644
C10   C     C_R   0.844990 0.603221 0.516639 -0.114126
C11   C     C_R   0.777659 0.615909 0.522710 -0.131067
C12   C     C_3   0.187113 0.491472 0.268543 0.466648
C13   C     C_R   0.772636 0.663513 0.769964 -0.297456
C14   C     C_R   0.832878 0.742068 0.849578 0.363232
C15   C     C_R   0.882005 0.738108 0.922739 0.417258
C16   C     C_R   0.379042 0.379331 0.497787 0.838997
C17   C     C_R   0.876111 0.657278 0.911286 -0.283215
C18   C     C_R   0.817298 0.578601 0.829995 0.031346
C19   C     C_R   0.758801 0.580428 0.761569 0.029784
C20   C     C_R   0.814330 0.497758 0.816368 -0.124646
C21   C     C_R   0.744316 0.416464 0.741874 0.077984
C22   C     C_R   0.676653 0.417162 0.679807 0.099078
C23   C     C_3   0.281037 0.569444 0.333553 -0.292508
C24   C     C_R   0.687417 0.499293 0.687435 -0.128111
C25   C     C_R   0.738914 0.334172 0.728482 -0.135015
C26   C     C_R   0.664894 0.254981 0.659180 -0.104318
C27   C     C_R   0.594518 0.255676 0.602343 -0.129032
C28   C     C_R   0.621443 0.500328 0.620715 0.823387
C29   C     C_R   0.599775 0.335561 0.612313 -0.132061
C30   C     C_R   0.419231 0.360343 0.647605 -0.233991
C31   C     C_R   0.434524 0.364554 0.726331 0.420951
C32   C     C_R   0.363113 0.327403 0.735108 -0.309764
C33   C     C_R   0.277266 0.281626 0.664137 0.399018
C34   C     C_3   0.314343 0.503501 0.314114 -0.185012
C35   C     C_R   0.263725 0.259131 0.579491 -0.031308
C36   C     C_R   0.333157 0.310137 0.574416 -0.037852
C37   C     C_R   0.186402 0.187754 0.500162 -0.168805
C38   C     C_R   0.175118 0.177419 0.418725 0.060571
C39   C     C_R   0.235571 0.245248 0.418026 0.085556
C40   C     C_3   0.319721 0.517598 0.241199 0.520990
C41   C     C_R   0.314722 0.310664 0.496496 -0.121931
C42   C     C_R   0.105569 0.101554 0.337787 -0.142545
C43   C     C_R   0.090339 0.099424 0.259722 -0.098349
C44   C     C_R   0.144273 0.171650 0.260184 -0.119374
C45   C     C_R   0.600052 0.765330 0.488202 -0.052733
C46   C     C_R   0.216748 0.243883 0.338398 -0.162736
C47   C     C_R   0.003483 0.620665 0.122828 0.839451
C48   C     C_R   0.124597 0.502698 0.126772 0.920497
C49   C     C_R   0.006610 0.378804 0.887797 0.842595
C50   C     C_R   0.882650 0.498300 0.881839 0.807162
C51   C     C_R   0.001767 0.880610 0.381350 0.810421
C52   C     C_3   0.286178 0.583432 0.258981 -0.297994
C53   C     C_R   0.879778 0.879327 0.499144 0.862170
C54   C     C_R   0.990057 0.110761 0.618510 0.995792
C55   C     C_R   0.120392 0.120969 0.500694 0.929111
C56   C     C_R   0.595477 0.840237 0.492621 -0.118249
C57   C     C_R   0.166851 0.766759 0.276915 -0.108055
C58   C     C_R   0.245286 0.843311 0.344036 -0.131790
C59   C     C_R   0.243754 0.914464 0.397396 -0.122261
C60   C     C_R   0.164021 0.907292 0.386962 -0.141624
C61   C     C_R   0.083734 0.828095 0.321979 0.082696
C62   C     C_R   0.084686 0.760248 0.261704 0.098630
C63   C     C_R   0.002904 0.814543 0.316399 -0.136772
C64   C     C_3   0.192271 0.505114 0.195357 -0.147136
C65   C     C_R   0.922722 0.737940 0.248080 0.022819
C66   C     C_R   0.922433 0.678911 0.179099 0.102465
C67   C     C_R   0.666211 0.910492 0.507135 -0.134441
C68   C     C_R   0.003699 0.688078 0.188345 -0.115744
C69   C     C_R   0.842570 0.718820 0.246847 -0.244638
C70   C     C_R   0.762931 0.647644 0.174314 0.488311
C71   C     C_R   0.762023 0.596389 0.101214 -0.150705
C72   C     C_R   0.840528 0.611858 0.103025 -0.182881
C73   C     C_R   0.911166 0.336295 0.711827 -0.175349
C74   C     C_R   0.849573 0.306046 0.626603 -0.118051
C75   C     C_R   0.821073 0.223142 0.561460 -0.124474
C76   C     C_3   0.225906 0.439882 0.176337 -0.179040
C77   C     C_R   0.858717 0.173116 0.580325 -0.136191
C78   C     C_R   0.739634 0.903977 0.512500 -0.064947
C79   C     C_R   0.927616 0.206198 0.665150 0.108508
C80   C     C_R   0.947518 0.284726 0.732727 0.104810
C81   C     C_R   0.977098 0.163931 0.685062 -0.139383
C82   C     C_R   0.024681 0.183650 0.772751 -0.075772
C83   C     C_R   0.029469 0.251788 0.838757 -0.059039
C84   C     C_R   0.999066 0.307317 0.819348 -0.111560
C85   C     C_R   0.069323 0.139201 0.799171 0.368927
C86   C     C_R   0.139980 0.184839 0.885008 0.401726
C87   C     C_R   0.137136 0.246210 0.948503 -0.286282
C88   C     C_3   0.220526 0.425534 0.250512 -0.284472
C89   C     C_R   0.743698 0.826215 0.503333 0.117363
C90   C     C_R   0.067404 0.262912 0.923351 0.283953
H1    H     H_    0.311858 0.647575 0.260919 0.190797
H2    H     H_    0.542188 0.331772 0.567142 0.148217
H3    H     H_    0.474999 0.395049 0.643620 0.167955
H4    H     H_    0.373777 0.340956 0.798933 0.214055
H5    H     H_    0.036074 0.041780 0.198749 0.195992
H6    H     H_    0.258070 0.297654 0.335392 0.142462
H7    H     H_    0.700688 0.543279 0.043170 0.245577
H8    H     H_    0.172068 0.713072 0.238379 0.148170
H9    H     H_    0.166441 0.964493 0.430250 0.140530
H10   H     H_    0.841016 0.757963 0.302260 0.177704
H11   H     H_    0.835787 0.570720 0.044076 0.182513
H12   H     H_    0.793064 0.961178 0.525093 0.136945
H13   H     H_    0.175012 0.262197 0.014818 0.213720
H14   H     H_    0.194292 0.361181 0.248013 0.172525
H15   H     H_    0.821036 0.345364 0.611817 0.147246
H16   H     H_    0.829702 0.107039 0.528377 0.147172
H17   H     H_    0.304071 0.622001 0.398974 0.203900
H18   H     H_    0.855919 0.552461 0.526569 0.151898
H19   H     H_    0.542626 0.712504 0.475916 0.155410
H20   H     H_    0.537293 0.844188 0.485959 0.138744
H21   H     H_    0.663855 0.969870 0.513201 0.135929
H22   H     H_    0.739512 0.574649 0.539487 0.139343
H23   H     H_    0.926741 0.759697 0.470050 0.139076
H24   H     H_    0.941129 0.973428 0.960638 0.400283
H25   H     H_    0.079991 0.944923 0.099194 0.373627
H26   H     H_    0.440057 0.568669 0.134296 0.403024
H27   H     H_    0.131372 0.170743 0.199653 0.170202
H28   H     H_    0.523755 0.495273 0.917584 0.374752
H29   H     H_    0.281079 0.418638 0.812580 0.366076
H30   H     H_    0.062962 0.042458 0.333049 0.161148
H31   H     H_    0.203458 0.389900 0.110567 0.175047
H32   H     H_    0.307382 0.847735 0.353975 0.138226
H33   H     H_    0.304585 0.974832 0.448103 0.142131
H34   H     H_    0.947593 0.643060 0.488740 0.166474
H35   H     H_    0.541248 0.506742 0.116964 0.405232
H36   H     H_    0.928062 0.399254 0.761076 0.138196
H37   H     H_    0.769335 0.197253 0.496102 0.147015
H38   H     H_    0.985314 0.935551 0.802453 0.417328
H39   H     H_    0.355350 0.220384 0.020998 0.395910
H40   H     H_    0.960160 0.119556 0.988921 0.385096
H41   H     H_    0.147805 0.433228 0.379644 0.346057
H42   H     H_    0.535829 0.194131 0.549933 0.137681
H43   H     H_    0.736157 0.668297 0.714906 0.204047
H44   H     H_    0.915855 0.655903 0.967566 0.197473
H45   H     H_    0.791261 0.329222 0.770613 0.158055
H46   H     H_    0.661681 0.192901 0.650443 0.148227
O1    O     O_R   0.592010 0.539900 0.448660 -0.586209
O2    O     O_R   0.948620 0.908400 0.356980 -0.612815
O3    O     O_R   0.960510 0.908410 0.552140 -0.560491
O4    O     O_R   0.591210 0.643320 0.551330 -0.627011
O5    O     O_R   0.856270 0.908390 0.447890 -0.645307
O6    O     O_R   0.051380 0.091620 0.643040 -0.534657
O7    O     O_R   0.947140 0.091600 0.538800 -0.637741
O8    O     O_R   0.143730 0.091640 0.552130 -0.617972
O9    O     O_R   0.039490 0.091610 0.447890 -0.599549
O10   O     O_R   0.408080 0.448290 0.356360 -0.578663
O11   O     O_R   0.407280 0.551710 0.459030 -0.633508
O12   O     O_R   0.054870 0.643310 0.094700 -0.623849
O13   O     O_R   0.408790 0.356680 0.448670 -0.641343
O14   O     O_R   0.407990 0.460100 0.551340 -0.589904
O15   O     O_R   0.592720 0.448290 0.540970 -0.648038
O16   O     O_R   0.591920 0.551710 0.643640 -0.585885
O17   O     O_R   0.951440 0.539900 0.094740 -0.600263
O18   O     O_2   0.808225 0.831858 0.765408 -0.275322
O19   O     O_2   0.782356 0.861945 0.886458 -0.245254
O20   O     O_3   0.943952 0.925194 0.921168 -0.451478
O21   O     O_2   0.907300 0.884141 0.046498 -0.272939
O22   O     O_2   0.970900 0.801148 0.095216 -0.335384
O23   O     O_R   0.044440 0.448270 0.096110 -0.519115
O24   O     O_3   0.046058 0.893358 0.039835 -0.493851
O25   O     O_2   0.491728 0.609504 0.299811 -0.317618
O26   O     O_2   0.414907 0.450746 0.196929 -0.248116
O27   O     O_3   0.385959 0.552760 0.137322 -0.531995
O28   O     O_2   0.585940 0.369529 0.806348 -0.250925
O29   O     O_2   0.593859 0.508113 0.819091 -0.298573
O30   O     O_3   0.541339 0.449406 0.908800 -0.510370
O31   O     O_2   0.111974 0.255838 0.614434 -0.281257
O32   O     O_2   0.191195 0.250546 0.745745 -0.325389
O33   O     O_3   0.237963 0.401644 0.753325 -0.500316
O34   O     O_R   0.147870 0.551680 0.096080 -0.634477
O35   O     O_2   0.681445 0.655013 0.265053 -0.289376
O36   O     O_2   0.624541 0.671488 0.137082 -0.274737
O37   O     O_3   0.593770 0.515067 0.112043 -0.505780
O38   O     O_2   0.920214 0.984930 0.678470 -0.363045
O39   O     O_2   0.060313 0.983848 0.721094 -0.247494
O40   O     O_3   0.003128 0.998946 0.827311 -0.417575
O41   O     O_2   0.189318 0.082234 0.937206 -0.216596
O42   O     O_2   0.239021 0.122029 0.845313 -0.247649
O43   O     O_3   0.313351 0.242118 0.006426 -0.518143
O44   O     O_2   0.028837 0.292206 0.050013 -0.293947
O45   O     O_R   0.952810 0.356650 0.912880 -0.566077
O46   O     O_2   0.903931 0.200089 0.899754 -0.242100
O47   O     O_3   0.994741 0.133664 0.961540 -0.486986
O48   O     O_2   0.077781 0.547711 0.292057 -0.280771
O49   O     O_2   0.019306 0.387761 0.217408 -0.224788
O50   O     O_3   0.128825 0.477943 0.384207 -0.500812
O51   O     O_R   0.056240 0.460060 0.912840 -0.609501
O52   O     O_R   0.859800 0.448280 0.911500 -0.615747
O53   O     O_R   0.963240 0.551690 0.911470 -0.617019
O54   O     O_R   0.052860 0.908430 0.461230 -0.635553
S1    S     S_3+6 0.839911 0.841599 0.854232 0.100497
S2    S     S_3+6 0.098973 0.475304 0.288631 0.069198
S3    S     S_3+6 0.951129 0.830708 0.029368 0.048560
S4    S     S_3+6 0.407323 0.532772 0.220370 0.046579
S5    S     S_3+6 0.542410 0.424661 0.815972 0.036632
S6    S     S_3+6 0.199847 0.293334 0.692269 0.039831
S7    S     S_3+6 0.664092 0.624275 0.174025 0.047583
S8    S     S_3+6 0.011168 0.023229 0.751901 0.098658
S9    S     S_3+6 0.220720 0.154123 0.916994 0.107096
S10   S     S_3+6 0.996092 0.224314 0.959646 0.067152
Zn1   Zn    Zn3+2 0.500540 0.430950 0.431450 1.029462
Zn2   Zn    Zn3+2 0.499460 0.569050 0.568550 1.052479
Zn3   Zn    Zn3+2 0.934770 0.430930 0.003810 1.147407
Zn4   Zn    Zn3+2 0.072900 0.569020 0.003770 1.033547
Zn5   Zn    Zn3+2 0.069600 0.000030 0.569620 1.132174
Zn6   Zn    Zn3+2 0.930400 0.000000 0.430410 1.033276

loop_
_geom_bond_atom_site_label_1
_geom_bond_atom_site_label_2
_ccdc_geom_bond_type
C66   C68   A    
O18   S1    D    
C63   C65   A    
C22   C29   A    
C27   C29   A    
C3    C53   S    
O31   S6    D    
H26   O27   S    
C32   H4    S    
C2    C7    A    
C80   C84   A    
C60   H9    S    
H35   O37   S    
C81   C82   A    
O2    Zn6   S    
O28   S5    D    
C57   C62   A    
C39   C41   A    
C40   S4    S    
C85   C86   A    
H39   O43   S    
C12   C23   S    
C26   C27   A    
O1    Zn1   S    
C83   C84   A    
O21   S3    D    
C76   H31   S    
C49   C84   S    
C77   H16   S    
C35   C37   A    
C38   C42   A    
O10   Zn1   S    
H40   O47   S    
C30   C31   A    
C12   C64   S    
C45   H19   S    
C55   O9    A    
O7    Zn6   S    
C90   S10   S    
C72   H11   S    
C73   H36   S    
C9    H34   S    
C18   C19   A    
C73   C74   A    
O6    Zn5   S    
C56   H20   S    
C61   C63   A    
C50   O53   A    
O5    Zn6   S    
C20   C50   S    
O3    Zn5   S    
C10   H18   S    
C66   C72   A    
C35   C36   A    
C33   S6    S    
C8    C9    A    
C43   H5    S    
O48   S2    D    
C70   C71   A    
C29   H2    S    
C9    C10   A    
C76   C88   S    
C18   C20   A    
C86   S9    S    
C54   O7    A    
C4    O10   A    
C59   C60   A    
O53   Zn4   S    
C1    C7    S    
C13   C14   A    
C27   H42   S    
O16   Zn2   S    
C36   C41   A    
O45   Zn3   S    
C67   C78   A    
O15   Zn1   S    
O29   S5    D    
H24   O20   S    
O9    Zn6   S    
C88   H14   S    
C44   C46   A    
O33   S6    S    
C57   C58   A    
C77   C79   A    
C78   C89   A    
C59   H33   S    
C38   C39   A    
C12   S2    S    
C48   O23   A    
C4    C34   S    
C58   H32   S    
O22   S3    D    
O38   S8    D    
C74   C75   A    
C12   C88   S    
O37   S7    S    
C51   C63   S    
O30   S5    S    
C45   C56   A    
C52   C64   S    
C6    C11   A    
C79   C81   A    
C13   C19   A    
C86   C87   A    
C75   C77   A    
C47   O17   A    
O27   S4    S    
C25   C26   A    
C40   C52   S    
H38   O40   S    
O51   Zn4   S    
H28   O30   S    
C40   C76   S    
C60   C61   A    
C15   S3    S    
C2    C89   A    
C43   C44   A    
C69   H10   S    
O39   S8    D    
C37   C38   A    
O44   S10   D    
O4    Zn2   S    
O42   S9    D    
C71   H7    S    
C85   S8    S    
O54   Zn5   S    
O23   Zn3   S    
C31   C32   A    
C49   O51   A    
C23   C34   S    
C23   H17   S    
O26   S4    D    
C17   C18   A    
C64   C76   S    
O46   S10   D    
O36   S7    D    
C34   C88   S    
C51   O2    A    
C1    O4    A    
C16   O13   A    
C51   O54   A    
O19   S1    D    
C8    H23   S    
H29   O33   S    
C39   C46   A    
C87   H13   S    
C14   S1    S    
C67   H21   S    
C54   O6    A    
C28   O16   A    
C70   S7    S    
C2    C45   A    
O32   S6    D    
C22   C24   A    
C42   C43   A    
O14   Zn2   S    
C82   C85   A    
C26   H46   S    
O13   Zn1   S    
C47   C68   S    
C1    O1    A    
O12   Zn4   S    
O49   S2    D    
O8    Zn5   S    
C48   O34   A    
C15   C17   A    
C83   C90   A    
C21   C25   A    
C47   O12   A    
C55   O8    A    
C11   H22   S    
C53   O3    A    
C13   H43   S    
O11   Zn2   S    
C24   C28   S    
O40   S8    S    
C3    C5    A    
C50   O52   A    
C5    C8    A    
C6    C7    A    
C30   C36   A    
C30   H3    S    
C56   C67   A    
O52   Zn3   S    
O47   S10   S    
C62   C68   A    
H25   O24   S    
C3    C89   A    
C32   C33   A    
C19   C24   A    
C58   C59   A    
O34   Zn4   S    
C71   C72   A    
O35   S7    D    
C74   H15   S    
C31   S5    S    
C4    O11   A    
C42   H30   S    
C23   C52   S    
C5    C6    A    
O43   S9    S    
C44   H27   S    
C65   C69   A    
C57   H8    S    
C33   C35   A    
C73   C80   A    
O25   S4    D    
C53   O5    A    
C54   C81   S    
O50   S2    S    
C61   C62   A    
C25   H45   S    
C69   C70   A    
C48   C64   S    
C10   C11   A    
C79   C80   A    
C37   C55   S    
O20   S1    S    
H41   O50   S    
C46   H6    S    
C20   C21   A    
C28   O15   A    
C65   C66   A    
O41   S9    D    
C87   C90   A    
C17   H44   S    
C14   C15   A    
C34   C40   S    
C52   H1    S    
C16   O14   A    
C78   H12   S    
C82   C83   A    
C21   C22   A    
C16   C41   S    
C49   O45   A    
O24   S3    S    
O17   Zn3   S    
C75   H37   S    
