data_mof_unit_16025.cif
_audit_creation_date              2013-03-05T15:48:16-0500
_audit_creation_method            fapswitch 2.2
_symmetry_space_group_name_H-M    P1
_symmetry_Int_Tables_number       1
_space_group_crystal_system       triclinic
_cell_length_a                    11.657177
_cell_length_b                    12.966841
_cell_length_c                    15.801095
_cell_angle_alpha                 92.358177
_cell_angle_beta                  74.041711
_cell_angle_gamma                 100.007943
_cell_volume                      2261.39855877

loop_
_atom_site_label
_atom_site_type_symbol
_atom_site_description
_atom_site_fract_x
_atom_site_fract_y
_atom_site_fract_z
_atom_type_partial_charge
O1    O     O_R   0.419950 0.645670 0.495380 -0.589952
O2    O     O_R   0.580050 0.354330 0.504620 -0.589905
O3    O     O_R   0.611110 0.658410 0.506370 -0.561201
O4    O     O_R   0.388890 0.341590 0.493630 -0.561963
C1    C     C_R   0.522815 0.700877 0.497711 0.832605
C2    C     C_R   0.477166 0.299139 0.502348 0.832861
O5    O     O_R   0.350820 0.490050 0.621260 -0.575550
O6    O     O_R   0.649180 0.509950 0.378740 -0.574804
O7    O     O_R   0.541970 0.502800 0.632250 -0.593628
O8    O     O_R   0.458030 0.497200 0.367750 -0.593880
C3    C     C_R   0.426721 0.494110 0.668381 0.808871
C4    C     C_R   0.572991 0.503507 0.331604 0.812739
Cu1   Cu    Cu3+1 0.386820 0.492450 0.493500 0.973303
Cu2   Cu    Cu3+1 0.613180 0.507550 0.506500 0.973379
C5    C     C_R   0.382272 0.483361 0.764721 -0.075330
C6    C     C_R   0.615019 0.496208 0.235201 -0.072426
C7    C     C_R   0.219614 0.459791 0.899226 -0.085595
C8    C     C_R   0.770506 0.476416 0.101159 -0.088206
C9    C     C_R   0.258981 0.472635 0.808143 -0.157693
C10   C     C_R   0.735538 0.490182 0.192005 -0.162953
C11   C     C_R   0.465495 0.481221 0.813363 -0.204002
C12   C     C_R   0.530517 0.489774 0.186478 -0.206369
C13   C     C_R   0.428011 0.463321 0.904788 0.074139
C14   C     C_R   0.561688 0.470440 0.095514 0.072823
C15   C     C_R   0.302457 0.453768 0.948546 0.010180
C16   C     C_R   0.684670 0.464942 0.052013 0.011896
C17   C     C_R   0.513043 0.458718 0.953729 0.008011
C18   C     C_R   0.474044 0.459708 0.046793 0.010036
C19   C     C_R   0.348370 0.446684 0.088412 -0.251931
C20   C     C_R   0.635042 0.450034 0.912429 -0.253115
C21   C     C_R   0.262991 0.441055 0.040662 0.327179
C22   C     C_R   0.719446 0.450302 0.960303 0.325356
H1    H     H_    0.440728 0.502573 0.220911 0.157804
H2    H     H_    0.560155 0.496854 0.778605 0.154918
H3    H     H_    0.802830 0.496092 0.228318 0.189275
H4    H     H_    0.192998 0.475337 0.771925 0.193629
H5    H     H_    0.124088 0.456265 0.930450 0.221671
H6    H     H_    0.865366 0.475643 0.070024 0.213574
H7    H     H_    0.312756 0.434035 0.158428 0.172319
H8    H     H_    0.666177 0.436145 0.842787 0.180738
C23   C     C_R   0.461921 0.185637 0.508189 -0.102241
C24   C     C_R   0.538047 0.814411 0.491981 -0.101290
C25   C     C_R   0.658123 0.984310 0.443774 -0.194040
C26   C     C_R   0.341858 0.015789 0.556557 -0.198011
C27   C     C_R   0.650170 0.876285 0.449410 0.149932
C28   C     C_R   0.349882 0.123842 0.551011 0.150073
C29   C     C_R   0.435955 0.861416 0.527309 -0.264930
C30   C     C_R   0.563961 0.138614 0.472778 -0.260877
C31   C     C_R   0.444018 0.969106 0.521070 0.131255
C32   C     C_R   0.555908 0.030947 0.479108 0.130354
H9    H     H_    0.649995 0.186088 0.440038 0.157250
H10   H     H_    0.349894 0.813920 0.559957 0.154422
H11   H     H_    0.743906 0.031668 0.410713 0.165521
H12   H     H_    0.256114 0.968468 0.589743 0.162321
N1    N     N_R   0.216750 0.481110 0.483710 -0.184444
N2    N     N_R   0.783250 0.518890 0.516290 -0.184945
C33   C     C_R   0.939848 0.595057 0.583724 -0.280625
C34   C     C_R   0.060201 0.404993 0.416192 -0.277064
C35   C     C_R   0.821598 0.586130 0.575442 0.122551
C36   C     C_R   0.178453 0.413934 0.424487 0.120248
C37   C     C_R   0.859988 0.459122 0.463545 0.061920
C38   C     C_R   0.139999 0.540858 0.536449 0.062721
C39   C     C_R   0.979875 0.465539 0.469473 0.058040
C40   C     C_R   0.020132 0.534450 0.530493 0.061794
H13   H     H_    0.172192 0.593525 0.583103 0.117667
H14   H     H_    0.827781 0.406453 0.416896 0.121942
H15   H     H_    0.239881 0.366988 0.383258 0.132853
H16   H     H_    0.760215 0.633154 0.616609 0.132648
H17   H     H_    0.968132 0.648866 0.631285 0.154088
H18   H     H_    0.031970 0.351253 0.368564 0.165743
N3    N     N_R   0.136521 0.421806 0.087280 0.103532
O9    O     O_R   0.098545 0.467057 0.162423 -0.382481
O10   O     O_R   0.063775 0.345742 0.063160 -0.330879
N4    N     N_R   0.839779 0.434326 0.914343 0.106687
O11   O     O_R   0.893872 0.479239 0.838300 -0.380292
O12   O     O_R   0.885776 0.360728 0.940060 -0.329654
I1    I     I_    0.190927 0.185753 0.615996 -0.294303
I2    I     I_    0.809574 0.814667 0.385107 -0.316289

loop_
_geom_bond_atom_site_label_1
_geom_bond_atom_site_label_2
_geom_bond_distance
_ccdc_geom_bond_type
C26   C31   1.398034 A    
C15   C21   1.408029 A    
Cu2   N2    2.010333 S    
C1    C24   1.455445 S    
C16   C22   1.407616 A    
C8    C16   1.411532 A    
C29   C31   1.388927 A    
O5    C3    1.297237 A    
N4    O12   1.301146 A    
O1    C1    1.294396 A    
C18   C19   1.414433 A    
C14   C16   1.422134 A    
C9    H4    1.083249 S    
C22   N4    1.437521 S    
C33   C35   1.404689 A    
C34   C36   1.404768 A    
N1    C38   1.368570 A    
O4    Cu1   1.960607 S    
C37   C39   1.414121 A    
C38   C40   1.414053 A    
C10   H3    1.083245 S    
C3    C5    1.471010 S    
C37   H14   1.082743 S    
C25   H11   1.084287 S    
C30   H9    1.085702 S    
C4    C6    1.470794 S    
C36   H15   1.081716 S    
C2    C23   1.455134 S    
C6    C12   1.397554 A    
C23   C28   1.414431 A    
C27   I2    2.129478 S    
C13   C17   1.424767 A    
C6    C10   1.397220 A    
C21   N3    1.438227 S    
Cu1   Cu2   2.675545 S    
C17   C20   1.414351 A    
O2    C2    1.294253 A    
C26   C28   1.392689 A    
N4    O11   1.301482 A    
O4    C2    1.289185 A    
N3    O10   1.301253 A    
C34   H18   1.083324 S    
C11   H2    1.076355 S    
C24   C27   1.414565 A    
C5    C9    1.397087 A    
O7    Cu2   1.930368 S    
C35   H16   1.081661 S    
O7    C3    1.294024 A    
O5    Cu1   1.946074 S    
O6    C4    1.297442 A    
C19   H7    1.077938 S    
C20   H8    1.077901 S    
C7    H5    1.080557 S    
C25   C27   1.392562 A    
O3    Cu2   1.960608 S    
O8    C4    1.293712 A    
C11   C13   1.406051 A    
C12   C14   1.405566 A    
O1    Cu1   1.957572 S    
C33   C40   1.403337 A    
C34   C39   1.403425 A    
C12   H1    1.076535 S    
O6    Cu2   1.946076 S    
C38   H13   1.082709 S    
C14   C18   1.424830 A    
O3    C1    1.289173 A    
O8    Cu1   1.930368 S    
C28   I1    2.129627 S    
C25   C32   1.397864 A    
C29   H10   1.085679 S    
N2    C35   1.364133 A    
C7    C15   1.411057 A    
C8    H6    1.081305 S    
N3    O9    1.301526 A    
C19   C21   1.395824 A    
C20   C22   1.395780 A    
C30   C32   1.388778 A    
C7    C9    1.392717 A    
C23   C30   1.399214 A    
C8    C10   1.393217 A    
C24   C29   1.399385 A    
C13   C15   1.422369 A    
O2    Cu2   1.957571 S    
C39   C40   1.407286 A    
C26   H12   1.084271 S    
C5    C11   1.397789 A    
C31   C32   1.410171 A    
C17   C18   1.414964 A    
N2    C37   1.368686 A    
C33   H17   1.083273 S    
N1    C36   1.364267 A    
Cu1   N1    2.010334 S    
