data_mof_unit_8931.cif
_audit_creation_date              2012-12-10T17:50:39-0500
_audit_creation_method            fapswitch 2.2
_symmetry_space_group_name_H-M    P1
_symmetry_Int_Tables_number       1
_space_group_crystal_system       triclinic
_cell_length_a                    15.701021
_cell_length_b                    10.66986
_cell_length_c                    9.987668
_cell_angle_alpha                 90.490916
_cell_angle_beta                  90.841124
_cell_angle_gamma                 92.133888
_cell_volume                      1671.80098198

loop_
_atom_site_label
_atom_site_type_symbol
_atom_type_description
_atom_site_fract_x
_atom_site_fract_y
_atom_site_fract_z
_atom_type_partial_charge
C1    C     C_R   0.500990 0.260564 0.499428 0.852396
C2    C     C_R   0.709489 0.082163 0.689838 -0.139850
C3    C     C_R   0.710092 0.951936 0.692807 -0.144730
C4    C     C_R   0.338116 0.500308 0.498815 0.874306
C5    C     C_R   0.644009 0.880673 0.631707 -0.175321
C6    C     C_R   0.575234 0.939522 0.567966 0.094469
C7    C     C_R   0.573995 0.070945 0.565520 0.061300
C8    C     C_R   0.505383 0.127553 0.498287 -0.139097
C9    C     C_R   0.441215 0.055596 0.429380 0.154996
C10   C     C_R   0.443711 0.927464 0.433569 -0.235612
C11   C     C_R   0.508555 0.870895 0.502400 -0.138034
C12   C     C_3   0.082270 0.496347 0.490358 0.214648
C13   C     C_R   0.357433 0.398146 0.129977 -0.279385
C14   C     C_R   0.279780 0.392496 0.058429 0.022709
C15   C     C_R   0.283298 0.401627 0.918248 0.478116
C16   C     C_R   0.504334 0.738815 0.500817 0.870961
C17   C     C_R   0.362369 0.383144 0.858584 0.164812
C18   C     C_R   0.432560 0.443740 0.925714 -0.008429
C19   C     C_R   0.431655 0.446402 0.069029 0.098477
C20   C     C_R   0.565624 0.551939 0.073296 -0.093352
C21   C     C_R   0.565308 0.552739 0.930653 -0.101305
C22   C     C_R   0.661816 0.500128 0.500803 0.875376
C23   C     C_3   0.972180 0.596447 0.427455 -0.152349
C24   C     C_3   0.974489 0.500554 0.621243 -0.179102
C25   C     C_3   0.026932 0.395477 0.559114 -0.142664
C26   C     C_1   0.248917 0.498571 0.495091 -0.181194
C27   C     C_1   0.750786 0.498235 0.501869 -0.192628
C28   C     C_3   0.031480 0.601423 0.552401 -0.192304
C29   C     C_3   0.195871 0.385611 0.131358 -0.355536
C30   C     C_3   0.180061 0.261617 0.202949 -0.890335
C31   C     C_3   0.187803 0.530340 0.829963 -0.361666
C32   C     C_3   0.374108 0.246977 0.819172 -0.369283
C33   C     C_3   0.319848 0.203385 0.698055 -0.783509
C34   C     C_3   0.916962 0.495597 0.496289 0.220677
C35   C     C_3   0.368951 0.109269 0.349603 -0.410776
C36   C     C_3   0.386363 0.098366 0.199789 -0.842670
C37   C     C_3   0.024683 0.491442 0.365212 -0.176333
C38   C     C_3   0.967548 0.390503 0.434025 -0.176448
C39   C     C_1   0.173404 0.497232 0.491497 -0.069971
C40   C     C_1   0.826106 0.496595 0.500124 -0.089232
C41   C     C_R   0.642645 0.141591 0.626211 -0.167709
H1    H     H_    0.051616 0.313398 0.612900 0.150524
H2    H     H_    0.045920 0.488520 0.259902 0.127627
H3    H     H_    0.947630 0.678680 0.373807 0.128275
H4    H     H_    0.059686 0.687838 0.600508 0.124978
H5    H     H_    0.646512 0.242772 0.623336 0.153631
H6    H     H_    0.761459 0.137421 0.735727 0.134872
H7    H     H_    0.185113 0.181723 0.131925 0.265705
H8    H     H_    0.225667 0.253003 0.287509 0.256906
H9    H     H_    0.114848 0.258497 0.244643 0.248451
H10   H     H_    0.195493 0.463880 0.205204 0.203121
H11   H     H_    0.141230 0.397881 0.061628 0.233852
H12   H     H_    0.762439 0.905955 0.741163 0.131288
H13   H     H_    0.234658 0.584160 0.768417 0.188256
H14   H     H_    0.182015 0.577120 0.929378 0.141818
H15   H     H_    0.124627 0.533365 0.780287 0.200965
H16   H     H_    0.251071 0.201796 0.722101 0.274044
H17   H     H_    0.331201 0.264978 0.611347 0.250515
H18   H     H_    0.336513 0.106592 0.669762 0.222603
H19   H     H_    0.441957 0.227564 0.803618 0.228389
H20   H     H_    0.355989 0.185984 0.904675 0.171496
H21   H     H_    0.444375 0.155315 0.173967 0.273824
H22   H     H_    0.395428 0.999181 0.170402 0.256670
H23   H     H_    0.648116 0.779743 0.633308 0.139344
H24   H     H_    0.331597 0.132049 0.141192 0.245407
H25   H     H_    0.308367 0.056810 0.372066 0.195427
H26   H     H_    0.358367 0.207592 0.378007 0.187322
H27   H     H_    0.393856 0.870611 0.383220 0.157731
H28   H     H_    0.619179 0.595172 0.127811 0.140797
H29   H     H_    0.358654 0.362560 0.228559 0.237259
H30   H     H_    0.618566 0.596692 0.879261 0.136119
H31   H     H_    0.951908 0.504250 0.725980 0.130136
H32   H     H_    0.939294 0.304200 0.385783 0.132931
N1    N     N_R   0.499210 0.498800 0.142780 -0.093077
N2    N     N_R   0.499180 0.498720 0.857170 -0.100740
O1    O     O_R   0.500000 0.316780 0.614690 -0.624924
O2    O     O_R   0.499990 0.316750 0.385360 -0.612153
O3    O     O_R   0.376780 0.500000 0.614650 -0.597419
O4    O     O_R   0.376770 0.499980 0.385310 -0.636778
O5    O     O_R   0.500010 0.683250 0.614640 -0.617887
O6    O     O_R   0.500000 0.683220 0.385310 -0.607958
O7    O     O_R   0.623230 0.500020 0.614690 -0.632683
O8    O     O_R   0.623220 0.500000 0.385350 -0.611960
O9    O     O_3   0.210073 0.403896 0.840708 -0.608481
Zn1   Zn    Zn3+2 0.500010 0.500020 0.653130 0.938945
Zn2   Zn    Zn3+2 0.499990 0.499980 0.346870 0.940413

loop_
_geom_bond_atom_site_label_1
_geom_bond_atom_site_label_2
_ccdc_geom_bond_type
C18   N2    A    
C1    C8    S    
C1    O2    A    
C35   C36   S    
C7    C8    A    
C33   H17   S    
C12   C28   S    
C34   C40   S    
C22   O7    A    
C30   H7    S    
C37   C38   S    
C32   H20   S    
C5    C6    A    
C26   C39   T    
C13   H29   S    
C2    C41   A    
C18   C19   A    
C12   C37   S    
N2    Zn1   S    
C8    C9    A    
C41   H5    S    
C31   H15   S    
C29   C30   S    
C9    C10   A    
O6    Zn2   S    
C30   H9    S    
C33   H18   S    
C13   C14   A    
C36   H21   S    
C28   H4    S    
C13   C19   A    
C24   C25   S    
C4    O4    A    
C6    C11   A    
C36   H24   S    
C35   H25   S    
C23   C37   S    
C24   C34   S    
C23   H3    S    
C5    H23   S    
C16   O5    A    
C37   H2    S    
C4    O3    A    
O5    Zn1   S    
C25   C38   S    
C11   C16   S    
C35   H26   S    
C27   C40   T    
C23   C34   S    
C17   C18   A    
C20   N1    A    
C23   C28   S    
N1    Zn2   S    
C15   O9    S    
O3    Zn1   S    
C30   H8    S    
C21   H30   S    
O2    Zn2   S    
C22   C27   S    
C20   H28   S    
C32   H19   S    
C14   C29   S    
C36   H22   S    
C24   H31   S    
C29   H10   S    
C15   C17   A    
C33   H16   S    
C34   C38   S    
C1    O1    A    
C19   N1    A    
C24   C28   S    
C3    C5    A    
C25   H1    S    
C4    C26   S    
C6    C7    A    
C10   H27   S    
C2    H6    S    
O7    Zn1   S    
C21   N2    A    
C12   C25   S    
C32   C33   S    
C12   C39   S    
C2    C3    A    
C22   O8    A    
C3    H12   S    
C16   O6    A    
C7    C41   A    
C31   H13   S    
C10   C11   A    
C31   O9    S    
O8    Zn2   S    
C20   C21   A    
C9    C35   S    
C17   C32   S    
C14   C15   A    
C31   H14   S    
O1    Zn1   S    
C38   H32   S    
O4    Zn2   S    
C29   H11   S    
