data_mof_unit_46144.cif
_audit_creation_date              2012-12-10T17:07:45-0500
_audit_creation_method            fapswitch 2.2
_symmetry_space_group_name_H-M    P1
_symmetry_Int_Tables_number       1
_space_group_crystal_system       triclinic
_cell_length_a                    19.242167
_cell_length_b                    11.043905
_cell_length_c                    10.031889
_cell_angle_alpha                 112.065964
_cell_angle_beta                  98.487091
_cell_angle_gamma                 92.861706
_cell_volume                      1941.11825678

loop_
_atom_site_label
_atom_site_type_symbol
_atom_type_description
_atom_site_fract_x
_atom_site_fract_y
_atom_site_fract_z
_atom_type_partial_charge
C1    C     C_R   0.492919 0.254221 0.439299 0.786927
C2    C     C_R   0.504145 0.746403 0.560317 0.702813
C3    C     C_2   0.476322 0.113936 0.404003 0.227243
C4    C     C_2   0.509576 0.888683 0.591989 0.073961
C5    C     C_2   0.513668 0.058283 0.485738 0.351172
C6    C     C_2   0.486652 0.928164 0.481591 0.283378
C7    C     C_2   0.510247 0.500931 0.076183 0.186378
C8    C     C_2   0.492331 0.489593 0.918587 0.178365
C9    C     C_R   0.367994 0.499565 0.500202 0.771072
C10   C     C_R   0.631939 0.500186 0.499795 0.889234
C11   C     C_R   0.265074 0.607236 0.596752 0.312735
C12   C     C_R   0.730747 0.380520 0.409378 0.331319
C13   C     C_R   0.192356 0.602737 0.599627 -0.110715
C14   C     C_R   0.803967 0.373331 0.409603 -0.174761
C15   C     C_R   0.146019 0.491087 0.502072 -0.184173
C16   C     C_R   0.852800 0.482730 0.503910 -0.144031
C17   C     C_R   0.172282 0.382858 0.403736 0.411073
C18   C     C_R   0.829417 0.598299 0.596330 0.407558
C19   C     C_R   0.245630 0.383841 0.405159 0.269165
C20   C     C_R   0.756450 0.607197 0.592312 0.224900
C21   C     C_R   0.291929 0.497136 0.500369 -0.270710
C22   C     C_R   0.707652 0.497401 0.498999 -0.197597
C23   C     C_R   0.929026 0.480407 0.503047 0.493115
C24   C     C_R   0.069541 0.485374 0.502468 0.486943
Cu1   Cu    Cu3+1 0.512140 0.521810 0.644910 0.995162
Cu2   Cu    Cu3+1 0.487860 0.478190 0.355090 0.999528
N1    N     N_R   0.022795 0.449808 0.375331 -0.175473
N2    N     N_R   0.975720 0.515305 0.630136 -0.180595
N3    N     N_R   0.953684 0.447528 0.375622 -0.235307
N4    N     N_R   0.044836 0.517479 0.629822 -0.242570
N5    N     N_2   0.469620 0.445420 0.137370 -0.051813
N6    N     N_2   0.530380 0.554580 0.862630 -0.050705
O1    O     O_R   0.506480 0.332340 0.577400 -0.565385
O2    O     O_R   0.493520 0.667660 0.422600 -0.578289
O3    O     O_R   0.485980 0.295500 0.332650 -0.579231
O4    O     O_R   0.514020 0.704500 0.667350 -0.580917
O5    O     O_R   0.410390 0.518410 0.622410 -0.587827
O6    O     O_R   0.589610 0.481590 0.377590 -0.562337
O7    O     O_R   0.389900 0.481570 0.377660 -0.565194
O8    O     O_R   0.610100 0.518430 0.622340 -0.567209
O9    O     O_3   0.307631 0.722406 0.687102 -0.712873
H1    H     H_    0.352620 0.727099 0.651809 0.326331
O10   O     O_3   0.679984 0.275123 0.326242 -0.713219
H2    H     H_    0.702116 0.192571 0.292629 0.337949
C25   C     C_R   0.165190 0.719964 0.700048 0.200802
C26   C     C_R   0.119518 0.791778 0.644074 -0.136133
C27   C     C_R   0.094133 0.902081 0.739087 -0.107186
C28   C     C_R   0.114436 0.941859 0.890298 -0.092723
C29   C     C_R   0.160187 0.871409 0.946776 -0.125197
C30   C     C_R   0.185555 0.760820 0.852165 -0.044578
H3    H     H_    0.103673 0.762282 0.527112 0.131409
H4    H     H_    0.058801 0.956844 0.695477 0.140503
H5    H     H_    0.094779 0.027322 0.963680 0.148666
H6    H     H_    0.175946 0.902450 0.063892 0.152829
H7    H     H_    0.220776 0.706686 0.897178 0.143661
C31   C     C_R   0.829560 0.251472 0.313976 0.125085
C32   C     C_R   0.813499 0.209730 0.161096 -0.118678
C33   C     C_R   0.837571 0.094916 0.071447 -0.110736
C34   C     C_R   0.877784 0.021173 0.133646 -0.085676
C35   C     C_R   0.893912 0.062008 0.285628 -0.115321
C36   C     C_R   0.869875 0.176656 0.375684 -0.128821
H8    H     H_    0.782328 0.265844 0.111571 0.135224
H9    H     H_    0.825021 0.063049 0.953732 0.147976
H10   H     H_    0.896368 0.932339 0.064077 0.145210
H11   H     H_    0.924967 0.004726 0.333677 0.136553
H12   H     H_    0.882517 0.207111 0.493290 0.134915
O11   O     O_3   0.124828 0.274751 0.312579 -0.713440
H13   H     H_    0.149428 0.207577 0.245765 0.364749
O12   O     O_3   0.879555 0.703124 0.684449 -0.718259
H14   H     H_    0.856610 0.776645 0.746500 0.364657
O13   O     O_3   0.270040 0.271749 0.314752 -0.739386
H15   H     H_    0.320004 0.269264 0.353555 0.318447
O14   O     O_3   0.735033 0.724774 0.678510 -0.746390
H16   H     H_    0.684680 0.728711 0.643736 0.316957
O15   O     O_3   0.437505 0.847925 0.360574 -0.664924
H17   H     H_    0.402131 0.802984 0.394408 0.327224
O16   O     O_3   0.577573 0.124718 0.572230 -0.730727
H18   H     H_    0.608507 0.058851 0.583452 0.344819
O17   O     O_3   0.542574 0.980229 0.727227 -0.741825
H19   H     H_    0.559112 0.933698 0.791158 0.355256
O18   O     O_3   0.418489 0.043697 0.297832 -0.681648
H20   H     H_    0.396586 0.102238 0.253489 0.328787
C37   C     C_R   0.432148 0.391748 0.822162 0.150475
C38   C     C_R   0.439938 0.256888 0.769807 -0.099394
C39   C     C_R   0.381162 0.163328 0.695419 -0.111391
C40   C     C_R   0.313972 0.203298 0.676156 -0.095405
C41   C     C_R   0.305063 0.336689 0.734656 -0.153735
C42   C     C_R   0.363574 0.430398 0.809926 -0.009559
H21   H     H_    0.491404 0.224711 0.788208 0.191058
H22   H     H_    0.387427 0.059663 0.654499 0.155987
H23   H     H_    0.268609 0.130724 0.618582 0.152668
H24   H     H_    0.252744 0.367476 0.723143 0.136876
H25   H     H_    0.355666 0.533214 0.858984 0.152239
C43   C     C_R   0.582710 0.560667 0.154918 0.159978
C44   C     C_R   0.640115 0.487797 0.120966 -0.076108
C45   C     C_R   0.709398 0.546448 0.184879 -0.122049
C46   C     C_R   0.721923 0.677883 0.282637 -0.105929
C47   C     C_R   0.665281 0.751710 0.314699 -0.173550
C48   C     C_R   0.596050 0.694044 0.249343 -0.034617
H26   H     H_    0.631117 0.386078 0.044636 0.133988
H27   H     H_    0.753442 0.490112 0.158885 0.132974
H28   H     H_    0.775558 0.722780 0.332545 0.146462
H29   H     H_    0.675074 0.854317 0.387920 0.139920
H30   H     H_    0.553264 0.754483 0.267201 0.179310
O19   O     O_3   0.573688 0.661902 0.953447 -0.646211
H31   H     H_    0.594828 0.696531 0.888970 0.378228
O20   O     O_3   0.404628 0.388768 0.065308 -0.645473
H32   H     H_    0.385989 0.346284 0.125622 0.385792

loop_
_geom_bond_atom_site_label_1
_geom_bond_atom_site_label_2
_ccdc_geom_bond_type
C14   C31   S    
C41   C42   A    
N1    N3    A    
C8    C37   S    
O14   H16   S    
C19   O13   S    
C44   C45   A    
C24   N1    A    
O10   H2    S    
C46   C47   A    
C1    O1    A    
C7    C8    S    
O16   H18   S    
C10   C22   S    
C34   H10   S    
C23   N3    A    
C19   C21   A    
C12   O10   S    
C40   H23   S    
Cu1   O8    S    
C5    C6    S    
Cu2   O7    S    
C47   H29   S    
C12   C22   A    
C9    O7    A    
C31   C32   A    
C10   O8    A    
O9    H1    S    
Cu1   O5    S    
C26   C27   A    
C36   H12   S    
Cu2   O2    S    
C27   C28   A    
C3    O18   S    
O20   H32   S    
C11   O9    S    
C46   H28   S    
C2    O2    A    
Cu1   N6    S    
C37   C42   A    
Cu2   N5    S    
C45   H27   S    
O12   H14   S    
O18   H20   S    
C28   H5    S    
C17   O11   S    
C7    N5    D    
O11   H13   S    
C8    N6    D    
C32   H8    S    
C38   C39   A    
C4    O17   S    
C4    C6    D    
C44   H26   S    
Cu2   O6    S    
Cu1   Cu2   S    
C39   C40   A    
C26   H3    S    
C11   C21   A    
C35   C36   A    
C1    C3    S    
C2    C4    S    
O15   H17   S    
C37   C38   A    
C45   C46   A    
C9    O5    A    
C23   N2    A    
C28   C29   A    
C12   C14   A    
C35   H11   S    
C47   C48   A    
C16   C23   S    
N6    O19   S    
C13   C15   A    
C14   C16   A    
C38   H21   S    
C5    O16   S    
C1    O3    A    
C2    O4    A    
C33   H9    S    
C15   C17   A    
C7    C43   S    
C42   H25   S    
C15   C24   S    
C40   C41   A    
N5    O20   S    
C20   C22   A    
C3    C5    D    
C39   H22   S    
C27   H4    S    
O19   H31   S    
C30   H7    S    
C10   O6    A    
C43   C48   A    
N2    N4    A    
C33   C34   A    
O13   H15   S    
C13   C25   S    
C11   C13   A    
C9    C21   S    
C32   C33   A    
C25   C30   A    
C18   O12   S    
C17   C19   A    
C20   O14   S    
C48   H30   S    
C18   C20   A    
C43   C44   A    
C24   N4    A    
Cu1   O4    S    
O17   H19   S    
C25   C26   A    
Cu2   O3    S    
C34   C35   A    
C16   C18   A    
C29   C30   A    
C31   C36   A    
C41   H24   S    
C29   H6    S    
Cu1   O1    S    
C6    O15   S    
