data_mof_unit_20598.cif
_audit_creation_date              2012-12-10T17:01:35-0500
_audit_creation_method            fapswitch 2.2
_symmetry_space_group_name_H-M    P1
_symmetry_Int_Tables_number       1
_space_group_crystal_system       triclinic
_cell_length_a                    12.86604
_cell_length_b                    10.59856
_cell_length_c                    9.999995
_cell_angle_alpha                 89.512719
_cell_angle_beta                  97.545875
_cell_angle_gamma                 89.930428
_cell_volume                      1351.7528109

loop_
_atom_site_label
_atom_site_type_symbol
_atom_type_description
_atom_site_fract_x
_atom_site_fract_y
_atom_site_fract_z
_atom_type_partial_charge
C1    C     C_R   0.515394 0.263186 0.502737 0.907832
C2    C     C_2   0.560878 0.136351 0.512440 -0.097609
C3    C     C_2   0.580522 0.533097 0.938160 -0.137077
C4    C     C_R   0.298014 0.501240 0.473035 0.905502
C5    C     C_2   0.577630 0.542100 0.087630 -0.137722
C6    C     C_R   0.499419 0.738370 0.499115 0.947270
C7    C     C_R   0.701653 0.495617 0.526949 0.878869
C8    C     C_R   0.813924 0.489160 0.544863 -0.106040
C9    C     C_R   0.185491 0.500539 0.455617 -0.106228
C10   C     C_R   0.020858 0.451500 0.322576 0.222072
C11   C     C_R   0.128979 0.465139 0.333580 -0.217006
C12   C     C_R   0.027932 0.519899 0.559069 0.063742
C13   C     C_R   0.135198 0.533807 0.564493 -0.282686
C14   C     C_3   0.813013 0.330092 0.358569 -0.882887
C15   C     C_3   0.610986 0.091826 0.652959 -0.449918
C16   C     C_3   0.707362 0.171422 0.705407 -0.336919
C17   C     C_3   0.759074 0.123603 0.842655 -0.882431
C18   C     C_3   0.962707 0.434581 0.182360 -0.945410
C19   C     C_3   0.032676 0.608845 0.800896 -0.427432
C20   C     C_3   0.057462 0.749288 0.784697 -0.339438
C21   C     C_3   0.116290 0.802038 0.914608 -0.877314
C22   C     C_3   0.548883 0.113097 0.256722 -0.851843
C23   C     C_R   0.970587 0.467861 0.440105 0.106954
C24   C     C_R   0.865397 0.435953 0.443785 0.128663
C25   C     C_R   0.868907 0.544952 0.658098 -0.298266
C26   C     C_R   0.976908 0.554928 0.670544 0.116585
C27   C     C_2   0.565522 0.927704 0.414706 -0.172760
C28   C     C_2   0.504145 0.872278 0.495608 -0.392857
C29   C     C_2   0.563606 0.064098 0.400748 0.190189
H1    H     H_    0.653317 0.557543 0.900647 0.156682
H2    H     H_    0.870868 0.255756 0.342818 0.236619
H3    H     H_    0.753342 0.281774 0.411275 0.223073
H4    H     H_    0.773365 0.366596 0.260693 0.256459
H5    H     H_    0.702724 0.127758 0.917725 0.264022
H6    H     H_    0.786673 0.024881 0.835030 0.258582
H7    H     H_    0.827607 0.183789 0.878194 0.251708
H8    H     H_    0.765571 0.167362 0.632662 0.218848
H9    H     H_    0.684830 0.271235 0.716608 0.254865
H10   H     H_    0.551769 0.096860 0.724335 0.215037
H11   H     H_    0.638981 0.992872 0.653497 0.230328
H12   H     H_    0.430273 0.486377 0.886291 0.163856
H13   H     H_    0.011574 0.464188 0.103915 0.230717
H14   H     H_    0.942251 0.334191 0.163530 0.248412
H15   H     H_    0.891630 0.495187 0.167669 0.243982
H16   H     H_    0.068515 0.791467 0.998832 0.262928
H17   H     H_    0.192130 0.751780 0.941062 0.262239
H18   H     H_    0.132403 0.903851 0.900473 0.250224
H19   H     H_    0.105887 0.763834 0.701790 0.223389
H20   H     H_    0.983036 0.802809 0.758838 0.223475
H21   H     H_    0.982221 0.599091 0.882654 0.198108
H22   H     H_    0.104497 0.553516 0.836486 0.192989
H23   H     H_    0.645108 0.583151 0.148095 0.162223
H24   H     H_    0.563186 0.037780 0.184632 0.220055
H25   H     H_    0.467151 0.146487 0.227691 0.250787
H26   H     H_    0.605701 0.189729 0.244451 0.247867
H27   H     H_    0.440575 0.454691 0.092403 0.159603
H28   H     H_    0.827200 0.582096 0.736724 0.165366
H29   H     H_    0.169275 0.447018 0.246995 0.163886
H30   H     H_    0.181540 0.568964 0.654262 0.175420
H31   H     H_    0.608522 0.872516 0.348793 0.168233
H32   H     H_    0.458594 0.925403 0.560091 0.150218
N1    N     N_2   0.501130 0.501330 0.852280 -0.190388
N2    N     N_2   0.501160 0.501360 0.147950 -0.191840
O1    O     O_R   0.499980 0.319060 0.613040 -0.612464
O2    O     O_R   0.500020 0.319100 0.386900 -0.613704
O3    O     O_R   0.346340 0.499960 0.594380 -0.621488
O4    O     O_R   0.346380 0.500000 0.368250 -0.620865
O5    O     O_R   0.499980 0.680900 0.613100 -0.607792
O6    O     O_R   0.500020 0.680940 0.386960 -0.599039
O7    O     O_R   0.653620 0.500000 0.631750 -0.643220
O8    O     O_R   0.653660 0.500040 0.405620 -0.610325
Zn1   Zn    Zn3+2 0.499980 0.499970 0.650990 0.926903
Zn2   Zn    Zn3+2 0.500020 0.500030 0.349010 0.928186

loop_
_geom_bond_atom_site_label_1
_geom_bond_atom_site_label_2
_ccdc_geom_bond_type
C4    O4    A    
C1    O2    A    
C23   C24   A    
C5    H23   S    
O6    Zn2   S    
C22   H26   S    
C13   H30   S    
C22   C29   S    
C18   H15   S    
C10   C23   A    
C3    H1    S    
C11   H29   S    
C17   H6    S    
C16   H8    S    
C6    O6    A    
C19   C20   S    
C19   H21   S    
C14   H2    S    
O5    Zn1   S    
C28   H32   S    
C3    C5    S    
C7    O7    A    
C6    O5    A    
C4    C9    S    
H27   N2    S    
N1    Zn1   S    
C7    C8    S    
C22   H25   S    
C20   H19   S    
C18   H14   S    
C12   C13   A    
C4    O3    A    
C2    C15   S    
C9    C11   A    
C12   C23   A    
C15   H10   S    
C20   H20   S    
C25   H28   S    
H12   N1    S    
C14   H4    S    
C2    C29   D    
O4    Zn2   S    
C8    C24   A    
C10   C18   S    
C1    C2    S    
C22   H24   S    
C21   H16   S    
C27   H31   S    
O1    Zn1   S    
C17   H7    S    
C7    O8    A    
O3    Zn1   S    
C15   H11   S    
C27   C29   S    
C10   C11   A    
C8    C25   A    
C15   C16   S    
C1    O1    A    
C19   H22   S    
O2    Zn2   S    
C20   C21   S    
C5    N2    D    
C21   H17   S    
C17   H5    S    
C3    N1    D    
C12   C26   A    
C27   C28   D    
O8    Zn2   S    
C19   C26   S    
C9    C13   A    
O7    Zn1   S    
N2    Zn2   S    
C18   H13   S    
C16   H9    S    
C25   C26   A    
C6    C28   S    
C14   C24   S    
C14   H3    S    
C16   C17   S    
C21   H18   S    
