data_mof_unit_44717.cif
_audit_creation_date              2013-03-05T15:52:04-0500
_audit_creation_method            fapswitch 2.2
_symmetry_space_group_name_H-M    P1
_symmetry_Int_Tables_number       1
_space_group_crystal_system       triclinic
_cell_length_a                    19.29008
_cell_length_b                    10.844952
_cell_length_c                    9.741393
_cell_angle_alpha                 91.462833
_cell_angle_beta                  90.773092
_cell_angle_gamma                 96.419247
_cell_volume                      2024.18845516

loop_
_atom_site_label
_atom_site_type_symbol
_atom_site_description
_atom_site_fract_x
_atom_site_fract_y
_atom_site_fract_z
_atom_type_partial_charge
O1    O     O_R   0.499990 0.319640 0.618810 -0.534949
O2    O     O_R   0.500000 0.319660 0.381240 -0.625235
C1    C     C_R   0.499822 0.261452 0.499023 0.803231
O3    O     O_R   0.400140 0.499970 0.618820 -0.546001
O4    O     O_R   0.400150 0.500000 0.381250 -0.576731
C2    C     C_R   0.367650 0.498017 0.498975 0.806437
Cu1   Cu    Cu3+1 0.500000 0.499990 0.640660 1.012067
Cu2   Cu    Cu3+1 0.500000 0.500010 0.359340 1.031245
O5    O     O_R   0.500000 0.680340 0.618760 -0.622553
O6    O     O_R   0.500010 0.680360 0.381190 -0.491860
O7    O     O_R   0.599850 0.500000 0.618750 -0.560681
O8    O     O_R   0.599860 0.500030 0.381180 -0.583889
C3    C     C_R   0.491349 0.734051 0.500928 0.858765
C4    C     C_R   0.630837 0.484083 0.500232 0.860741
C5    C     C_R   0.254975 0.532497 0.607404 -0.135937
H1    H     H_    0.283403 0.577527 0.695043 0.193554
C6    C     C_R   0.181957 0.519563 0.606739 0.133011
C7    C     C_R   0.143991 0.461427 0.492877 -0.063073
C8    C     C_R   0.180608 0.417737 0.379673 0.304089
C9    C     C_R   0.253604 0.434730 0.381543 -0.187927
H2    H     H_    0.281157 0.398970 0.295975 0.210019
C10   C     C_R   0.291061 0.489886 0.495536 -0.095055
N1    N     N_R   0.030703 0.471460 0.375651 -0.162014
N2    N     N_R   0.961293 0.462587 0.375341 -0.200331
C11   C     C_R   0.925589 0.432679 0.491176 0.433987
N3    N     N_R   0.961928 0.411563 0.606908 -0.205011
N4    N     N_R   0.031203 0.419647 0.606970 -0.159305
C12   C     C_R   0.066957 0.450139 0.491539 0.499125
C13   C     C_R   0.815571 0.439883 0.619096 -0.153131
H3    H     H_    0.845118 0.441985 0.714681 0.172426
C14   C     C_R   0.743687 0.447269 0.623738 0.194636
C15   C     C_R   0.704415 0.451412 0.500034 -0.065843
C16   C     C_R   0.736387 0.415096 0.376530 0.116194
C17   C     C_R   0.808678 0.412118 0.373416 -0.086656
H4    H     H_    0.832779 0.390029 0.277354 0.179404
C18   C     C_R   0.849098 0.430008 0.493933 -0.027781
C19   C     C_R   0.532409 0.115176 0.747769 0.103783
C20   C     C_R   0.503843 0.067192 0.871363 0.277149
C21   C     C_R   0.453109 0.962584 0.862870 0.291285
C22   C     C_R   0.449433 0.888058 0.743775 -0.284303
H5    H     H_    0.415411 0.801462 0.738930 0.211221
C23   C     C_R   0.481916 0.933641 0.625058 -0.074635
C24   C     C_R   0.506584 0.059660 0.621793 0.063791
C25   C     C_R   0.495364 0.123783 0.498499 -0.153537
C26   C     C_R   0.462784 0.052381 0.385328 0.082461
C27   C     C_R   0.458703 0.922636 0.384120 0.416174
C28   C     C_R   0.477326 0.864193 0.503005 -0.229694
C29   C     C_R   0.616368 0.625927 0.147831 0.348881
C30   C     C_R   0.679793 0.638290 0.079278 -0.095283
C31   C     C_R   0.678019 0.659379 0.938557 0.254033
C32   C     C_R   0.613350 0.639809 0.868956 0.152984
C33   C     C_R   0.555330 0.566386 0.929504 0.004845
C34   C     C_R   0.555657 0.564769 0.077964 0.022458
N5    N     N_R   0.500660 0.501210 0.147910 -0.203966
C35   C     C_R   0.447099 0.438418 0.069491 0.255461
C36   C     C_R   0.447055 0.439434 0.922540 0.438880
N6    N     N_R   0.500680 0.501290 0.852040 -0.253474
N7    N     N_3   0.593610 0.203081 0.748772 -0.560030
H6    H     H_    0.583362 0.284658 0.799847 0.289632
H7    H     H_    0.632614 0.165161 0.803876 0.245493
N8    N     N_R   0.529844 0.115291 0.002968 0.111709
O9    O     O_R   0.545454 0.233815 0.025983 -0.439426
O10   O     O_R   0.543801 0.038799 0.097396 -0.293097
N9    N     N_R   0.400226 0.940930 0.964257 0.198944
O11   O     O_R   0.377557 0.035737 0.026067 -0.296478
O12   O     O_R   0.361228 0.834853 0.964717 -0.282960
N10   N     N_R   0.420017 0.851385 0.277035 0.178986
O13   O     O_R   0.452082 0.806154 0.174222 -0.252527
O14   O     O_R   0.354037 0.816001 0.293309 -0.305489
N11   N     N_3   0.389241 0.369823 0.134314 -0.513537
H8    H     H_    0.376472 0.285587 0.080568 0.265521
H9    H     H_    0.406321 0.341078 0.227719 0.234933
N12   N     N_R   0.611235 0.721396 0.250290 0.171303
O15   O     O_R   0.587747 0.822687 0.211017 -0.287723
O16   O     O_R   0.652726 0.729770 0.357472 -0.348934
N13   N     N_3   0.743492 0.658369 0.158652 -0.505652
H10   H     H_    0.758357 0.753596 0.171692 0.315172
H11   H     H_    0.782480 0.616991 0.107095 0.247561
N14   N     N_R   0.737589 0.723462 0.871064 0.144670
O17   O     O_R   0.780879 0.805221 0.937392 -0.318505
O18   O     O_R   0.743716 0.712620 0.738548 -0.328651
N15   N     N_3   0.603089 0.740358 0.782834 -0.506727
H12   H     H_    0.614170 0.722440 0.680286 0.299990
H13   H     H_    0.557625 0.779052 0.806894 0.253234
N16   N     N_3   0.146539 0.568155 0.720981 -0.523242
H14   H     H_    0.161591 0.524701 0.809469 0.282511
H15   H     H_    0.163433 0.662945 0.732447 0.250850
N17   N     N_R   0.388963 0.374539 0.848543 0.132115
O19   O     O_R   0.326936 0.407933 0.866507 -0.329823
O20   O     O_R   0.394855 0.266532 0.791819 -0.346284
N18   N     N_R   0.145009 0.350315 0.265539 0.142066
O21   O     O_R   0.169627 0.362817 0.142316 -0.283678
O22   O     O_R   0.095224 0.261966 0.286965 -0.298669
N19   N     N_3   0.710508 0.436181 0.753927 -0.556265
H16   H     H_    0.711826 0.344461 0.782662 0.220277
H17   H     H_    0.742541 0.487633 0.826722 0.231266
N20   N     N_3   0.696595 0.361009 0.260411 -0.545193
H18   H     H_    0.657428 0.294924 0.294679 0.257785
H19   H     H_    0.673807 0.428618 0.208468 0.254637
N21   N     N_3   0.424507 0.106831 0.281147 -0.468720
H20   H     H_    0.458719 0.163639 0.222382 0.296638
H21   H     H_    0.387677 0.156941 0.328135 0.212837

loop_
_geom_bond_atom_site_label_1
_geom_bond_atom_site_label_2
_geom_bond_distance
_ccdc_geom_bond_type
C35   C36   1.431820 A    
N12   O15   1.298615 A    
C8    C9    1.399352 A    
C31   N14   1.449441 S    
N20   H18   1.045866 S    
Cu1   Cu2   2.740454 S    
N16   H14   1.045938 S    
C25   C26   1.427891 A    
Cu1   O7    1.940750 S    
C21   N9    1.434117 S    
C13   C18   1.395149 A    
N3    N4    1.329367 A    
C13   H3    1.083552 S    
C6    N16   1.433195 S    
N13   H11   1.045657 S    
C7    C8    1.417284 A    
C20   C21   1.412952 A    
O7    C4    1.323468 A    
C36   N17   1.430605 S    
N7    H7    1.045429 S    
C5    H1    1.083624 S    
C2    C10   1.470035 S    
C36   N6    1.370850 A    
Cu1   O5    1.972894 S    
C17   H4    1.083704 S    
N8    O10   1.299625 A    
O5    C3    1.317348 A    
C27   C28   1.396126 A    
C5    C10   1.397272 A    
N1    N2    1.331565 A    
N11   H8    1.044566 S    
C16   N20   1.433460 S    
C19   N7    1.431857 S    
C20   N8    1.434295 S    
C22   C23   1.397823 A    
N12   O16   1.302057 A    
N8    O9    1.300022 A    
O3    Cu1   1.935142 S    
N20   H19   1.035320 S    
C16   C17   1.399198 A    
N16   H15   1.045801 S    
C29   C34   1.434020 A    
C1    C25   1.485730 S    
C32   C33   1.441210 A    
C7    C12   1.477180 S    
N2    C11   1.357395 A    
O3    C2    1.316138 A    
Cu2   N5    2.060198 S    
C21   C22   1.393304 A    
N14   O18   1.301412 A    
C31   C32   1.404107 A    
N7    H6    1.043361 S    
C26   C27   1.400197 A    
C26   N21   1.425383 S    
N10   O13   1.298371 A    
O1    C1    1.312139 A    
N9    O12   1.302383 A    
C19   C24   1.412565 A    
C24   C25   1.429080 A    
C19   C20   1.417672 A    
N18   O22   1.301437 A    
C14   C15   1.419097 A    
Cu2   O8    1.935140 S    
C9    H2    1.081320 S    
N21   H21   1.044981 S    
C6    C7    1.415372 A    
C30   N13   1.435641 S    
C11   N3    1.357420 A    
N1    C12   1.358368 A    
N13   H10   1.044515 S    
N19   H17   1.042556 S    
C32   N15   1.422175 S    
C22   H5    1.083506 S    
N17   O20   1.299492 A    
N15   H12   1.042364 S    
N15   H13   1.040653 S    
C23   C24   1.397295 A    
N18   O21   1.301574 A    
C33   C34   1.446702 A    
C3    C28   1.466161 S    
C5    C6    1.399701 A    
N5    C35   1.381880 A    
C29   C30   1.396697 A    
O1    Cu1   1.962004 S    
C29   N12   1.432054 S    
O2    Cu2   1.972894 S    
C9    C10   1.400264 A    
O6    C3    1.311421 A    
O4    Cu2   1.940754 S    
C34   N5    1.394576 A    
C14   N19   1.430024 S    
C15   C16   1.425866 A    
O2    C1    1.323470 A    
O8    C4    1.321587 A    
C27   N10   1.432146 S    
C13   C14   1.399129 A    
N9    O11   1.298823 A    
O4    C2    1.313893 A    
N21   H20   1.039270 S    
C17   C18   1.397741 A    
C23   C28   1.387538 A    
N19   H16   1.043128 S    
C35   N11   1.433579 S    
C8    N18   1.438038 S    
C33   N6    1.401459 A    
C11   C18   1.473185 S    
N14   O17   1.300628 A    
C4    C15   1.500829 S    
N17   O19   1.301036 A    
Cu2   O6    1.962004 S    
C30   C31   1.396102 A    
N4    C12   1.355851 A    
N11   H9    1.031017 S    
N10   O14   1.300628 A    
Cu1   N6    2.058679 S    
