data_mof_unit_10234.cif
_audit_creation_date              2012-12-11T15:27:42-0500
_audit_creation_method            fapswitch 2.2
_symmetry_space_group_name_H-M    P1
_symmetry_Int_Tables_number       1
_space_group_crystal_system       triclinic
_cell_length_a                    23.324364
_cell_length_b                    7.30196
_cell_length_c                    15.131713
_cell_angle_alpha                 90.369715
_cell_angle_beta                  108.452494
_cell_angle_gamma                 89.560873
_cell_volume                      2444.54248036

loop_
_atom_site_label
_atom_site_type_symbol
_atom_type_description
_atom_site_fract_x
_atom_site_fract_y
_atom_site_fract_z
_atom_type_partial_charge
O1    O     O_R   0.711000 0.648610 0.341170 -0.541000
O2    O     O_R   0.289000 0.351390 0.658830 -0.541000
O3    O     O_R   0.789000 0.148610 0.158830 -0.528871
O4    O     O_R   0.211000 0.851390 0.841170 -0.528874
O5    O     O_R   0.829650 0.322030 0.336650 -0.535163
O6    O     O_R   0.170350 0.677970 0.663350 -0.535164
O7    O     O_R   0.670350 0.822030 0.163350 -0.539351
O8    O     O_R   0.329650 0.177970 0.836650 -0.539354
C1    C     C_R   0.854283 0.485544 0.356784 0.742481
C2    C     C_R   0.145716 0.514456 0.643216 0.742479
C3    C     C_R   0.645719 0.986017 0.143214 0.741360
C4    C     C_R   0.354280 0.013983 0.856786 0.741360
O9    O     O_R   0.713950 0.319280 0.352070 -0.530963
O10   O     O_R   0.286050 0.680720 0.647930 -0.530963
O11   O     O_R   0.786050 0.819280 0.147930 -0.543644
O12   O     O_R   0.213950 0.180720 0.852070 -0.543647
O13   O     O_R   0.672470 0.142870 0.174360 -0.531708
O14   O     O_R   0.327530 0.857130 0.825640 -0.531707
O15   O     O_R   0.827530 0.642870 0.325640 -0.535715
O16   O     O_R   0.172470 0.357130 0.674360 -0.535712
C5    C     C_R   0.701930 0.488355 0.375909 0.851706
C6    C     C_R   0.298070 0.511645 0.624091 0.851707
C7    C     C_R   0.798099 0.986657 0.124060 0.851656
C8    C     C_R   0.201901 0.013343 0.875940 0.851667
O17   O     O_3   0.736530 0.478650 0.191680 -0.388805
O18   O     O_3   0.263470 0.521350 0.808320 -0.388807
O19   O     O_3   0.763470 0.978650 0.308320 -0.386189
O20   O     O_3   0.236530 0.021350 0.691680 -0.386188
V1    V     V_3+5 0.752500 0.206170 0.260820 1.569738
V2    V     V_3+5 0.247500 0.793830 0.739180 1.569738
V3    V     V_3+5 0.747500 0.706170 0.239180 1.546645
V4    V     V_3+5 0.252500 0.293830 0.760820 1.546643
C9    C     C_R   0.827805 0.990540 0.052529 -0.254476
C10   C     C_R   0.172193 0.009457 0.947469 -0.254471
C11   C     C_R   0.672136 0.500950 0.447194 -0.253942
C12   C     C_R   0.327864 0.499050 0.552806 -0.253944
C13   C     C_R   0.823379 0.958842 0.891985 -0.213437
C14   C     C_R   0.176618 0.041118 0.108014 -0.213439
C15   C     C_R   0.675702 0.570747 0.604605 -0.213406
C16   C     C_R   0.324298 0.429254 0.395395 -0.213404
C17   C     C_R   0.794556 0.958064 0.959470 0.533800
C18   C     C_R   0.205442 0.041905 0.040530 0.533794
C19   C     C_R   0.704672 0.556066 0.537539 0.534575
C20   C     C_R   0.295328 0.443935 0.462461 0.534576
C21   C     C_R   0.890365 0.016800 0.079013 0.465986
C22   C     C_R   0.109632 0.983214 0.920982 0.465989
C23   C     C_R   0.610052 0.467168 0.422567 0.466617
C24   C     C_R   0.389948 0.532832 0.577433 0.466617
C25   C     C_R   0.921742 0.997745 0.012716 -0.029760
C26   C     C_R   0.078254 0.002253 0.987278 -0.029759
C27   C     C_R   0.578235 0.501114 0.487205 -0.028618
C28   C     C_R   0.421765 0.498886 0.512795 -0.028618
C29   C     C_R   0.886246 0.980071 0.917561 -0.028000
C30   C     C_R   0.113751 0.019907 0.082435 -0.028002
C31   C     C_R   0.613227 0.542163 0.580563 -0.027705
C32   C     C_R   0.386773 0.457838 0.419437 -0.027706
C33   C     C_R   0.986359 0.998639 0.036277 0.082660
C34   C     C_R   0.013637 0.001358 0.963716 0.082657
C35   C     C_R   0.513703 0.493035 0.463888 0.083514
C36   C     C_R   0.486297 0.506965 0.536112 0.083514
C37   C     C_R   0.975289 0.008918 0.870483 -0.104754
C38   C     C_R   0.024707 0.991069 0.129511 -0.104745
C39   C     C_R   0.524525 0.522633 0.629149 -0.104429
C40   C     C_R   0.475475 0.477367 0.370851 -0.104428
C41   C     C_R   0.913305 0.989683 0.848041 -0.135198
C42   C     C_R   0.086690 0.010290 0.151954 -0.135194
C43   C     C_R   0.586148 0.548571 0.650202 -0.135740
C44   C     C_R   0.413851 0.451430 0.349798 -0.135738
H1    H     H_    0.886022 0.987877 0.775188 0.151805
H2    H     H_    0.113973 0.012084 0.224807 0.151802
H3    H     H_    0.613221 0.568389 0.722415 0.153573
H4    H     H_    0.386779 0.431613 0.277585 0.153570
H5    H     H_    0.796538 0.941515 0.819507 0.171924
H6    H     H_    0.203459 0.058426 0.180493 0.171926
H7    H     H_    0.702103 0.605813 0.675471 0.172641
H8    H     H_    0.297897 0.394188 0.324528 0.172642
H9    H     H_    0.991277 0.034010 0.812497 0.209763
H10   H     H_    0.008717 0.965973 0.187495 0.209750
H11   H     H_    0.508782 0.511164 0.688309 0.209508
H12   H     H_    0.491218 0.488837 0.311691 0.209507
C45   C     C_1   0.416778 0.006450 0.918731 -0.123380
C46   C     C_1   0.583222 0.993550 0.081268 -0.123380
C47   C     C_1   0.083217 0.507587 0.581246 -0.122484
C48   C     C_1   0.916783 0.492413 0.418754 -0.122486
C49   C     C_1   0.469146 0.002141 0.969954 0.037726
C50   C     C_1   0.530854 0.997859 0.030046 0.037726
C51   C     C_1   0.030853 0.502704 0.530036 0.039264
C52   C     C_1   0.969147 0.497296 0.469964 0.039262
F1    F     F_    0.081926 0.928672 0.831866 -0.707461
F2    F     F_    0.918072 0.071368 0.168125 -0.707453
F3    F     F_    0.416598 0.608890 0.662461 -0.707581
F4    F     F_    0.583402 0.391111 0.337539 -0.707581
F5    F     F_    0.266083 0.068179 0.066248 -0.683118
F6    F     F_    0.733916 0.931772 0.933755 -0.683118
F7    F     F_    0.235156 0.410363 0.438613 -0.682044
F8    F     F_    0.764844 0.589637 0.561386 -0.682045

loop_
_geom_bond_atom_site_label_1
_geom_bond_atom_site_label_2
_ccdc_geom_bond_type
O17   V3    S    
C47   C51   T    
C51   C52   S    
O1    C5    A    
O19   V1    S    
C18   F5    S    
C9    C21   A    
C23   F4    S    
O3    C7    A    
C10   C18   A    
C11   C23   A    
C25   C33   A    
C33   C38   A    
C22   F1    S    
C39   H11   S    
C49   C50   S    
O7    C3    A    
C35   C40   A    
C26   C30   A    
C36   C39   A    
C40   C44   A    
O9    V1    S    
C14   C18   A    
O16   V4    S    
O4    C8    A    
C25   C29   A    
C2    C47   S    
O1    V3    S    
O13   V1    S    
O2    V4    S    
O3    V1    S    
C28   C36   A    
C1    O15   A    
C15   C31   A    
C37   H9    S    
C7    C9    S    
C24   F3    S    
O2    C6    A    
C10   C22   A    
C15   H7    S    
C11   C19   A    
C16   C20   A    
C43   H3    S    
C44   H4    S    
C13   C29   A    
C34   C37   A    
O11   C7    A    
O15   V3    S    
C35   C36   A    
O12   C8    A    
C40   H12   S    
O10   V2    S    
O5    V1    S    
C3    C46   S    
C39   C43   A    
O7    V3    S    
C38   C42   A    
O8    V4    S    
C2    O16   A    
O18   V4    S    
C23   C27   A    
C16   C32   A    
C32   C44   A    
C8    C10   S    
C16   H8    S    
C26   C34   A    
O5    C1    A    
C31   C43   A    
C17   F6    S    
C14   C30   A    
C21   C25   A    
O8    C4    A    
C19   F8    S    
O9    C5    A    
C21   F2    S    
O14   V2    S    
O6    V2    S    
C12   C20   A    
C27   C35   A    
C29   C41   A    
C14   H6    S    
C13   H5    S    
C3    O13   A    
C38   H10   S    
C48   C52   T    
O6    C2    A    
C15   C19   A    
O11   V3    S    
C30   C42   A    
O12   V4    S    
C6    C12   S    
C22   C26   A    
C9    C17   A    
O10   C6    A    
O20   V2    S    
C5    C11   S    
C20   F7    S    
C46   C50   T    
C33   C34   A    
C42   H2    S    
C41   H1    S    
C4    C45   S    
C12   C24   A    
C27   C31   A    
C13   C17   A    
O4    V2    S    
C1    C48   S    
C37   C41   A    
C24   C28   A    
C4    O14   A    
C45   C49   T    
C28   C32   A    
