data_mof_unit_11189.cif
_audit_creation_date              2012-10-26T19:57:24-0400
_audit_creation_method            fapswitch 2.2
_symmetry_space_group_name_H-M    P1
_symmetry_Int_Tables_number       1
_space_group_crystal_system       triclinic
_cell_length_a                    13.019695
_cell_length_b                    10.910381
_cell_length_c                    9.722781
_cell_angle_alpha                 92.363483
_cell_angle_beta                  95.493037
_cell_angle_gamma                 89.210175
_cell_volume                      1373.54040296

loop_
_atom_site_label
_atom_site_type_symbol
_atom_type_description
_atom_site_fract_x
_atom_site_fract_y
_atom_site_fract_z
_atom_type_partial_charge
C1    C     C_R   0.498178 0.265338 0.496129 0.576514
C2    C     C_2   0.486328 0.132294 0.480743 0.308775
C3    C     C_2   0.426415 0.538543 0.919718 0.117400
C4    C     C_R   0.301427 0.510336 0.475489 0.547266
C5    C     C_2   0.419763 0.491198 0.061642 0.149968
C6    C     C_R   0.506729 0.734627 0.504456 0.556162
C7    C     C_R   0.699435 0.502316 0.525248 0.629397
C8    C     C_R   0.812685 0.509479 0.539540 -0.012349
C9    C     C_R   0.190095 0.533691 0.464337 -0.002189
C10   C     C_R   0.030230 0.599101 0.339753 -0.145401
C11   C     C_R   0.137847 0.593303 0.351305 0.000907
C12   C     C_R   0.028380 0.510771 0.564982 -0.004795
C13   C     C_R   0.135304 0.498825 0.572836 -0.131448
C14   C     C_2   0.808350 0.630923 0.322123 0.243904
C15   C     C_3   0.323451 0.144507 0.576049 0.010946
C16   C     C_3   0.344694 0.133103 0.732630 -0.267433
C17   C     C_3   0.267584 0.208761 0.809504 -0.442439
C18   C     C_2   0.354095 0.635924 0.868689 0.293408
C19   C     C_2   0.327023 0.423393 0.089507 0.279176
C20   C     C_3   0.852824 0.287473 0.782564 -0.000698
C21   C     C_3   0.810872 0.197098 0.666694 -0.251874
C22   C     C_3   0.845610 0.065853 0.696592 -0.446176
C23   C     C_R   0.973939 0.555563 0.444353 -0.039210
C24   C     C_3   0.994306 0.565813 0.900256 0.039056
C25   C     C_3   0.016414 0.696871 0.857952 -0.279250
C26   C     C_3   0.975604 0.793633 0.957381 -0.478043
C27   C     C_2   0.191607 0.659521 0.249502 0.278842
C28   C     C_2   0.545369 0.918293 0.666366 0.245178
C29   C     C_2   0.653475 0.108272 0.363690 0.175118
C30   C     C_R   0.865375 0.563172 0.435836 -0.042563
C31   C     C_R   0.868702 0.462151 0.657681 0.228191
C32   C     C_R   0.975745 0.480750 0.677868 0.243623
C33   C     C_2   0.545764 0.929435 0.409913 -0.088125
C34   C     C_2   0.530747 0.865009 0.521298 0.055890
C35   C     C_2   0.558706 0.063056 0.419711 0.033507
Cu1   Cu    Cu3+1 0.500020 0.500020 0.638640 0.949758
Cu2   Cu    Cu3+1 0.499980 0.499980 0.361360 1.044928
H1    H     H_    0.546833 0.432344 0.891451 0.220184
H2    H     H_    0.423945 0.164283 0.768218 0.204525
H3    H     H_    0.276694 0.307497 0.791121 0.196848
H4    H     H_    0.282074 0.194319 0.922060 0.166947
H5    H     H_    0.187347 0.180722 0.774331 0.150760
H6    H     H_    0.357261 0.671933 0.767419 0.146103
H7    H     H_    0.332188 0.355956 0.168752 0.123477
H8    H     H_    0.824041 0.260189 0.880686 0.161027
H9    H     H_    0.938278 0.279984 0.798531 0.170366
H10   H     H_    0.725217 0.202232 0.656023 0.236496
H11   H     H_    0.839386 0.222180 0.567621 0.181072
H12   H     H_    0.561675 0.542949 0.121919 0.216969
H13   H     H_    0.931144 0.058510 0.704303 0.128700
H14   H     H_    0.813372 0.002633 0.611312 0.191937
H15   H     H_    0.817842 0.037441 0.794887 0.181596
H16   H     H_    0.035297 0.551297 0.003632 0.165586
H17   H     H_    0.911107 0.556163 0.913631 0.166550
H18   H     H_    0.100666 0.708329 0.855410 0.225238
H19   H     H_    0.978426 0.713383 0.753040 0.160148
H20   H     H_    0.890861 0.784448 0.959119 0.157835
H21   H     H_    0.991707 0.886555 0.922657 0.158107
H22   H     H_    0.013545 0.784351 0.063485 0.143618
H23   H     H_    0.991722 0.642280 0.250668 0.072162
H24   H     H_    0.157411 0.665012 0.144106 0.143150
H25   H     H_    0.504688 0.879725 0.746561 0.119059
H26   H     H_    0.702252 0.042892 0.312435 0.127306
H27   H     H_    0.176028 0.458985 0.662888 0.180373
H28   H     H_    0.545946 0.884282 0.308200 0.141799
H29   H     H_    0.821547 0.609636 0.215213 0.093573
H30   H     H_    0.245971 0.105589 0.544340 0.156819
H31   H     H_    0.317206 0.241391 0.545237 0.126524
H32   H     H_    0.338842 0.035249 0.758231 0.169226
N1    N     N_2   0.498860 0.498660 0.846770 -0.408845
N2    N     N_2   0.498840 0.498630 0.152900 -0.388393
O1    O     O_R   0.500020 0.321960 0.617050 -0.515124
O2    O     O_3   0.395413 0.072862 0.506784 -0.597248
O3    O     O_2   0.292264 0.681504 0.942956 -0.518183
O4    O     O_2   0.244520 0.439056 0.021430 -0.520500
O5    O     O_3   0.816572 0.408547 0.757918 -0.563109
O6    O     O_3   0.029844 0.473857 0.807729 -0.559379
O7    O     O_2   0.271300 0.715008 0.284135 -0.453950
O8    O     O_2   0.605442 0.001728 0.698958 -0.557197
O9    O     O_2   0.679818 0.215310 0.374680 -0.526440
O10   O     O_R   0.499980 0.321920 0.382890 -0.489903
O11   O     O_R   0.349010 0.500000 0.598060 -0.548929
O12   O     O_R   0.348980 0.499950 0.363910 -0.481527
O13   O     O_R   0.500020 0.678080 0.617110 -0.551730
O14   O     O_R   0.499980 0.678040 0.382950 -0.442182
O15   O     O_R   0.651020 0.500050 0.636090 -0.449121
O16   O     O_R   0.650990 0.500000 0.401940 -0.460516
O17   O     O_2   0.747609 0.713028 0.348035 -0.527724

loop_
_geom_bond_atom_site_label_1
_geom_bond_atom_site_label_2
_ccdc_geom_bond_type
C2    C35   D    
H1    N1    S    
C25   H19   S    
C27   O7    D    
C29   H26   S    
C33   H28   S    
C7    C8    S    
C13   H27   S    
C12   C23   A    
C6    O14   A    
Cu2   O14   S    
Cu1   Cu2   S    
C7    O15   A    
C24   H17   S    
C15   C16   S    
C20   O5    S    
C3    C18   S    
C1    C2    S    
C28   O8    D    
C9    C13   A    
C17   H5    S    
C27   H24   S    
C32   O6    S    
C7    O16   A    
C4    O12   A    
C16   C17   S    
C26   H22   S    
C20   H8    S    
C22   H13   S    
C21   H11   S    
C28   C34   S    
C18   O3    D    
C21   C22   S    
C12   C32   A    
Cu2   O10   S    
C14   C30   S    
Cu1   N1    S    
C1    O1    A    
C6    O13   A    
C23   C30   A    
C3    N1    D    
C24   C25   S    
Cu1   O11   S    
Cu1   O15   S    
C24   H16   S    
C6    C34   S    
C17   H3    S    
C10   H23   S    
C26   H21   S    
C31   C32   A    
C11   C27   S    
C15   H30   S    
C33   C34   D    
C14   H29   S    
C12   C13   A    
C9    C11   A    
C2    O2    S    
C15   O2    S    
Cu2   N2    S    
C19   H7    S    
C22   H15   S    
C8    C31   A    
Cu2   O16   S    
C16   H32   S    
C25   H18   S    
C3    C5    S    
C5    C19   S    
C10   C23   A    
C29   C35   S    
C8    C30   A    
C19   O4    D    
C25   C26   S    
C14   O17   D    
C5    N2    D    
C18   H6    S    
C31   O5    S    
C29   O9    D    
Cu1   O13   S    
C15   H31   S    
C33   C35   S    
C26   H20   S    
C17   H4    S    
C10   C11   A    
C16   H2    S    
C24   O6    S    
C4    O11   A    
C20   C21   S    
H12   N2    S    
Cu2   O12   S    
C4    C9    S    
C1    O10   A    
C20   H9    S    
Cu1   O1    S    
C22   H14   S    
C21   H10   S    
C28   H25   S    
