data_mof_unit_45719.cif
_audit_creation_date              2013-03-05T15:55:21-0500
_audit_creation_method            fapswitch 2.2
_symmetry_space_group_name_H-M    P1
_symmetry_Int_Tables_number       1
_space_group_crystal_system       triclinic
_cell_length_a                    14.751067
_cell_length_b                    14.739732
_cell_length_c                    33.28856
_cell_angle_alpha                 96.028374
_cell_angle_beta                  96.361865
_cell_angle_gamma                 61.178383
_cell_volume                      6291.11082235

loop_
_atom_site_label
_atom_site_type_symbol
_atom_site_description
_atom_site_fract_x
_atom_site_fract_y
_atom_site_fract_z
_atom_type_partial_charge
O1    O     O_R   0.679450 0.499830 0.463150 -0.503828
O2    O     O_R   0.480650 0.664000 0.464630 -0.538384
C1    C     C_R   0.391615 0.698192 0.445586 0.809613
O3    O     O_R   0.323930 0.675950 0.455370 -0.545766
O4    O     O_R   0.354700 0.475360 0.451930 -0.531090
C2    C     C_R   0.405809 0.386495 0.433959 0.789617
O5    O     O_R   0.494470 0.320860 0.448390 -0.548426
O6    O     O_R   0.662580 0.357570 0.460050 -0.550730
C3    C     C_R   0.700187 0.410160 0.447265 0.871602
O7    O     O_R   0.680900 0.502040 0.551870 -0.541423
O8    O     O_R   0.481990 0.666040 0.546870 -0.541414
C4    C     C_R   0.393608 0.701374 0.561243 0.817616
O9    O     O_R   0.325370 0.678160 0.544080 -0.530894
O10   O     O_R   0.356040 0.477400 0.534170 -0.499089
C5    C     C_R   0.406971 0.388195 0.548817 0.834890
O11   O     O_R   0.495910 0.323070 0.537100 -0.555925
O12   O     O_R   0.663920 0.359620 0.542290 -0.541284
C6    C     C_R   0.701404 0.413561 0.562704 0.780784
Cr1   Cr    Cr6+3 0.576280 0.580550 0.506370 0.990184
Cr2   Cr    Cr6+3 0.346780 0.572400 0.496520 1.023738
Cr3   Cr    Cr6+3 0.576960 0.347070 0.497150 0.952592
O13   O     O_3   0.500010 0.500010 0.500010 -0.351711
H1    H     H_    0.424064 0.142772 0.113905 0.198013
H2    H     H_    0.435488 0.176667 0.186470 0.188372
H3    H     H_    0.465119 0.201101 0.310194 0.169252
H4    H     H_    0.502436 0.214606 0.383319 0.167477
C7    C     C_R   0.370072 0.367252 0.392426 -0.069099
C8    C     C_R   0.281329 0.446498 0.373251 -0.150349
C9    C     C_R   0.260823 0.438573 0.331482 -0.096078
C10   C     C_R   0.328252 0.351224 0.308671 0.084675
C11   C     C_R   0.412660 0.269068 0.327775 -0.071235
C12   C     C_R   0.433438 0.276778 0.369494 -0.131397
C13   C     C_R   0.378031 0.237924 0.167980 -0.174830
C14   C     C_R   0.371740 0.219291 0.126377 -0.181207
C15   C     C_R   0.227238 0.393885 0.119361 0.280611
C16   C     C_R   0.235228 0.412974 0.162022 0.316440
C17   C     C_R   0.307990 0.332462 0.185846 0.018951
C18   C     C_1   0.310837 0.343918 0.229134 0.113400
C19   C     C_1   0.316415 0.348717 0.265449 0.003895
C20   C     C_R   0.293654 0.294342 0.101738 -0.197303
H5    H     H_    0.231195 0.517248 0.390058 0.150727
H6    H     H_    0.195212 0.502395 0.316805 0.151970
N1    N     N_R   0.761620 0.408539 0.220860 -0.249901
N2    N     N_R   0.754169 0.416554 0.260631 -0.178809
C21   C     C_R   0.749425 0.375521 0.408309 -0.177360
C22   C     C_R   0.791935 0.430202 0.392181 0.297867
C23   C     C_R   0.808631 0.415519 0.350284 0.266327
C24   C     C_R   0.790759 0.340321 0.326146 -0.172933
C25   C     C_R   0.758174 0.278582 0.343586 0.339951
C26   C     C_R   0.738897 0.296346 0.384459 -0.299184
N3    N     N_R   0.855487 0.236677 0.263006 -0.223730
N4    N     N_R   0.862836 0.228737 0.223192 -0.197059
C27   C     C_R   0.815628 0.314442 0.201315 0.582510
C28   C     C_R   0.801261 0.330840 0.282383 0.635085
C29   C     C_R   0.827709 0.391550 0.141070 -0.288651
C30   C     C_R   0.860123 0.382488 0.102243 0.388082
C31   C     C_R   0.882708 0.206170 0.093816 0.199233
C32   C     C_R   0.854243 0.214953 0.133774 0.396004
C33   C     C_R   0.831115 0.306818 0.157864 -0.116779
C34   C     C_R   0.896495 0.286195 0.079626 -0.230369
H7    H     H_    0.707149 0.253176 0.396690 0.202188
H8    H     H_    0.805722 0.463654 0.159160 0.197449
N5    N     N_R   0.335074 0.738670 0.214096 -0.262709
N6    N     N_R   0.335853 0.731547 0.253648 -0.210911
C35   C     C_R   0.376126 0.744709 0.406618 -0.143482
C36   C     C_R   0.286206 0.767067 0.381402 -0.234585
C37   C     C_R   0.282132 0.784168 0.340368 0.355876
C38   C     C_R   0.369784 0.778086 0.324470 -0.145415
C39   C     C_R   0.458560 0.761539 0.350343 0.326241
C40   C     C_R   0.459580 0.747494 0.391307 -0.210194
N7    N     N_R   0.399893 0.849900 0.267109 -0.216355
N8    N     N_R   0.399094 0.856986 0.227560 -0.206844
C41   C     C_R   0.367655 0.800780 0.200308 0.572452
C42   C     C_R   0.368171 0.787101 0.280820 0.631256
C43   C     C_R   0.269979 0.819898 0.133850 -0.158301
C44   C     C_R   0.241862 0.859906 0.095737 -0.107872
C45   C     C_R   0.392776 0.886083 0.101020 -0.209310
C46   C     C_R   0.422686 0.844754 0.139261 0.386924
C47   C     C_R   0.356970 0.817076 0.156806 -0.102681
C48   C     C_R   0.300336 0.897799 0.079829 -0.116985
H9    H     H_    0.221027 0.765965 0.393039 0.150815
H10   H     H_    0.529974 0.729362 0.410354 0.196705
H11   H     H_    0.170837 0.866835 0.079853 0.178683
H12   H     H_    0.219087 0.798264 0.146558 0.178288
H13   H     H_    0.440494 0.911733 0.088321 0.187019
N9    N     N_R   0.235830 0.418279 0.766344 -0.275306
N10   N     N_R   0.242395 0.417737 0.726765 -0.271809
C49   C     C_R   0.373104 0.367092 0.585343 -0.162856
C50   C     C_R   0.276528 0.436229 0.601498 0.382176
C51   C     C_R   0.262583 0.429558 0.641928 -0.188120
C52   C     C_R   0.341637 0.353521 0.665836 -0.048830
C53   C     C_R   0.431903 0.278768 0.648120 -0.120387
C54   C     C_R   0.447312 0.285270 0.608419 -0.199641
N11   N     N_R   0.416677 0.292213 0.733423 -0.270642
N12   N     N_R   0.410201 0.292971 0.772953 -0.260114
C55   C     C_R   0.319673 0.355933 0.790214 0.551889
C56   C     C_R   0.332804 0.353907 0.709486 0.549244
C57   C     C_R   0.212707 0.395898 0.848843 -0.118906
C58   C     C_R   0.202171 0.374890 0.887249 -0.198154
C59   C     C_R   0.389574 0.269816 0.897502 0.398718
C60   C     C_R   0.398883 0.289984 0.858346 -0.169437
C61   C     C_R   0.310561 0.349483 0.833297 -0.051615
C62   C     C_R   0.289280 0.307330 0.911072 -0.164485
H14   H     H_    0.521196 0.229659 0.596854 0.165494
H15   H     H_    0.124484 0.405944 0.897008 0.176044
H16   H     H_    0.190547 0.485083 0.654849 0.188619
H17   H     H_    0.493149 0.217426 0.665449 0.165455
H18   H     H_    0.143292 0.443388 0.830466 0.164536
H19   H     H_    0.475326 0.257734 0.847238 0.189292
H20   H     H_    0.968159 0.120384 0.873776 0.159292
H21   H     H_    0.918841 0.140767 0.801625 0.145178
H22   H     H_    0.797307 0.200971 0.669554 0.133801
H23   H     H_    0.747559 0.235753 0.597961 0.143257
C63   C     C_R   0.753919 0.380782 0.603015 -0.066241
C64   C     C_R   0.777512 0.448460 0.629589 -0.124787
C65   C     C_R   0.805308 0.428399 0.670429 -0.084848
C66   C     C_R   0.810374 0.340412 0.685049 0.098021
C67   C     C_R   0.793276 0.269429 0.658442 -0.117417
C68   C     C_R   0.765442 0.289267 0.617591 -0.157523
C69   C     C_R   0.899694 0.209219 0.821822 -0.112607
C70   C     C_R   0.927075 0.198067 0.863110 -0.223522
C71   C     C_R   0.855808 0.385258 0.874590 0.374806
C72   C     C_R   0.828284 0.395365 0.832782 -0.204090
C73   C     C_R   0.853239 0.307408 0.806523 0.075057
C74   C     C_1   0.837644 0.317491 0.763625 0.014442
C75   C     C_1   0.826008 0.326891 0.727713 -0.015086
C76   C     C_R   0.909438 0.285044 0.889663 -0.075047
H24   H     H_    0.768913 0.519767 0.619391 0.171351
H25   H     H_    0.790836 0.471363 0.820542 0.155717
H26   H     H_    0.818650 0.483658 0.690890 0.162944
H27   H     H_    0.532954 0.733749 0.612304 0.189897
C77   C     C_R   0.376828 0.755717 0.601811 -0.149633
C78   C     C_R   0.282270 0.790719 0.619125 -0.227621
C79   C     C_R   0.272603 0.822013 0.660455 0.359425
C80   C     C_R   0.358628 0.818763 0.684488 -0.079666
C81   C     C_R   0.452010 0.791037 0.666826 0.335998
C82   C     C_R   0.459994 0.759425 0.625540 -0.234543
C83   C     C_R   0.410063 0.856082 0.834849 0.238797
C84   C     C_R   0.389250 0.884220 0.876029 0.281148
C85   C     C_R   0.214295 0.908377 0.859893 -0.303819
C86   C     C_R   0.233837 0.881901 0.818940 0.366044
C87   C     C_R   0.330701 0.858581 0.806412 -0.117987
C88   C     C_1   0.344838 0.844096 0.763691 0.201394
C89   C     C_1   0.352595 0.833414 0.727716 0.168993
C90   C     C_R   0.289443 0.913763 0.888447 -0.234840
H28   H     H_    0.217416 0.788799 0.601031 0.172024
H29   H     H_    0.137745 0.930394 0.868965 0.166148
O14   O     O_R   0.170070 0.978950 0.027680 -0.534559
O15   O     O_R   0.001760 0.175230 0.026640 -0.539902
C91   C     C_R   0.960808 0.265311 0.044904 0.851266
O16   O     O_R   0.984760 0.333570 0.037150 -0.481563
O17   O     O_R   0.183410 0.309240 0.041890 -0.499130
C92   C     C_R   0.273310 0.259993 0.059896 0.860918
O18   O     O_R   0.340240 0.172500 0.045430 -0.543108
O19   O     O_R   0.309670 0.000990 0.032050 -0.536643
C93   C     C_R   0.259460 0.959388 0.043765 0.809488
O20   O     O_R   0.168330 0.982130 0.939200 -0.552715
O21   O     O_R   0.000140 0.178170 0.944610 -0.551917
C94   C     C_R   0.961985 0.267894 0.930798 0.809939
O22   O     O_R   0.983010 0.336750 0.948660 -0.506822
O23   O     O_R   0.181800 0.312190 0.959860 -0.542672
C95   C     C_R   0.271226 0.265117 0.945828 0.844200
O24   O     O_R   0.338500 0.175680 0.956950 -0.489850
O25   O     O_R   0.308050 0.003930 0.950020 -0.500896
C96   C     C_R   0.256290 0.964570 0.928986 0.864515
Cr4   Cr    Cr6+3 0.087320 0.083240 0.984860 0.977035
Cr5   Cr    Cr6+3 0.087720 0.316210 0.996740 1.089585
Cr6   Cr    Cr6+3 0.317350 0.090340 0.995890 1.081450
O26   O     O_3   0.164130 0.163270 0.992500 -0.374939
O27   O     O_3   0.859919 0.465847 0.086566 -0.571206
H30   H     H_    0.832183 0.526753 0.106231 0.343859
O28   O     O_3   0.839552 0.474950 0.331884 -0.604873
H31   H     H_    0.812938 0.544028 0.346511 0.350249
N13   N     N_R   0.734195 0.204833 0.319624 0.121975
O29   O     O_R   0.676498 0.230975 0.285931 -0.352333
O30   O     O_R   0.754070 0.118786 0.334812 -0.342549
O31   O     O_3   0.898128 0.118485 0.069790 -0.620157
H32   H     H_    0.869164 0.140478 0.042046 0.326509
O32   O     O_3   0.846348 0.136354 0.149843 -0.596740
H33   H     H_    0.868338 0.075199 0.130395 0.359085
O33   O     O_3   0.194307 0.804809 0.315095 -0.607522
H34   H     H_    0.140379 0.806275 0.330891 0.316025
N14   N     N_R   0.551469 0.749556 0.335093 0.120427
O34   O     O_R   0.609158 0.782802 0.357202 -0.342841
O35   O     O_R   0.587850 0.690283 0.302678 -0.323546
N15   N     N_R   0.518937 0.831875 0.159772 0.121249
O36   O     O_R   0.576290 0.751492 0.180965 -0.318159
O37   O     O_R   0.555949 0.892838 0.153206 -0.346405
N16   N     N_R   0.192783 0.513258 0.577654 0.101079
O38   O     O_R   0.129849 0.602587 0.594558 -0.365590
O39   O     O_R   0.169786 0.488826 0.540655 -0.361117
N17   N     N_R   0.481817 0.211550 0.922784 0.134862
O40   O     O_R   0.486149 0.238115 0.961204 -0.345966
O41   O     O_R   0.566254 0.141798 0.906666 -0.311590
O42   O     O_3   0.833835 0.471369 0.900762 -0.603949
H35   H     H_    0.796489 0.534715 0.885265 0.329553
N18   N     N_R   0.470272 0.879447 0.905194 0.155168
O43   O     O_R   0.505939 0.811546 0.932671 -0.342061
O44   O     O_R   0.496641 0.952482 0.908260 -0.283687
N19   N     N_R   0.511622 0.823926 0.821990 0.155218
O45   O     O_R   0.556283 0.881616 0.831169 -0.275871
O46   O     O_R   0.557805 0.738972 0.799347 -0.341642
N20   N     N_R   0.540149 0.790661 0.690473 0.124492
O47   O     O_R   0.633584 0.729903 0.679274 -0.363451
O48   O     O_R   0.527338 0.857688 0.720955 -0.320550
O49   O     O_3   0.158243 0.881876 0.790385 -0.610478
H36   H     H_    0.094491 0.900859 0.804039 0.305691
O50   O     O_3   0.181492 0.851551 0.678393 -0.612120
H37   H     H_    0.129190 0.849032 0.657502 0.315646
O51   O     O_3   0.173487 0.507842 0.181365 -0.607878
H38   H     H_    0.140398 0.561700 0.161348 0.353104
N21   N     N_R   0.150523 0.473479 0.094488 0.096872
O52   O     O_R   0.177998 0.501823 0.064258 -0.350567
O53   O     O_R   0.052690 0.514529 0.100888 -0.333108
O54   O     O_3   0.815226 0.497432 0.417697 -0.610173
H39   H     H_    0.873153 0.501767 0.407176 0.314271

loop_
_geom_bond_atom_site_label_1
_geom_bond_atom_site_label_2
_geom_bond_distance
_ccdc_geom_bond_type
O6    C3    1.275143 A    
C58   C62   1.406404 A    
N20   O47   1.301650 A    
C3    C21   1.477175 S    
O11   Cr3   2.045009 S    
C55   C61   1.472284 S    
C9    H6    1.083628 S    
C91   O16   1.273285 A    
O14   Cr4   2.037226 S    
N12   C55   1.355669 A    
C71   O42   1.381577 S    
O54   H39   0.990224 S    
C6    C63   1.476195 S    
C23   O28   1.382175 S    
C27   C33   1.473523 S    
C72   C73   1.397696 A    
Cr5   O26   1.972504 S    
O4    Cr2   1.922021 S    
C90   C96   1.483886 S    
C45   C46   1.401975 A    
N4    C27   1.357864 A    
C24   C28   1.467049 S    
N20   O48   1.301284 A    
O8    Cr1   1.925846 S    
C60   C61   1.404644 A    
C74   C75   1.201746 T    
C14   C20   1.405657 A    
C8    C9    1.394709 A    
C17   C18   1.431455 S    
C70   C76   1.408510 A    
C29   C33   1.398151 A    
N14   O35   1.301508 A    
H20   C70   1.083091 S    
C80   C89   1.438711 S    
C10   C11   1.397731 A    
N13   O29   1.301480 A    
O16   Cr5   2.046324 S    
C43   H12   1.083389 S    
O27   H30   0.991791 S    
C38   C42   1.469497 S    
C5    O11   1.270947 A    
C29   H8    1.083454 S    
C8    H5    1.083041 S    
C57   H18   1.082942 S    
C65   C66   1.398375 A    
C85   H29   1.083161 S    
N16   O39   1.301444 A    
O22   Cr5   2.035212 S    
C71   C76   1.414398 A    
N18   O44   1.300948 A    
C67   C68   1.395466 A    
C53   C54   1.386229 A    
C37   O33   1.382351 S    
C86   O49   1.382899 S    
N1    C27   1.357064 A    
C15   C16   1.421511 A    
C77   C78   1.402072 A    
C31   O31   1.378984 S    
C54   H14   1.083175 S    
C32   O32   1.384163 S    
C46   N15   1.438959 S    
O12   Cr3   1.918554 S    
C66   C75   1.432641 S    
O19   Cr6   1.924396 S    
C63   C68   1.407847 A    
C2    C7    1.473140 S    
C79   C80   1.406084 A    
C49   C50   1.418493 A    
C36   C37   1.404477 A    
O2    Cr1   1.919674 S    
N15   O36   1.301577 A    
C45   H13   1.083136 S    
N21   O52   1.301318 A    
H23   C68   1.083026 S    
Cr3   O13   1.972579 S    
C72   H25   1.084146 S    
C94   O22   1.271079 A    
O18   Cr6   2.037530 S    
C59   N17   1.438272 S    
C58   H15   1.083432 S    
C44   H11   1.083095 S    
C25   N13   1.438443 S    
C48   C93   1.472994 S    
C31   C32   1.413362 A    
C18   C19   1.199475 T    
C1    C35   1.474804 S    
O1    Cr1   2.044873 S    
C37   C38   1.410593 A    
C23   C24   1.411177 A    
O10   Cr2   1.922624 S    
C80   C81   1.412927 A    
Cr1   O13   1.975365 S    
O1    C3    1.272525 A    
C85   C86   1.400294 A    
C51   H16   1.082959 S    
C83   C87   1.409993 A    
O20   C96   1.273431 A    
C52   C53   1.399200 A    
C49   C54   1.406494 A    
N9    N10   1.330655 A    
N19   O45   1.300543 A    
C31   C34   1.423182 A    
O42   H35   0.991800 S    
N5    C41   1.356885 A    
N11   C56   1.357024 A    
C77   C82   1.404548 A    
O33   H34   0.991734 S    
C59   C62   1.416132 A    
C52   C56   1.472376 S    
C64   H24   1.083004 S    
N3    N4    1.330038 A    
H21   C69   1.083805 S    
C65   H26   1.083683 S    
N17   O41   1.301473 A    
C35   C40   1.403253 A    
C43   C44   1.390751 A    
N14   O34   1.301336 A    
C9    C10   1.396742 A    
O25   C96   1.277923 A    
C78   C79   1.404528 A    
C53   H17   1.083028 S    
C79   O50   1.382552 S    
N18   O43   1.301161 A    
O10   C5    1.277509 A    
O25   Cr6   1.919932 S    
O7    Cr1   2.035467 S    
H1    C14   1.083297 S    
C29   C30   1.398631 A    
O12   C6    1.275446 A    
C41   C47   1.471564 S    
C21   C22   1.408473 A    
N11   N12   1.328351 A    
C34   C91   1.489086 S    
O17   C92   1.277451 A    
O50   H37   0.991738 S    
O23   Cr5   1.928641 S    
N9    C55   1.358398 A    
C39   N14   1.438438 S    
N19   O46   1.301283 A    
Cr6   O26   1.975605 S    
N21   O53   1.301276 A    
C25   C26   1.392761 A    
N1    N2    1.328792 A    
O21   C94   1.276672 A    
C20   C92   1.480606 S    
C32   C33   1.407166 A    
C43   C47   1.403641 A    
N15   O37   1.301554 A    
C1    O3    1.272994 A    
C50   C51   1.404263 A    
C76   C94   1.479320 S    
O19   C93   1.276236 A    
O17   Cr5   1.919473 S    
O28   H31   0.990328 S    
O21   Cr4   1.919347 S    
C95   O24   1.272594 A    
C45   C48   1.404338 A    
O5    Cr3   2.036748 S    
N16   O38   1.301433 A    
C22   C23   1.419167 A    
C84   C90   1.416694 A    
C62   C95   1.475103 S    
C50   N16   1.436951 S    
C4    C77   1.477281 S    
O9    Cr2   2.038159 S    
C30   O27   1.383025 S    
C7    C12   1.406178 A    
O49   H36   0.991754 S    
H3    C11   1.083838 S    
C38   C39   1.415061 A    
C11   C12   1.393413 A    
O15   Cr4   1.925785 S    
C44   C48   1.401504 A    
Cr2   O13   1.975722 S    
N8    C41   1.357839 A    
O6    Cr3   1.928373 S    
O20   Cr4   2.041801 S    
N7    C42   1.355649 A    
O8    C4    1.277148 A    
C84   N18   1.432510 S    
C63   C64   1.407094 A    
C2    O5    1.271070 A    
H4    C12   1.083043 S    
O32   H33   0.989395 S    
C85   C90   1.405025 A    
C66   C67   1.397513 A    
H2    C13   1.084309 S    
C22   O54   1.381404 S    
C15   N21   1.434872 S    
N3    C28   1.355774 A    
N17   O40   1.301505 A    
C88   C89   1.202240 T    
C71   C72   1.408527 A    
O24   Cr6   2.042150 S    
N7    N8    1.329872 A    
C35   C36   1.400881 A    
C57   C61   1.399457 A    
C86   C87   1.400743 A    
C36   H9    1.083349 S    
H22   C67   1.083625 S    
C46   C47   1.415666 A    
C51   C52   1.403890 A    
O4    C2    1.274822 A    
O23   C95   1.275031 A    
C21   C26   1.403261 A    
O7    C6    1.271485 A    
C24   C25   1.410936 A    
C81   N20   1.441254 S    
C59   C60   1.402386 A    
N13   O30   1.301343 A    
C13   C14   1.384999 A    
C10   C19   1.428776 S    
C15   C20   1.420353 A    
O51   H38   0.988880 S    
C39   C40   1.397959 A    
C40   H10   1.083430 S    
C13   C17   1.391719 A    
C5    C49   1.479402 S    
C83   C84   1.412957 A    
O31   H32   0.991216 S    
N5    N6    1.330104 A    
O3    Cr2   2.039714 S    
N2    C28   1.355558 A    
C30   C34   1.414238 A    
C4    O9    1.272899 A    
Cr4   O26   1.975278 S    
C16   C17   1.403665 A    
C57   C58   1.388560 A    
C7    C8    1.408047 A    
C87   C88   1.438926 S    
C26   H7    1.083518 S    
N6    C42   1.356912 A    
C69   C70   1.392690 A    
C81   C82   1.402949 A    
O2    C1    1.274834 A    
C78   H28   1.083357 S    
O14   C93   1.271972 A    
C64   C65   1.395651 A    
C92   O18   1.271649 A    
O15   C91   1.279073 A    
C60   H19   1.082990 S    
C73   C74   1.432859 S    
C69   C73   1.394564 A    
C16   O51   1.382895 S    
H27   C82   1.083051 S    
N10   C56   1.356878 A    
C83   N19   1.437735 S    
