data_mof_unit_38050.cif
_audit_creation_date              2012-12-10T16:53:00-0500
_audit_creation_method            fapswitch 2.2
_symmetry_space_group_name_H-M    P1
_symmetry_Int_Tables_number       1
_space_group_crystal_system       triclinic
_cell_length_a                    7.841039
_cell_length_b                    8.574019
_cell_length_c                    11.513211
_cell_angle_alpha                 91.600624
_cell_angle_beta                  84.884242
_cell_angle_gamma                 93.661992
_cell_volume                      769.174239856

loop_
_atom_site_label
_atom_site_type_symbol
_atom_type_description
_atom_site_fract_x
_atom_site_fract_y
_atom_site_fract_z
_atom_type_partial_charge
C1    C     C_R   0.545537 0.794471 0.497043 0.944756
C2    C     C_2   0.430630 0.041884 0.504128 -0.389506
C3    C     C_3   0.955671 0.306987 0.308868 0.186127
C4    C     C_3   0.065434 0.194101 0.234744 -0.388405
C5    C     C_3   0.994809 0.159034 0.116817 -0.962482
C6    C     C_3   0.047349 0.714133 0.683381 0.148365
C7    C     C_3   0.993970 0.605639 0.785733 -0.345889
C8    C     C_3   0.068846 0.667601 0.897191 -0.955290
C9    C     C_R   0.454452 0.205520 0.502636 0.941639
C10   C     C_R   0.500353 0.499328 0.717770 0.879938
C11   C     C_R   0.499375 0.499207 0.282216 0.872732
C12   C     C_1   0.500677 0.496824 0.838233 -0.211582
C13   C     C_1   0.498351 0.497529 0.161706 -0.198728
C14   C     C_1   0.500013 0.495770 0.940554 -0.008007
C15   C     C_1   0.498761 0.496210 0.059360 0.001279
C16   C     C_2   0.569336 0.958089 0.494987 -0.379110
H1    H     H_    0.700391 0.009041 0.486044 0.191513
H2    H     H_    0.001513 0.831534 0.707913 0.127951
H3    H     H_    0.187395 0.732232 0.668256 0.179100
H4    H     H_    0.852354 0.597721 0.801896 0.234885
H5    H     H_    0.036954 0.486405 0.764638 0.235328
H6    H     H_    0.210565 0.684330 0.883187 0.273178
H7    H     H_    0.035163 0.582925 0.968103 0.269829
H8    H     H_    0.015604 0.781189 0.924714 0.260570
H9    H     H_    0.299575 0.990933 0.512969 0.187188
H10   H     H_    0.952594 0.416627 0.259464 0.145607
H11   H     H_    0.824840 0.250780 0.325124 0.167839
H12   H     H_    0.198952 0.245988 0.220159 0.234568
H13   H     H_    0.068449 0.082979 0.281857 0.229993
H14   H     H_    0.861809 0.105444 0.129127 0.264852
H15   H     H_    0.076508 0.075956 0.065568 0.270815
H16   H     H_    0.994992 0.268201 0.066957 0.268392
N1    N     N_2   0.950330 0.457960 0.469510 0.168529
N2    N     N_2   0.049670 0.542040 0.530490 0.176375
O1    O     O_R   0.389250 0.738570 0.507480 -0.643477
O2    O     O_3   0.968826 0.663396 0.582548 -0.555386
O3    O     O_R   0.610750 0.261430 0.492520 -0.635417
O4    O     O_R   0.678390 0.711630 0.487940 -0.570973
O5    O     O_R   0.321610 0.288370 0.512060 -0.576497
O6    O     O_R   0.355420 0.513450 0.675320 -0.648082
O7    O     O_R   0.644580 0.486550 0.324680 -0.660603
O8    O     O_R   0.644570 0.486510 0.655780 -0.597046
O9    O     O_R   0.355430 0.513490 0.344220 -0.588793
O10   O     O_3   0.028872 0.337921 0.414643 -0.559726
Zn1   Zn    Zn3+2 0.306940 0.517990 0.513050 1.006930
Zn2   Zn    Zn3+2 0.693060 0.482010 0.486950 1.006719

loop_
_geom_bond_atom_site_label_1
_geom_bond_atom_site_label_2
_ccdc_geom_bond_type
C8    H6    S    
O7    Zn2   S    
C11   O9    A    
C6    C7    S    
C6    H3    S    
C10   O8    A    
C11   C13   S    
C4    H13   S    
O5    Zn1   S    
C5    H16   S    
C9    O3    A    
N1    N2    D    
C7    C8    S    
C1    C16   S    
N1    Zn2   S    
O9    Zn1   S    
C10   C12   S    
C1    O4    A    
C3    H11   S    
C8    H8    S    
C6    O2    S    
C11   O7    A    
C2    H9    S    
N2    O2    S    
C13   C15   T    
O6    Zn1   S    
C6    H2    S    
N1    O10   S    
C3    O10   S    
O4    Zn2   S    
C3    C4    S    
O1    Zn1   S    
C9    O5    A    
C8    H7    S    
C2    C16   D    
C1    O1    A    
C10   O6    A    
C7    H4    S    
O8    Zn2   S    
N2    Zn1   S    
C14   C15   S    
C4    C5    S    
C4    H12   S    
O3    Zn2   S    
C7    H5    S    
C2    C9    S    
C3    H10   S    
C5    H14   S    
C12   C14   T    
C16   H1    S    
C5    H15   S    
