data_mof_unit_46636.cif
_audit_creation_date              2012-12-10T18:18:25-0500
_audit_creation_method            fapswitch 2.2
_symmetry_space_group_name_H-M    P1
_symmetry_Int_Tables_number       1
_space_group_crystal_system       triclinic
_cell_length_a                    14.01088
_cell_length_b                    15.014676
_cell_length_c                    15.501456
_cell_angle_alpha                 89.96086
_cell_angle_beta                  68.064594
_cell_angle_gamma                 90.022195
_cell_volume                      3024.94178675

loop_
_atom_site_label
_atom_site_type_symbol
_atom_type_description
_atom_site_fract_x
_atom_site_fract_y
_atom_site_fract_z
_atom_type_partial_charge
C1    C     C_R   0.500048 0.673548 0.499870 0.901411
C2    C     C_R   0.500132 0.769434 0.499713 -0.080971
C3    C     C_R   0.415766 0.184783 0.493971 -0.257629
C4    C     C_R   0.584283 0.815238 0.505934 -0.258355
C5    C     C_R   0.415198 0.092654 0.493790 0.117804
C6    C     C_R   0.584851 0.907369 0.506116 0.117801
C7    C     C_R   0.499976 0.046348 0.500056 0.061435
C8    C     C_R   0.500065 0.953675 0.499867 0.061532
C9    C     C_R   0.584666 0.092700 0.506509 0.118344
C10   C     C_R   0.415359 0.907323 0.493445 0.118365
C11   C     C_R   0.331428 0.046235 0.487380 -0.217218
C12   C     C_R   0.499955 0.326456 0.500123 0.900817
C13   C     C_R   0.668621 0.953790 0.512526 -0.217231
C14   C     C_R   0.331509 0.953698 0.487205 -0.217591
C15   C     C_R   0.668520 0.046327 0.512740 -0.217595
C16   C     C_R   0.436119 0.497996 0.676151 0.877876
C17   C     C_R   0.563882 0.498659 0.323791 0.875011
C18   C     C_R   0.174469 0.452659 0.566307 -0.071596
C19   C     C_R   0.825539 0.547329 0.433722 -0.072896
C20   C     C_R   0.229178 0.547284 0.433721 -0.066515
C21   C     C_R   0.770816 0.452592 0.566228 -0.061404
C22   C     C_R   0.129284 0.548203 0.431977 0.012855
C23   C     C_R   0.374168 0.439344 0.104675 -0.232480
C24   C     C_R   0.870705 0.451638 0.568003 0.016011
C25   C     C_R   0.050604 0.499904 0.499991 0.086321
C26   C     C_R   0.949391 0.499946 0.500003 0.085833
C27   C     C_R   0.073077 0.451617 0.568021 0.019131
C28   C     C_R   0.926921 0.548283 0.431997 0.017708
C29   C     C_R   0.106295 0.596097 0.364214 -0.213771
C30   C     C_R   0.893686 0.403750 0.635790 -0.213058
C31   C     C_R   0.005985 0.596160 0.364243 -0.210947
C32   C     C_R   0.993997 0.403737 0.635790 -0.210054
C33   C     C_R   0.397399 0.484082 0.776655 -0.061098
C34   C     C_R   0.619164 0.422738 0.899460 -0.227953
C35   C     C_R   0.602132 0.484646 0.223316 -0.062506
C36   C     C_R   0.260158 0.463070 0.926318 -0.202890
C37   C     C_R   0.735928 0.446850 0.076110 -0.201791
C38   C     C_R   0.292162 0.478947 0.830946 -0.200087
C39   C     C_R   0.705958 0.467976 0.170281 -0.198469
C40   C     C_R   0.469657 0.470396 0.817443 -0.263786
C41   C     C_R   0.529330 0.479469 0.182069 -0.259069
C42   C     C_R   0.439720 0.450983 0.911678 0.092873
C43   C     C_R   0.556271 0.452572 0.090142 0.093196
C44   C     C_R   0.333261 0.451041 0.967366 0.177269
C45   C     C_R   0.301616 0.441343 0.063340 -0.238871
C46   C     C_R   0.661833 0.439909 0.035440 0.177384
C47   C     C_R   0.513676 0.438510 0.952650 0.070801
C48   C     C_R   0.480933 0.443340 0.050305 0.067495
C49   C     C_R   0.691723 0.421804 0.940883 -0.236819
C50   C     C_R   0.583979 0.184828 0.506583 -0.258000
C51   C     C_R   0.416022 0.815192 0.493414 -0.258640
C52   C     C_R   0.499884 0.230582 0.500255 -0.078691
H1    H     H_    0.220534 0.439132 0.106982 0.148780
H2    H     H_    0.549987 0.478645 0.775154 0.158929
H3    H     H_    0.763372 0.470901 0.201447 0.154445
H4    H     H_    0.235104 0.488081 0.800065 0.153326
H5    H     H_    0.178550 0.461639 0.968158 0.133425
H6    H     H_    0.816690 0.435811 0.035191 0.133427
H7    H     H_    0.344763 0.432541 0.179414 0.152313
H8    H     H_    0.647230 0.408606 0.825897 0.137410
H9    H     H_    0.648864 0.220719 0.511708 0.162310
H10   H     H_    0.351109 0.779303 0.488342 0.162786
H11   H     H_    0.350829 0.220639 0.488959 0.163912
H12   H     H_    0.771845 0.410001 0.898138 0.144123
H13   H     H_    0.649237 0.779384 0.510913 0.164483
H14   H     H_    0.266099 0.081451 0.482524 0.147240
H15   H     H_    0.733957 0.918576 0.517370 0.147573
H16   H     H_    0.266233 0.918448 0.482233 0.147059
H17   H     H_    0.733785 0.081578 0.517733 0.146808
H18   H     H_    0.165857 0.633513 0.311221 0.142871
H19   H     H_    0.834128 0.366333 0.688795 0.135674
H20   H     H_    0.193446 0.415882 0.617854 0.128361
H21   H     H_    0.806574 0.584161 0.382203 0.129293
H22   H     H_    0.290518 0.584393 0.382286 0.131935
H23   H     H_    0.709481 0.415422 0.617607 0.127341
H24   H     H_    0.990265 0.633653 0.311298 0.141193
H25   H     H_    0.009698 0.366293 0.688776 0.138266
H26   H     H_    0.451156 0.498551 0.222476 0.155281
N1    N     N_R   0.249980 0.499930 0.499960 -0.099075
N2    N     N_R   0.750020 0.500070 0.500040 -0.098982
O1    O     O_R   0.419720 0.632140 0.499980 -0.621918
O2    O     O_R   0.580280 0.367860 0.500020 -0.623471
O3    O     O_R   0.580270 0.632160 0.499970 -0.620939
O4    O     O_R   0.419730 0.367840 0.500030 -0.622325
O5    O     O_R   0.373870 0.499980 0.632250 -0.618749
O6    O     O_R   0.626130 0.500020 0.367750 -0.619180
O7    O     O_R   0.534420 0.500000 0.632240 -0.623321
O8    O     O_R   0.465580 0.500000 0.367760 -0.623975
Zn1   Zn    Zn3+2 0.392800 0.499980 0.500010 0.941785
Zn2   Zn    Zn3+2 0.607200 0.500020 0.499990 0.942294

loop_
_geom_bond_atom_site_label_1
_geom_bond_atom_site_label_2
_ccdc_geom_bond_type
C23   C45   A    
C22   C29   A    
C17   O8    A    
C2    C4    A    
C30   H19   S    
C7    C8    A    
C23   H7    S    
C46   C49   A    
C24   C26   A    
C5    C11   A    
C4    H13   S    
C11   C14   A    
C1    O1    A    
C12   O4    A    
C1    C2    S    
C32   H25   S    
C39   H3    S    
C18   N1    A    
C22   C25   A    
C16   O7    A    
C50   C52   A    
C43   C48   A    
C37   H6    S    
C11   H14   S    
O1    Zn1   S    
C40   C42   A    
C45   H1    S    
C49   H12   S    
C34   H8    S    
C41   C43   A    
C51   H10   S    
C42   C44   A    
C10   C51   A    
C12   C52   S    
C18   H20   S    
C15   H17   S    
C33   C40   A    
C18   C27   A    
C12   O2    A    
C17   O6    A    
C19   H21   S    
C4    C6    A    
C36   H5    S    
O6    Zn2   S    
C41   H26   S    
C5    C7    A    
O5    Zn1   S    
C6    C8    A    
C25   C26   A    
C35   C39   A    
C16   C33   S    
C47   C48   A    
C20   H22   S    
C19   C28   A    
C8    C10   A    
C20   C22   A    
C40   H2    S    
C13   C15   A    
C10   C14   A    
C16   O5    A    
C36   C44   A    
C1    O3    A    
O4    Zn1   S    
C21   C24   A    
C44   C45   A    
C29   H18   S    
C13   H15   S    
C7    C9    A    
O3    Zn2   S    
C34   C49   A    
C23   C48   A    
C20   N1    A    
C27   C32   A    
C28   C31   A    
C9    C50   A    
C3    C5    A    
C3    C52   A    
C3    H11   S    
C25   C27   A    
C21   H23   S    
C26   C28   A    
C33   C38   A    
O2    Zn2   S    
C36   C38   A    
C9    C15   A    
C37   C39   A    
C6    C13   A    
C30   C32   A    
C31   H24   S    
C21   N2    A    
C42   C47   A    
N2    Zn2   S    
C19   N2    A    
C35   C41   A    
C43   C46   A    
C24   C30   A    
N1    Zn1   S    
C2    C51   A    
C38   H4    S    
O8    Zn1   S    
C29   C31   A    
O7    Zn2   S    
C50   H9    S    
C14   H16   S    
C34   C47   A    
C17   C35   S    
C37   C46   A    
