data_mof_unit_18178.cif
_audit_creation_date              2012-12-11T15:13:44-0500
_audit_creation_method            fapswitch 2.2
_symmetry_space_group_name_H-M    P1
_symmetry_Int_Tables_number       1
_space_group_crystal_system       triclinic
_cell_length_a                    6.976918
_cell_length_b                    13.550822
_cell_length_c                    20.19604
_cell_angle_alpha                 104.117219
_cell_angle_beta                  89.909772
_cell_angle_gamma                 89.911276
_cell_volume                      1851.72165006

loop_
_atom_site_label
_atom_site_type_symbol
_atom_type_description
_atom_site_fract_x
_atom_site_fract_y
_atom_site_fract_z
_atom_type_partial_charge
O1    O     O_R   0.506780 0.600060 0.449950 -0.540265
O2    O     O_R   0.179840 0.597110 0.589410 -0.526305
O3    O     O_R   0.004570 0.399940 0.550050 -0.524275
C1    C     C_R   0.347957 0.618607 0.616939 0.794178
O4    O     O_R   0.177380 0.612160 0.452890 -0.523510
O5    O     O_R   0.002100 0.415100 0.412560 -0.530392
C2    C     C_R   0.346011 0.638163 0.435522 0.781285
O6    O     O_R   0.509250 0.584900 0.587440 -0.525154
O7    O     O_3   0.337570 0.435330 0.486930 -0.369319
V1    V     V_3+5 0.064650 0.512000 0.502430 1.637021
O8    O     O_R   0.672090 0.402890 0.410590 -0.549012
C3    C     C_R   0.842170 0.379007 0.383828 0.772663
O9    O     O_R   0.674540 0.387840 0.547110 -0.539019
C4    C     C_R   0.844317 0.363103 0.565193 0.768292
V2    V     V_3+5 0.564040 0.488000 0.497570 1.597905
O10   O     O_3   0.840990 0.564670 0.513070 -0.354231
C5    C     C_R   0.977926 0.119425 0.611487 -0.111752
H1    H     H_    0.964916 0.985294 0.685665 0.173225
H2    H     H_    0.050045 0.048490 0.588105 0.169780
C6    C     C_R   0.861542 0.284160 0.603319 -0.101800
C7    C     C_R   0.820282 0.312907 0.928568 -0.184530
C8    C     C_R   0.789792 0.386931 0.893021 -0.063153
C9    C     C_R   0.791232 0.361517 0.822081 -0.069486
C10   C     C_R   0.823538 0.260299 0.784584 0.048544
C11   C     C_R   0.852509 0.182887 0.820993 0.008605
C12   C     C_R   0.840558 0.235258 0.712025 0.078986
C13   C     C_R   0.912018 0.138167 0.678661 0.027907
C14   C     C_R   0.924792 0.061663 0.713183 -0.159564
C15   C     C_R   0.885341 0.081134 0.782482 0.184577
C16   C     C_R   0.798906 0.304312 0.671327 -0.193216
C17   C     C_R   0.968351 0.195504 0.576453 0.282362
C18   C     C_R   0.851819 0.211636 0.893885 -0.077563
H3    H     H_    0.726375 0.375701 0.691849 0.144461
H4    H     H_    0.818018 0.334684 0.983828 0.146459
H5    H     H_    0.774292 0.423409 0.797788 0.169289
H6    H     H_    0.766662 0.465037 0.920842 0.163532
C19   C     C_3   0.742736 0.172603 0.243623 -0.179952
C20   C     C_3   0.918030 0.195767 0.291140 0.195858
H7    H     H_    0.651021 0.105115 0.239050 0.168702
C21   C     C_3   0.855431 0.309033 0.312982 -0.159275
C22   C     C_3   0.680302 0.286093 0.265496 -0.091360
C23   C     C_3   0.800193 0.307594 0.206055 0.191203
C24   C     C_3   0.975367 0.332564 0.254027 -0.186679
C25   C     C_3   0.034544 0.219295 0.232257 0.244784
C26   C     C_3   0.861443 0.194929 0.184992 -0.126150
H8    H     H_    0.535730 0.317596 0.280905 0.186984
H9    H     H_    0.078884 0.395193 0.256980 0.200697
C27   C     C_3   0.534370 0.740871 0.723903 0.300496
C28   C     C_3   0.421444 0.841569 0.747469 -0.161364
H10   H     H_    0.472774 0.918068 0.744962 0.182698
C29   C     C_3   0.361379 0.809696 0.812969 -0.160233
C30   C     C_3   0.477014 0.709919 0.789928 0.130145
C31   C     C_3   0.297032 0.657075 0.753348 0.230714
C32   C     C_3   0.181133 0.756758 0.777161 -0.068512
C33   C     C_3   0.240959 0.788216 0.710914 -0.136801
C34   C     C_3   0.355128 0.688155 0.687733 -0.159246
H11   H     H_    0.036937 0.760381 0.800648 0.227376
H12   H     H_    0.149063 0.822195 0.677558 0.193026
C35   C     C_R   0.475408 0.886150 0.392444 0.210188
H13   H     H_    0.511368 0.010136 0.306212 0.177946
C36   C     C_R   0.359641 0.719192 0.398507 -0.148308
C37   C     C_R   0.323159 0.684618 0.071222 -0.158256
C38   C     C_R   0.316054 0.609090 0.107054 -0.076910
C39   C     C_R   0.333204 0.634111 0.177980 -0.061861
C40   C     C_R   0.351747 0.736356 0.215343 0.116762
C41   C     C_R   0.378029 0.811652 0.177825 0.055669
C42   C     C_R   0.361859 0.764567 0.288445 0.013782
C43   C     C_R   0.435418 0.862006 0.321429 0.016846
C44   C     C_R   0.464638 0.933887 0.282792 -0.065683
C45   C     C_R   0.430387 0.910187 0.212907 -0.167024
C46   C     C_R   0.298961 0.700473 0.330181 0.153648
C47   C     C_R   0.447786 0.812063 0.429798 0.086080
C48   C     C_R   0.357143 0.785742 0.105637 -0.084956
H14   H     H_    0.307758 0.663760 0.016173 0.138085
H15   H     H_    0.340948 0.571909 0.202572 0.175057
H16   H     H_    0.299187 0.530319 0.079626 0.155286
H17   H     H_    0.453973 0.968585 0.185776 0.147870
O11   O     O_R   0.203580 0.914920 0.912610 -0.526598
O12   O     O_R   0.535710 0.887810 0.047120 -0.543376
O13   O     O_R   0.710730 0.084950 0.087430 -0.535889
C49   C     C_R   0.367241 0.862679 0.065192 0.696598
O14   O     O_R   0.533010 0.902850 0.910600 -0.515542
O15   O     O_R   0.708010 0.100090 0.949930 -0.531521
C50   C     C_R   0.365332 0.880577 0.883315 0.782116
O16   O     O_R   0.206300 0.899780 0.050100 -0.537030
O17   O     O_3   0.375170 0.064580 0.013100 -0.363950
V3    V     V_3+5 0.648200 0.988020 0.997570 1.568835
O18   O     O_R   0.038030 0.112330 0.952840 -0.537246
C51   C     C_R   0.868136 0.138342 0.936038 0.765150
O19   O     O_R   0.040730 0.097300 0.089360 -0.519101
C52   C     C_R   0.871128 0.122583 0.115299 0.753216
V4    V     V_3+5 0.148780 0.012220 0.002360 1.568911
O20   O     O_3   0.871930 0.935430 0.986900 -0.357444
Br1   Br    Br    0.127076 0.181075 0.497975 -0.447348
I1    I     I_    0.703222 0.398297 0.140092 -0.428653
Br2   Br    Br    0.289226 0.171963 0.206149 -0.590373
Br3   Br    Br    0.782464 0.728314 0.680691 -0.513454
I2    I     I_    0.667080 0.651532 0.854012 -0.373781
Br4   Br    Br    0.203513 0.523878 0.757028 -0.536238
I3    I     I_    0.520976 0.842447 0.536080 -0.321941
I4    I     I_    0.583094 0.032718 0.444511 -0.237689
Br5   Br    Br    0.086060 0.608495 0.303085 -0.579035
Br6   Br    Br    0.875409 0.960562 0.815828 -0.564336
I5    I     I_    0.006581 0.072928 0.332338 -0.288139

loop_
_geom_bond_atom_site_label_1
_geom_bond_atom_site_label_2
_ccdc_geom_bond_type
O15   V3    S    
C33   C34   S    
C22   C23   S    
C1    O6    A    
O12   V3    S    
C6    C16   A    
C31   C32   S    
C31   Br4   S    
C27   Br3   S    
C12   C13   A    
C19   C20   S    
C14   C15   A    
C10   C12   A    
O13   V3    S    
O5    C3    A    
C38   H16   S    
O14   V3    S    
C15   Br6   S    
C28   H10   S    
C2    C36   S    
C20   I5    S    
O8    V2    S    
C21   C24   S    
O18   V4    S    
C43   C44   A    
C40   C42   A    
C22   H8    S    
C37   C48   A    
O1    V2    S    
O7    V1    S    
C35   C47   A    
C36   C46   A    
C11   C18   A    
C7    C8    A    
C1    C34   S    
C45   H17   S    
C48   C49   S    
O16   V4    S    
C11   C15   A    
O15   C51   A    
C7    C18   A    
C23   I1    S    
C5    C13   A    
C4    C6    S    
H1    C14   S    
C10   C11   A    
O4    C2    A    
O17   V3    S    
C7    H4    S    
C28   C29   S    
C28   C33   S    
C41   C48   A    
C42   C43   A    
C23   C26   S    
C35   I4    S    
C3    C21   S    
O2    C1    A    
C24   C25   S    
C20   C25   S    
C37   C38   A    
C25   Br2   S    
C35   C43   A    
O19   V4    S    
C18   C51   S    
C27   C30   S    
C9    C10   A    
O3    C4    A    
C36   C47   A    
C27   C28   S    
C46   Br5   S    
C12   C16   A    
O6    V2    S    
O14   C50   A    
O9    V2    S    
C5    C17   A    
C23   C24   S    
C19   C26   S    
O2    V1    S    
C30   C31   S    
O12   C49   A    
C47   I3    S    
C31   C34   S    
C27   C34   S    
C32   C33   S    
C21   C22   S    
C16   H3    S    
O1    C2    A    
C25   C26   S    
O5    V1    S    
O8    C3    A    
C17   Br1   S    
C8    H6    S    
C9    H5    S    
C29   C32   S    
O11   V4    S    
C39   C40   A    
O13   C52   A    
O7    V2    S    
C29   C30   S    
C19   H7    S    
O3    V1    S    
V1    O10   S    
C20   C21   S    
O19   C52   A    
C41   C45   A    
H13   C44   S    
V3    O20   S    
C30   I2    S    
V4    O20   S    
C5    H2    S    
C39   H15   S    
C42   C46   A    
C19   C22   S    
C44   C45   A    
C26   C52   S    
C38   C39   A    
O11   C50   A    
O4    V1    S    
O18   C51   A    
C40   C41   A    
C33   H12   S    
C13   C14   A    
C8    C9    A    
C37   H14   S    
O17   V4    S    
O9    C4    A    
C24   H9    S    
C29   C50   S    
C6    C17   A    
C49   O16   A    
V2    O10   S    
C32   H11   S    
