data_mof_unit_43492.cif
_audit_creation_date              2012-12-11T15:37:13-0500
_audit_creation_method            fapswitch 2.2
_symmetry_space_group_name_H-M    P1
_symmetry_Int_Tables_number       1
_space_group_crystal_system       triclinic
_cell_length_a                    8.546747
_cell_length_b                    17.392544
_cell_length_c                    18.958292
_cell_angle_alpha                 96.622991
_cell_angle_beta                  95.919699
_cell_angle_gamma                 97.447013
_cell_volume                      2755.70520049

loop_
_atom_site_label
_atom_site_type_symbol
_atom_type_description
_atom_site_fract_x
_atom_site_fract_y
_atom_site_fract_z
_atom_type_partial_charge
Ba1   Ba    Ba6+2 0.162080 0.538580 0.468810 1.900710
Ba2   Ba    Ba6+2 0.648090 0.461410 0.531130 1.851390
C1    C     C_3   0.432800 0.840137 0.229566 -0.287422
C2    C     C_3   0.668227 0.782838 0.448277 0.142684
C3    C     C_2   0.728529 0.869318 0.471300 -0.127281
C4    C     C_3   0.009977 0.747750 0.314047 0.428593
C5    C     C_2   0.864304 0.891317 0.518006 -0.012550
C6    C     C_2   0.929782 0.828498 0.554984 0.049321
C7    C     C_1   0.883360 0.753593 0.532227 -0.064985
C8    C     C_R   0.088895 0.158233 0.568597 -0.044198
C9    C     C_R   0.153627 0.235921 0.569366 -0.004057
C10   C     C_R   0.927415 0.253724 0.485124 0.042663
C11   C     C_R   0.871096 0.173022 0.481012 -0.041846
C12   C     C_3   0.437300 0.766713 0.269632 0.913356
C13   C     C_R   0.953092 0.123324 0.521615 0.106559
C14   C     C_2   0.956972 0.973840 0.531197 0.487497
C15   C     C_2   0.885041 0.037504 0.515871 0.022229
C16   C     C_3   0.057651 0.825206 0.282318 0.526381
C17   C     C_R   0.072154 0.283646 0.527897 -0.248843
C18   C     C_R   0.613332 0.520449 0.300218 -0.219410
C19   C     C_R   0.458592 0.485863 0.275312 0.079049
C20   C     C_R   0.405767 0.475206 0.202159 -0.028444
C21   C     C_R   0.509942 0.495682 0.152376 0.024359
C22   C     C_R   0.666878 0.530594 0.178575 -0.045466
C23   C     C_3   0.568014 0.705878 0.713330 0.648269
C24   C     C_R   0.716735 0.543941 0.252421 0.090830
C25   C     C_R   0.496423 0.549911 0.035588 -0.008830
C26   C     C_R   0.435342 0.548344 0.964239 -0.041537
C27   C     C_R   0.327931 0.484345 0.928890 0.050612
C28   C     C_3   0.739193 0.349557 0.302656 0.361887
C29   C     C_R   0.281618 0.422382 0.967133 -0.008590
C30   C     C_R   0.343227 0.423009 0.038650 0.195116
C31   C     C_R   0.450428 0.488212 0.074547 0.022736
C32   C     C_R   0.121480 0.442357 0.822117 -0.109182
C33   C     C_R   0.075429 0.433953 0.748469 0.036203
C34   C     C_3   0.583950 0.752402 0.789944 0.243614
C35   C     C_R   0.338054 0.494606 0.730024 0.037026
C36   C     C_R   0.380179 0.506854 0.804060 -0.024585
C37   C     C_R   0.275023 0.478559 0.850856 0.042075
C38   C     C_R   0.184619 0.458633 0.702320 -0.185404
C39   C     C_3   0.710715 0.318970 0.221890 0.452975
C40   C     C_3   0.998557 0.719197 0.710053 0.300214
C41   C     C_3   0.137802 0.782827 0.741165 0.262404
C42   C     C_3   0.287272 0.293940 0.367960 0.221503
C43   C     C_3   0.347334 0.218265 0.341285 0.293551
C44   C     C_3   0.923638 0.247932 0.696705 0.445347
C45   C     C_3   0.923466 0.168096 0.724795 0.479732
C46   C     C_3   0.417290 0.237307 0.747704 0.268053
C47   C     C_3   0.409318 0.249780 0.829093 0.569759
C48   C     C_2   0.759050 0.726967 0.484320 -0.116062
H1    H     H_    0.640535 0.358268 0.194083 -0.117331
H2    H     H_    0.541471 0.857535 0.204556 0.144642
H3    H     H_    0.675584 0.678834 0.707172 -0.087671
H4    H     H_    0.478599 0.733265 0.816701 0.028442
H5    H     H_    0.684543 0.734682 0.822808 0.044436
H6    H     H_    0.420082 0.891931 0.267540 0.138771
H7    H     H_    0.887775 0.238439 0.638249 0.013155
H8    H     H_    0.048645 0.277550 0.707588 -0.313742
H9    H     H_    0.028258 0.143472 0.707341 -0.086389
H10   H     H_    0.540704 0.229940 0.738639 0.162251
H11   H     H_    0.336913 0.182855 0.724527 0.001852
H12   H     H_    0.895199 0.746183 0.690221 0.020381
H13   H     H_    0.294771 0.270440 0.838396 -0.034822
H14   H     H_    0.114298 0.731269 0.344728 0.027614
H15   H     H_    0.760112 0.026362 0.495489 0.014507
H16   H     H_    0.000347 0.845068 0.606450 0.111692
H17   H     H_    0.146041 0.127668 0.606760 0.142732
H18   H     H_    0.675337 0.910454 0.441105 0.098551
H19   H     H_    0.762784 0.149092 0.446410 0.102899
H20   H     H_    0.730828 0.665336 0.463626 0.061316
H21   H     H_    0.121483 0.344346 0.529345 0.058948
H22   H     H_    0.496840 0.537989 0.824838 0.073739
H23   H     H_    0.159732 0.822439 0.700678 0.059267
H24   H     H_    0.927139 0.755332 0.354296 0.047475
H25   H     H_    0.472294 0.597695 0.936877 0.083074
H26   H     H_    0.578236 0.600781 0.060627 0.138162
H27   H     H_    0.283062 0.451680 0.184586 0.150839
H28   H     H_    0.204741 0.370725 0.940136 0.100387
H29   H     H_    0.036363 0.422298 0.856855 0.073180
H30   H     H_    0.749661 0.548520 0.142018 0.068710
H31   H     H_    0.147655 0.453858 0.645460 0.029299
H32   H     H_    0.654769 0.528309 0.356855 0.042245
H33   H     H_    0.167380 0.817493 0.262721 -0.017959
H34   H     H_    0.244936 0.754452 0.751462 0.099774
H35   H     H_    0.623302 0.359029 0.320942 -0.172021
H36   H     H_    0.820707 0.405901 0.311531 -0.023627
H37   H     H_    0.107322 0.650653 0.143544 0.378004
H38   H     H_    0.913830 0.425856 0.138995 0.324396
H39   H     H_    0.183891 0.943384 0.770356 0.382997
H40   H     H_    0.481875 0.057869 0.415698 0.353434
H41   H     H_    0.637385 0.751909 0.161905 0.348716
H42   H     H_    0.633041 0.875125 0.620039 0.377025
H43   H     H_    0.799718 0.950370 0.797505 0.427301
H44   H     H_    0.587178 0.071563 0.593880 0.388640
H45   H     H_    0.161835 0.281091 0.378526 0.026982
H46   H     H_    0.224799 0.088646 0.795676 0.336949
H47   H     H_    0.821140 0.334019 0.898437 0.360591
H48   H     H_    0.351634 0.910460 0.567022 0.387946
H49   H     H_    0.341636 0.922668 0.397073 0.349882
H50   H     H_    0.360928 0.322192 0.417993 0.059750
H51   H     H_    0.334679 0.831995 0.185096 0.152187
H52   H     H_    0.282187 0.193088 0.288172 0.127780
H53   H     H_    0.475143 0.232050 0.336243 0.036408
I1    I     I_    0.579287 0.203395 0.198818 -0.092046
I2    I     I_    0.950821 0.641935 0.789104 -0.379926
I3    I     I_    0.945196 0.851972 0.182894 -0.063281
I4    I     I_    0.964849 0.174571 0.838538 -0.105495
I5    I     I_    0.285969 0.316820 0.081993 -0.129572
O1    O     O_2   0.166667 0.691630 0.546720 -0.356069
O2    O     O_2   0.748449 0.437169 0.744702 -0.401176
O3    O     O_3   0.819937 0.294013 0.728598 -0.559562
O4    O     O_3   0.893830 0.593690 0.541700 -0.473396
O5    O     O_3   0.426330 0.460710 0.414310 -0.516614
O6    O     O_2   0.638540 0.536570 0.671920 -0.462014
O7    O     O_3   0.434167 0.649321 0.706936 -0.672680
O8    O     O_2   0.477322 0.219679 0.605691 -0.379525
O9    O     O_3   0.370374 0.300631 0.714134 -0.636604
O10   O     O_3   0.390350 0.644650 0.417800 -0.417796
O11   O     O_2   0.355169 0.783797 0.473733 -0.389475
O12   O     O_3   0.293635 0.338729 0.311256 -0.617769
O13   O     O_3   0.049790 0.668953 0.656721 -0.597220
O14   O     O_3   0.373465 0.781638 0.336904 -0.682739
O15   O     O_2   0.171750 0.463380 0.328050 -0.401074
O16   O     O_3   0.965290 0.605410 0.380210 -0.523374
O17   O     O_2   0.033110 0.547922 0.252315 -0.406882
O18   O     O_2   0.412443 0.648937 0.158249 -0.327707
O19   O     O_2   0.296811 0.623229 0.266132 -0.297421
O20   O     O_3   0.153777 0.700494 0.173476 -0.525764
O21   O     O_2   0.002573 0.274633 0.225661 -0.217024
O22   O     O_2   0.856263 0.273399 0.107697 -0.183945
O23   O     O_3   0.948931 0.687401 0.257782 -0.513724
O24   O     O_3   0.978855 0.407272 0.178145 -0.526347
O25   O     O_2   0.966637 0.814598 0.853456 -0.210177
O26   O     O_2   0.255402 0.840661 0.876991 -0.176072
O27   O     O_3   0.110732 0.935253 0.806867 -0.402184
O28   O     O_2   0.398942 0.182029 0.472703 -0.308423
O29   O     O_2   0.157315 0.113934 0.398820 -0.220404
O30   O     O_3   0.432175 0.074425 0.371444 -0.462133
O31   O     O_2   0.731062 0.825747 0.310527 -0.379037
O32   O     O_2   0.655504 0.686418 0.322475 -0.432388
O33   O     O_3   0.688976 0.721470 0.196170 -0.465397
O34   O     O_2   0.643630 0.308330 0.453260 -0.482796
O35   O     O_2   0.527617 0.703110 0.573657 -0.344426
O36   O     O_2   0.382909 0.791643 0.640672 -0.286074
O37   O     O_3   0.684280 0.833648 0.640913 -0.535587
O38   O     O_2   0.471784 0.888048 0.763640 -0.202926
O39   O     O_2   0.616986 0.884570 0.880607 -0.170378
O40   O     O_3   0.777994 0.895771 0.773436 -0.389973
O41   O     O_2   0.808889 0.018120 0.679773 -0.289676
O42   O     O_2   0.631133 0.095339 0.740506 -0.185396
O43   O     O_3   0.673702 0.115667 0.610108 -0.545988
O44   O     O_2   0.585106 0.150167 0.890948 -0.102332
O45   O     O_3   0.916470 0.406310 0.458240 -0.512442
O46   O     O_2   0.326117 0.161218 0.931083 -0.187882
O47   O     O_3   0.337063 0.081847 0.807493 -0.427612
O48   O     O_2   0.561123 0.398671 0.849113 -0.324268
O49   O     O_2   0.550497 0.330204 0.954477 -0.261024
O50   O     O_3   0.744668 0.295416 0.865061 -0.452777
O51   O     O_2   0.262511 0.038837 0.526670 -0.239183
O52   O     O_2   0.186501 0.008166 0.643239 -0.312986
O53   O     O_3   0.236023 0.896791 0.551623 -0.458480
O54   O     O_2   0.169614 0.976788 0.303932 -0.196419
O55   O     O_2   0.956643 0.935927 0.373012 -0.246605
O56   O     O_3   0.419940 0.355340 0.582140 -0.467392
O57   O     O_3   0.237441 0.902173 0.411107 -0.459502
O58   O     O_3   0.805926 0.294654 0.340148 -0.606447
O59   O     O_3   0.383960 0.539280 0.585630 -0.422300
O60   O     O_3   0.845010 0.394580 0.619730 -0.491034
P1    P     P_3+3 0.992230 0.679190 0.566750 1.065454
P2    P     P_3+3 0.339610 0.439630 0.337240 1.059049
P3    P     P_3+3 0.915471 0.595228 0.287496 1.111798
P4    P     P_3+3 0.818060 0.320800 0.433200 1.012181
P5    P     P_3+3 0.871594 0.390932 0.711554 1.079631
P6    P     P_3+3 0.449799 0.746522 0.417034 1.148088
P7    P     P_3+3 0.459273 0.553071 0.675411 1.040708
P8    P     P_3+3 0.351822 0.274231 0.620472 1.042025
S1    S     S_3+6 0.324237 0.682191 0.215839 -0.075069
S2    S     S_3+6 0.566846 0.321649 0.875994 -0.012536
S3    S     S_3+6 0.164364 0.981917 0.564027 -0.043857
S4    S     S_3+6 0.102443 0.912809 0.343784 0.000567
S5    S     S_3+6 0.891472 0.316296 0.182372 0.006566
S6    S     S_3+6 0.115359 0.842469 0.822682 0.060340
S7    S     S_3+6 0.329146 0.145989 0.399131 -0.025136
S8    S     S_3+6 0.634920 0.749881 0.277072 -0.121246
S9    S     S_3+6 0.537275 0.759876 0.640123 -0.054626
S10   S     S_3+6 0.609033 0.857788 0.801881 0.096060
S11   S     S_3+6 0.754412 0.096933 0.689604 -0.044894
S12   S     S_3+6 0.416370 0.159693 0.867107 0.087471

loop_
_geom_bond_atom_site_label_1
_geom_bond_atom_site_label_2
_ccdc_geom_bond_type
C41   H23   S    
O13   P1    S    
C6    H16   S    
C47   H13   S    
C18   H32   S    
C42   H50   S    
C7    P1    S    
O44   S12   D    
Ba1   O15   S    
C5    C6    S    
C10   P4    S    
C8    H17   S    
C25   C31   A    
O43   S11   S    
O16   P3    S    
Ba2   O4    S    
C9    P8    S    
O32   S8    D    
C11   H19   S    
H43   O40   S    
H39   O27   S    
O34   P4    D    
C26   C27   A    
C23   H3    S    
C32   C33   A    
C35   C38   A    
O47   S12   S    
C23   O7    S    
O11   P6    D    
C36   C37   A    
C32   H29   S    
Ba2   O5    S    
H46   O47   S    
C42   O12   S    
O40   S10   S    
C19   P2    S    
Ba1   P2    S    
C10   C17   A    
O18   S1    D    
Ba1   Ba2   S    
C4    H14   S    
O7    P7    S    
C43   H53   S    
Ba1   O1    S    
C17   H21   S    
C22   H30   S    
O4    P1    S    
C14   C15   D    
C21   C31   S    
C21   C22   A    
C28   C39   S    
C46   H10   S    
C28   H36   S    
C40   H12   S    
O54   S4    D    
C14   S3    S    
O49   S2    D    
C1    H51   S    
C16   S4    S    
C2    P6    S    
C44   O3    S    
C44   H8    S    
C41   H34   S    
O35   S9    D    
C39   S5    S    
Ba1   O5    S    
O26   S6    D    
C3    H18   S    
H37   O20   S    
H40   O30   S    
O1    P1    D    
C4    H24   S    
O36   S9    D    
O39   S10   D    
O60   P5    S    
C4    C16   S    
C36   H22   S    
O8    P8    D    
C32   C37   A    
O19   S1    D    
C28   O58   S    
C8    C9    A    
Ba2   O56   S    
O42   S11   D    
C3    C5    D    
C6    C7    D    
H44   O43   S    
O14   P6    S    
O46   S12   D    
O58   P4    S    
O37   S9    S    
C33   P5    S    
C16   I3    S    
O52   S3    D    
C35   C36   A    
O24   S5    S    
C35   P7    S    
C1    H6    S    
C29   C30   A    
C9    C17   A    
C27   C37   S    
O28   S7    D    
C16   H33   S    
C18   C19   A    
C28   H35   S    
Ba1   O45   S    
O30   S7    S    
O5    P2    S    
C1    C12   S    
C23   S9    S    
C12   O14   S    
O29   S7    D    
O9    P8    S    
C46   C47   S    
C24   P3    S    
O41   S11   D    
Ba2   O45   S    
C45   I4    S    
C11   C13   A    
C44   H7    S    
Ba2   O34   S    
O53   S3    S    
C40   C41   S    
H38   O24   S    
C45   S11   S    
C25   H26   S    
Ba2   O60   S    
C25   C26   A    
H48   O53   S    
C42   C43   S    
C43   S7    S    
C29   H28   S    
O59   P7    S    
C47   S2    S    
O2    P5    D    
C13   C15   S    
O21   S5    D    
C44   C45   S    
O6    P7    D    
O48   S2    D    
H42   O37   S    
O3    P5    S    
C38   H31   S    
O38   S10   D    
C5    C14   S    
C7    C48   D    
C20   H27   S    
C22   C24   A    
C4    O23   S    
O22   S5    D    
C12   S8    S    
C1    H2    S    
C46   O9    S    
O23   P3    S    
C41   S6    S    
C15   H15   S    
C39   I1    S    
C8    C13   A    
O33   S8    S    
H47   O50   S    
C33   C38   A    
O50   S2    S    
Ba1   O16   S    
Ba1   O4    S    
C42   H45   S    
C30   C31   A    
Ba2   O6    S    
O12   P2    S    
C46   H11   S    
C47   S12   S    
C18   C24   A    
C12   S1    S    
O45   P4    S    
Ba1   P1    S    
O56   P8    S    
C34   S10   S    
Ba1   O10   S    
C48   H20   S    
O17   P3    D    
C40   I2    S    
O15   P2    D    
C34   H4    S    
C43   H52   S    
C23   C34   S    
C45   H9    S    
O25   S6    D    
C2    C3    S    
O51   S3    D    
C10   C11   A    
O10   P6    S    
C27   C29   A    
C30   I5    S    
C2    C48   S    
O55   S4    D    
C34   H5    S    
O57   S4    S    
Ba1   O59   S    
C20   C21   A    
O20   S1    S    
O27   S6    S    
H41   O33   S    
C19   C20   A    
C26   H25   S    
Ba2   O59   S    
C39   H1    S    
O31   S8    D    
C40   O13   S    
Ba2   P4    S    
H49   O57   S    
