data_mof_unit_17783.cif
_audit_creation_date              2012-12-11T15:32:36-0500
_audit_creation_method            fapswitch 2.2
_symmetry_space_group_name_H-M    P1
_symmetry_Int_Tables_number       1
_space_group_crystal_system       triclinic
_cell_length_a                    6.95459
_cell_length_b                    20.464247
_cell_length_c                    24.389264
_cell_angle_alpha                 89.565497
_cell_angle_beta                  90.693165
_cell_angle_gamma                 89.474442
_cell_volume                      3470.58817392

loop_
_atom_site_label
_atom_site_type_symbol
_atom_type_description
_atom_site_fract_x
_atom_site_fract_y
_atom_site_fract_z
_atom_type_partial_charge
O1    O     O_R   0.507320 0.423560 0.460500 -0.536376
O2    O     O_R   0.170760 0.556250 0.437010 -0.537488
O3    O     O_R   0.004030 0.576440 0.539500 -0.536698
C1    C     C_R   0.338440 0.576550 0.421146 0.726434
O4    O     O_R   0.177370 0.422820 0.454110 -0.537757
O5    O     O_R   0.010680 0.442050 0.556720 -0.535268
C2    C     C_R   0.346075 0.398951 0.443356 0.703054
O6    O     O_R   0.500680 0.557950 0.443280 -0.534887
O7    O     O_3   0.340380 0.506470 0.533650 -0.366967
V1    V     V_3+5 0.064130 0.498800 0.493760 1.426061
O8    O     O_R   0.681160 0.443750 0.562990 -0.537796
C3    C     C_R   0.851094 0.423638 0.578841 0.726305
O9    O     O_R   0.674560 0.577180 0.545890 -0.536472
C4    C     C_R   0.842913 0.601246 0.556221 0.700823
V2    V     V_3+5 0.564560 0.501200 0.506240 1.427180
O10   O     O_3   0.838180 0.493530 0.466350 -0.367837
C5    C     C_R   0.968878 0.840078 0.908811 -0.061918
C6    C     C_R   0.848125 0.663663 0.586075 -0.043272
C7    C     C_R   0.946399 0.722277 0.906434 -0.157878
C8    C     C_R   0.952016 0.780076 0.935846 -0.215316
C9    C     C_R   0.974063 0.842266 0.850432 -0.077055
C10   C     C_R   0.936965 0.783692 0.819916 0.010704
C11   C     C_R   0.940055 0.723458 0.849040 0.150847
C12   C     C_R   0.894593 0.782111 0.761962 -0.001654
C13   C     C_R   0.898374 0.721619 0.733007 0.085666
C14   C     C_R   0.922874 0.663447 0.763924 -0.180488
C15   C     C_R   0.935730 0.664484 0.820781 -0.196236
C16   C     C_R   0.826513 0.837960 0.733744 -0.196254
C17   C     C_R   0.790076 0.838450 0.677251 -0.028484
C18   C     C_R   0.818560 0.780546 0.646856 0.012248
C19   C     C_R   0.867928 0.721115 0.674640 0.087903
C20   C     C_R   0.796217 0.780621 0.589215 -0.175199
C21   C     C_R   0.808133 0.723147 0.558834 0.166899
C22   C     C_R   0.882314 0.663191 0.642921 -0.253315
H1    H     H_    0.943376 0.618370 0.842930 0.115869
H2    H     H_    0.918611 0.616472 0.661055 0.099375
H3    H     H_    0.943031 0.676314 0.928772 0.112419
H4    H     H_    0.950478 0.777821 0.980253 0.108292
H5    H     H_    0.921325 0.615660 0.745822 0.117672
H6    H     H_    0.786786 0.881118 0.756279 0.178479
H7    H     H_    0.769805 0.825487 0.566636 0.115670
C23   C     C_3   0.946141 0.310230 0.768193 -0.139457
C24   C     C_3   0.090950 0.252186 0.771075 -0.141120
H8    H     H_    0.238696 0.253978 0.788746 0.110193
H9    H     H_    0.973989 0.360405 0.783137 0.108082
H10   H     H_    0.145252 0.222427 0.678673 0.116502
C25   C     C_1   0.960173 0.121819 0.875310 -0.149820
C26   C     C_1   0.864125 0.378010 0.624592 -0.192539
C27   C     C_3   0.784416 0.264779 0.788657 -0.147385
C28   C     C_3   0.928999 0.207364 0.790930 0.160898
C29   C     C_3   0.733299 0.247198 0.728526 -0.139419
C30   C     C_3   0.895254 0.292028 0.708676 0.163563
C31   C     C_3   0.878112 0.189143 0.731415 -0.109212
C32   C     C_3   0.039838 0.234607 0.710940 -0.136055
C33   C     C_1   0.946977 0.160184 0.837166 -0.045569
C34   C     C_1   0.877299 0.339401 0.662571 -0.060538
H11   H     H_    0.850276 0.138956 0.716487 0.148247
H12   H     H_    0.585555 0.245401 0.710854 0.114432
H13   H     H_    0.678990 0.276957 0.820921 0.106693
C35   C     C_3   0.533049 0.724299 0.213556 -0.146220
C36   C     C_3   0.336709 0.695426 0.230819 -0.173062
H14   H     H_    0.272492 0.649884 0.214673 0.115930
H15   H     H_    0.633277 0.702708 0.183437 0.109650
H16   H     H_    0.103887 0.776126 0.205638 0.117435
C37   C     C_1   0.347302 0.622449 0.375349 -0.191412
C38   C     C_1   0.477009 0.878254 0.125215 -0.193146
C39   C     C_3   0.580519 0.737134 0.274543 0.200698
C40   C     C_3   0.386827 0.708511 0.291524 0.160170
C41   C     C_3   0.489874 0.806193 0.270261 -0.135861
C42   C     C_3   0.439282 0.792842 0.209612 0.135843
C43   C     C_3   0.293781 0.777134 0.287422 -0.175153
C44   C     C_3   0.243479 0.764517 0.226196 -0.138378
C45   C     C_1   0.361917 0.661147 0.337473 -0.045520
C46   C     C_1   0.462968 0.839919 0.163403 -0.053831
H17   H     H_    0.195387 0.798897 0.317928 0.124758
H18   H     H_    0.554709 0.851593 0.286504 0.118914
C47   C     C_R   0.472279 0.161541 0.089198 -0.040218
C48   C     C_R   0.351374 0.337825 0.411646 -0.040994
C49   C     C_R   0.522497 0.278049 0.094306 -0.163123
C50   C     C_R   0.517870 0.220734 0.063998 -0.172388
C51   C     C_R   0.433156 0.159884 0.145676 -0.211794
C52   C     C_R   0.441536 0.217651 0.178020 0.088515
C53   C     C_R   0.485297 0.277071 0.150753 0.140627
C54   C     C_R   0.408769 0.218710 0.236148 0.060283
C55   C     C_R   0.416439 0.279176 0.265551 0.068549
C56   C     C_R   0.458138 0.336675 0.235748 -0.185335
C57   C     C_R   0.492575 0.335373 0.179820 -0.205538
C58   C     C_R   0.371607 0.161179 0.265958 -0.204241
C59   C     C_R   0.334254 0.162385 0.321660 -0.143235
C60   C     C_R   0.330413 0.221069 0.351012 0.112597
C61   C     C_R   0.380632 0.280241 0.323623 0.067054
C62   C     C_R   0.282758 0.221783 0.407689 0.007206
C63   C     C_R   0.296548 0.279957 0.437070 -0.239981
C64   C     C_R   0.392541 0.338190 0.355517 -0.213146
H19   H     H_    0.524912 0.380882 0.158969 0.120326
H20   H     H_    0.431371 0.384699 0.338192 0.094542
H21   H     H_    0.258937 0.280699 0.480119 0.101150
H22   H     H_    0.312371 0.115762 0.341511 0.176221
H23   H     H_    0.557116 0.323392 0.073559 0.110241
H24   H     H_    0.550159 0.222524 0.020663 0.102339
H25   H     H_    0.399209 0.112823 0.162899 0.095683
H26   H     H_    0.464552 0.384151 0.254275 0.121226
H27   H     H_    0.371480 0.113596 0.247452 0.126555
O11   O     O_R   0.323550 0.942140 0.056770 -0.539137
O12   O     O_R   0.647080 0.077200 0.045890 -0.541588
O13   O     O_R   0.813610 0.057920 0.943260 -0.536148
C65   C     C_R   0.478369 0.101053 0.056707 0.684311
O14   O     O_R   0.653470 0.943760 0.063000 -0.540819
O15   O     O_R   0.820050 0.923540 0.960490 -0.536765
C66   C     C_R   0.485761 0.923703 0.079052 0.714634
O16   O     O_R   0.317110 0.076520 0.039540 -0.541314
O17   O     O_3   0.483830 0.993580 0.966380 -0.360284
V3    V     V_3+5 0.760140 0.001190 0.006240 1.444581
O18   O     O_R   0.149510 0.922740 0.954070 -0.533831
C67   C     C_R   0.980610 0.899185 0.943099 0.782857
O19   O     O_R   0.143120 0.056170 0.936970 -0.529805
C68   C     C_R   0.973227 0.076458 0.921237 0.791237
V4    V     V_3+5 0.259690 0.998700 0.993700 1.464275
O20   O     O_3   0.986130 0.006420 0.033620 -0.378204
C69   C     C_3   0.772194 0.721612 0.302425 -0.811094
H28   H     H_    0.885938 0.750877 0.282969 0.210522
H29   H     H_    0.765022 0.733989 0.346588 0.216763
H30   H     H_    0.806675 0.668856 0.298147 0.215198
C70   C     C_3   0.776563 0.727873 0.497528 -0.792253
H31   H     H_    0.794433 0.680501 0.476365 0.201466
H32   H     H_    0.628827 0.746461 0.488678 0.209591
H33   H     H_    0.881503 0.762423 0.479736 0.208091
C71   C     C_2   0.210249 0.164264 0.438338 0.350653
H34   H     H_    0.243269 0.159051 0.481784 0.057131
O21   O     O_2   0.102927 0.124865 0.416846 -0.528214
C72   C     C_2   0.712142 0.899866 0.651967 0.385763
H35   H     H_    0.627244 0.899041 0.614470 0.044160
O22   O     O_2   0.739186 0.952687 0.673611 -0.519129
C73   C     C_2   0.047372 0.901779 0.822379 0.328118
H36   H     H_    0.127655 0.896861 0.784725 0.085839
O23   O     O_2   0.016418 0.956491 0.839946 -0.535323

loop_
_geom_bond_atom_site_label_1
_geom_bond_atom_site_label_2
_ccdc_geom_bond_type
C13   C19   A    
C53   C57   A    
C4    C6    S    
C7    C11   A    
C7    C8    A    
C3    C26   S    
C71   H34   S    
O18   C67   A    
C55   C61   A    
C51   H25   S    
C31   C32   S    
O12   C65   A    
C5    C67   S    
C14   C15   A    
C35   H15   S    
O12   V3    S    
C16   C17   A    
C70   H32   S    
O5    C3    A    
C1    C37   S    
C14   H5    S    
C16   H6    S    
C48   C63   A    
V2    O10   S    
C38   C46   T    
C5    C8    A    
C37   C45   T    
O19   C68   A    
C41   H18   S    
C17   C72   S    
C41   C43   S    
V4    O20   S    
C7    H3    S    
V3    O20   S    
O8    V2    S    
C35   C39   S    
C30   C32   S    
C27   C29   S    
C57   H19   S    
C42   C46   S    
C21   C70   S    
C20   H7    S    
O1    V2    S    
C11   C15   A    
C18   C20   A    
C39   C69   S    
C69   H30   S    
C1    O6    A    
O9    C4    A    
C50   H24   S    
C35   C42   S    
C36   H14   S    
C62   C71   S    
O17   V3    S    
C69   H29   S    
C51   C52   A    
O11   V4    S    
C43   H17   S    
C28   C31   S    
O13   V3    S    
C29   C30   S    
C54   C58   A    
C47   C65   S    
C12   C13   A    
O4    C2    A    
C31   H11   S    
C56   C57   A    
C73   O23   D    
C15   H1    S    
C40   C45   S    
C55   C56   A    
C5    C9    A    
C39   C40   S    
C35   C36   S    
C29   C31   S    
C23   H9    S    
O14   V3    S    
O2    C1    A    
C24   H8    S    
C17   C18   A    
C8    H4    S    
C24   C32   S    
C60   C62   A    
C47   C51   A    
H10   C32   S    
C19   C22   A    
C29   H12   S    
C54   C55   A    
C64   H20   S    
C6    C22   A    
O18   V4    S    
O3    C4    A    
C70   H33   S    
C36   C44   S    
C52   C53   A    
O6    V2    S    
C52   C54   A    
O16   V4    S    
O13   C68   A    
C10   C12   A    
C23   C24   S    
C72   H35   S    
C56   H26   S    
C63   H21   S    
C9    C73   S    
C58   H27   S    
C69   H28   S    
O11   C66   A    
C25   C33   T    
O7    V1    S    
C47   C50   A    
C49   H23   S    
C26   C34   T    
O1    C2    A    
C65   O16   A    
C12   C16   A    
C72   O22   D    
C71   O21   D    
O5    V1    S    
O8    C3    A    
O14   C66   A    
C24   C28   S    
C73   H36   S    
O15   V3    S    
C28   C33   S    
C27   H13   S    
C59   H22   S    
C20   C21   A    
O9    V2    S    
C13   C14   A    
O4    V1    S    
O3    V1    S    
V1    O10   S    
C61   C64   A    
O17   V4    S    
C36   C40   S    
C60   C61   A    
C18   C19   A    
C48   C64   A    
C40   C43   S    
C62   C63   A    
O19   V4    S    
C22   H2    S    
H16   C44   S    
O7    V2    S    
C41   C42   S    
C6    C21   A    
O15   C67   A    
C23   C27   S    
C2    C48   S    
C49   C50   A    
C49   C53   A    
C25   C68   S    
C43   C44   S    
C58   C59   A    
C38   C66   S    
C27   C28   S    
C10   C11   A    
C42   C44   S    
C39   C41   S    
C59   C60   A    
C9    C10   A    
C30   C34   S    
C23   C30   S    
C70   H31   S    
O2    V1    S    
