data_mof_unit_22021.cif
_audit_creation_date              2012-12-10T17:26:13-0500
_audit_creation_method            fapswitch 2.2
_symmetry_space_group_name_H-M    P1
_symmetry_Int_Tables_number       1
_space_group_crystal_system       triclinic
_cell_length_a                    10.172403
_cell_length_b                    10.563535
_cell_length_c                    27.581869
_cell_angle_alpha                 89.04887
_cell_angle_beta                  82.901104
_cell_angle_gamma                 94.98674
_cell_volume                      2928.87860065

loop_
_atom_site_label
_atom_site_type_symbol
_atom_type_description
_atom_site_fract_x
_atom_site_fract_y
_atom_site_fract_z
_atom_type_partial_charge
C1    C     C_R   0.555827 0.734210 0.495193 0.808541
C2    C     C_R   0.525083 0.622767 0.124488 -0.017267
C3    C     C_R   0.504243 0.508783 0.646598 -0.052237
C4    C     C_R   0.494356 0.504162 0.353650 -0.030151
C5    C     C_R   0.487185 0.643078 0.025247 0.066122
C6    C     C_R   0.385534 0.424818 0.980728 0.083209
C7    C     C_R   0.363124 0.431539 0.032225 -0.079992
C8    C     C_R   0.467099 0.651392 0.975558 -0.106099
C9    C     C_R   0.430671 0.534606 0.053833 0.040124
C10   C     C_R   0.433248 0.536484 0.952533 0.053851
C11   C     C_R   0.572343 0.733241 0.045967 -0.085268
C12   C     C_R   0.444126 0.265699 0.501835 0.812737
C13   C     C_R   0.374643 0.308442 0.956834 -0.056367
C14   C     C_R   0.590043 0.724020 0.094997 -0.104345
C15   C     C_R   0.395256 0.304036 0.906155 -0.090070
C16   C     C_R   0.501869 0.500705 0.593879 0.901528
C17   C     C_R   0.498151 0.500815 0.406218 0.832225
C18   C     C_R   0.486016 0.766488 0.947043 0.342021
C19   C     C_R   0.283243 0.338208 0.063347 0.395873
C20   C     C_2   0.587371 0.869800 0.485783 0.272859
C21   C     C_2   0.412824 0.130157 0.496140 0.294382
C22   C     C_2   0.495903 0.932842 0.466687 -0.215551
C23   C     C_R   0.450969 0.532323 0.901117 -0.054391
C24   C     C_2   0.501381 0.069846 0.466853 -0.228538
C25   C     C_2   0.930064 0.472611 0.509568 0.370934
C26   C     C_2   0.069545 0.528775 0.490540 0.354388
C27   C     C_R   0.509667 0.637807 0.821986 0.552230
C28   C     C_R   0.397960 0.419171 0.182843 0.564310
C29   C     C_R   0.449677 0.413805 0.826846 0.530765
C30   C     C_R   0.539512 0.612981 0.174125 0.529925
C31   C     C_R   0.587542 0.448022 0.721275 -0.083478
C32   C     C_R   0.560472 0.423998 0.273505 -0.071534
C33   C     C_R   0.590275 0.440885 0.670792 -0.113171
C34   C     C_R   0.445145 0.527641 0.103922 -0.054455
C35   C     C_R   0.566441 0.421576 0.323689 -0.195121
C36   C     C_R   0.414693 0.582968 0.673486 -0.176541
C37   C     C_R   0.419469 0.591116 0.333010 -0.120835
C38   C     C_R   0.410780 0.588704 0.723824 -0.080989
C39   C     C_R   0.413909 0.593795 0.283019 -0.090007
C40   C     C_R   0.497046 0.521351 0.747927 0.272971
C41   C     C_R   0.483762 0.509958 0.253278 0.282952
C42   C     C_R   0.490370 0.644351 0.872969 -0.096508
C43   C     C_R   0.381452 0.424634 0.133233 -0.101112
C44   C     C_R   0.503231 0.760857 0.896118 -0.151080
C45   C     C_R   0.297756 0.333271 0.113050 -0.158819
C46   C     C_R   0.431311 0.415756 0.877923 -0.038514
H1    H     H_    0.347097 0.636174 0.655599 0.186244
H2    H     H_    0.908092 0.890568 0.534267 0.412779
H3    H     H_    0.999005 0.706170 0.383275 0.394990
H4    H     H_    0.994406 0.316104 0.622592 0.388814
H5    H     H_    0.125054 0.542418 0.556689 0.221581
H6    H     H_    0.875758 0.458029 0.443329 0.213415
H7    H     H_    0.339574 0.644399 0.744271 0.164752
H8    H     H_    0.355380 0.660906 0.267266 0.159159
H9    H     H_    0.521590 0.848778 0.874581 0.230123
H10   H     H_    0.239608 0.259753 0.136304 0.232232
H11   H     H_    0.625298 0.354296 0.339197 0.168307
H12   H     H_    0.367325 0.658410 0.355281 0.209821
H13   H     H_    0.656359 0.379556 0.651185 0.224154
H14   H     H_    0.655607 0.796048 0.109568 0.207565
H15   H     H_    0.384263 0.212637 0.889206 0.229856
H16   H     H_    0.289323 0.853852 0.025252 0.376951
H17   H     H_    0.025770 0.244769 0.985406 0.400045
H18   H     H_    0.614963 0.359424 0.250372 0.161695
H19   H     H_    0.653827 0.394876 0.739808 0.167200
H20   H     H_    0.630386 0.808660 0.024043 0.205929
H21   H     H_    0.355894 0.219389 0.977123 0.240389
H22   H     H_    0.589583 0.121494 0.447170 0.196842
H23   H     H_    0.405027 0.883040 0.457123 0.226565
H24   H     H_    0.116594 0.095690 0.586768 0.398713
N1    N     N_R   0.488041 0.523909 0.800041 -0.355616
N2    N     N_R   0.475722 0.512688 0.202065 -0.359480
N3    N     N_2   0.842700 0.448890 0.480020 -0.193298
N4    N     N_2   0.157300 0.551110 0.519980 -0.188937
O1    O     O_R   0.431060 0.692470 0.504020 -0.589657
O2    O     O_2   0.335743 0.322313 0.211834 -0.520962
O3    O     O_2   0.616192 0.702876 0.194473 -0.529631
O4    O     O_2   0.427088 0.303303 0.804102 -0.530671
O5    O     O_2   0.171206 0.010437 0.493923 -0.244641
O6    O     O_2   0.302460 0.934556 0.555452 -0.287637
O7    O     O_3   0.196269 0.147100 0.570352 -0.494075
O8    O     O_2   0.817628 0.009184 0.457627 -0.253123
O9    O     O_2   0.704553 0.045074 0.539281 -0.237958
O10   O     O_3   0.827020 0.840157 0.526475 -0.495118
O11   O     O_2   0.219386 0.700034 0.430462 -0.294422
O12   O     O_R   0.568940 0.307530 0.495980 -0.595383
O13   O     O_2   0.137842 0.500287 0.394773 -0.316773
O14   O     O_3   0.972041 0.670915 0.416882 -0.542178
O15   O     O_2   0.858506 0.516333 0.603664 -0.328268
O16   O     O_2   0.776959 0.309942 0.572630 -0.243899
O17   O     O_3   0.022216 0.341852 0.587889 -0.549297
O18   O     O_2   0.586586 0.995802 0.972206 -0.272008
O19   O     O_2   0.373912 0.984563 0.939593 -0.304370
O20   O     O_3   0.374731 0.903529 0.028632 -0.492341
O21   O     O_2   0.177763 0.111754 0.037106 -0.257175
O22   O     O_2   0.029682 0.244039 0.085890 -0.259404
O23   O     O_R   0.651120 0.659650 0.491200 -0.540974
O24   O     O_3   0.096012 0.307568 0.994504 -0.547389
O25   O     O_R   0.348880 0.340350 0.508800 -0.545859
O26   O     O_R   0.389980 0.516390 0.577660 -0.614981
O27   O     O_R   0.610020 0.483610 0.422340 -0.628474
O28   O     O_R   0.610040 0.483570 0.564830 -0.529590
O29   O     O_R   0.389960 0.516430 0.435170 -0.548419
O30   O     O_2   0.549815 0.744256 0.794471 -0.524664
S1    S     S_3+6 0.267428 0.050413 0.529175 0.066848
S2    S     S_3+6 0.737357 0.946043 0.502296 0.090258
S3    S     S_3+6 0.104542 0.600156 0.431346 0.031096
S4    S     S_3+6 0.892124 0.410035 0.570095 0.030477
S5    S     S_3+6 0.456386 0.917205 0.971657 0.021802
S6    S     S_3+6 0.143607 0.245890 0.045505 0.039210
Zn1   Zn    Zn3+2 0.353060 0.521910 0.508560 1.104716
Zn2   Zn    Zn3+2 0.646940 0.478090 0.491440 1.104635

loop_
_geom_bond_atom_site_label_1
_geom_bond_atom_site_label_2
_ccdc_geom_bond_type
O24   S6    S    
C40   N1    S    
O28   Zn2   S    
C44   H9    S    
C18   S5    S    
C39   C41   A    
O27   Zn2   S    
C23   C42   A    
C5    C11   A    
H17   O24   S    
C11   C14   A    
O18   S5    D    
C39   H8    S    
C3    C33   A    
C27   O30   S    
C31   C40   A    
O5    S1    D    
C36   H1    S    
O29   Zn1   S    
H24   O7    S    
C17   O27   A    
C12   O25   A    
C30   O3    S    
C29   O4    S    
C45   H10   S    
O10   S2    S    
C32   C41   A    
C31   C33   A    
C22   H23   S    
C37   H12   S    
C11   H20   S    
C2    C34   A    
C4    C35   A    
C33   H13   S    
C23   C46   A    
H3    O14   S    
C28   N2    A    
C42   C44   A    
C20   S2    S    
O7    S1    S    
C1    O1    A    
C32   C35   A    
C32   H18   S    
H6    N3    S    
C1    O23   A    
N4    Zn1   S    
O14   S3    S    
C31   H19   S    
C16   O26   A    
C25   C26   S    
O22   S6    D    
O6    S1    D    
C8    C18   A    
H2    O10   S    
H5    N4    S    
O12   Zn2   S    
C5    C9    A    
C18   C44   A    
O25   Zn1   S    
C15   H15   S    
C43   C45   A    
C41   N2    S    
C4    C17   S    
C16   O28   A    
C20   C22   D    
C7    C19   A    
H16   O20   S    
C9    C34   A    
C22   C24   S    
C2    C30   A    
C28   O2    S    
C27   N1    A    
N3    Zn2   S    
C13   H21   S    
C19   S6    S    
O23   Zn2   S    
C1    C20   S    
O20   S5    S    
O17   S4    S    
C34   C43   A    
O21   S6    D    
C26   S3    S    
C6    C10   A    
C5    C8    A    
C30   N2    A    
C19   C45   A    
C6    C7    A    
C10   C23   A    
C14   H14   S    
C28   C43   A    
O1    Zn1   S    
O9    S2    D    
C12   O12   A    
C29   C46   A    
C35   H11   S    
C13   C15   A    
C17   O29   A    
O16   S4    D    
C37   C39   A    
C6    C13   A    
C38   C40   A    
C27   C42   A    
C38   H7    S    
C3    C36   A    
C12   C21   S    
O15   S4    D    
C36   C38   A    
C26   N4    D    
C25   N3    D    
O8    S2    D    
C2    C14   A    
C24   H22   S    
C7    C9    A    
H4    O17   S    
O13   S3    D    
C4    C37   A    
O26   Zn1   S    
C8    C10   A    
C21   C24   D    
C15   C46   A    
O11   S3    D    
C21   S1    S    
C3    C16   S    
C25   S4    S    
O19   S5    D    
C29   N1    A    
