data_mof_unit_29092.cif
_audit_creation_date              2013-03-05T15:43:30-0500
_audit_creation_method            fapswitch 2.2
_symmetry_space_group_name_H-M    P1
_symmetry_Int_Tables_number       1
_space_group_crystal_system       triclinic
_cell_length_a                    14.683537
_cell_length_b                    15.961266
_cell_length_c                    7.003446
_cell_angle_alpha                 90.000937
_cell_angle_beta                  81.22592
_cell_angle_gamma                 89.99981
_cell_volume                      1622.17421438

loop_
_atom_site_label
_atom_site_type_symbol
_atom_site_description
_atom_site_fract_x
_atom_site_fract_y
_atom_site_fract_z
_atom_type_partial_charge
O1    O     O_R   0.337460 0.413110 0.524760 -0.559746
O2    O     O_R   0.662540 0.913110 0.475240 -0.559672
O3    O     O_R   0.348690 0.587910 0.191230 -0.600693
O4    O     O_R   0.651310 0.087910 0.808770 -0.600627
O5    O     O_R   0.166530 0.586890 0.082470 -0.577295
O6    O     O_R   0.833470 0.086890 0.917530 -0.577317
C1    C     C_R   0.370652 0.616382 0.354553 0.813132
C2    C     C_R   0.629365 0.116396 0.645447 0.813153
O7    O     O_R   0.348700 0.413830 0.191250 -0.566345
O8    O     O_R   0.651300 0.913830 0.808750 -0.566327
O9    O     O_R   0.166530 0.411570 0.082490 -0.529209
O10   O     O_R   0.833470 0.911570 0.917510 -0.529208
C3    C     C_R   0.370906 0.386330 0.353933 0.823717
C4    C     C_R   0.629077 0.886349 0.646065 0.823676
O11   O     O_R   0.337460 0.588430 0.524740 -0.561419
O12   O     O_R   0.662540 0.088430 0.475260 -0.561506
O13   O     O_3   0.192230 0.499460 0.407330 -0.255430
O14   O     O_3   0.807770 0.999460 0.592670 -0.255453
V1    V     V_3+5 0.263080 0.500100 0.108540 1.106810
V2    V     V_3+5 0.736920 0.000100 0.891460 1.106842
O15   O     O_R   0.155290 0.412090 0.756570 -0.560337
O16   O     O_R   0.844710 0.912090 0.243430 -0.560331
C5    C     C_R   0.133688 0.382554 0.933146 0.817994
C6    C     C_R   0.866316 0.882557 0.066851 0.818001
O17   O     O_R   0.155290 0.586170 0.756550 -0.535373
O18   O     O_R   0.844710 0.086170 0.243450 -0.535441
C7    C     C_R   0.135486 0.617516 0.930670 0.797898
C8    C     C_R   0.864522 0.117510 0.069330 0.797743
V3    V     V_3+5 0.240910 0.499900 0.616030 1.138099
V4    V     V_3+5 0.759090 0.999900 0.383970 1.138084
O19   O     O_3   0.311760 0.500540 0.867100 -0.307626
O20   O     O_3   0.688240 0.000540 0.132900 -0.307577
C9    C     C_3   0.075204 0.740896 0.144193 -0.249477
C10   C     C_3   0.924804 0.240891 0.855823 -0.249499
H1    H     H_    0.054841 0.699990 0.271401 0.177614
H2    H     H_    0.945171 0.199983 0.728616 0.177608
H3    H     H_    0.147941 0.761379 0.137454 0.067316
H4    H     H_    0.852066 0.261372 0.862568 0.067297
C11   C     C_3   0.011575 0.819233 0.164864 -0.264871
C12   C     C_3   0.988430 0.319227 0.835145 -0.264882
H5    H     H_    0.053848 0.876895 0.133471 0.073798
H6    H     H_    0.946156 0.376889 0.866542 0.073804
H7    H     H_    0.979148 0.825325 0.315530 0.197048
H8    H     H_    0.020854 0.325317 0.684475 0.197044
H9    H     H_    0.959942 0.603291 0.104352 0.079171
H10   H     H_    0.040070 0.103282 0.895649 0.079166
H11   H     H_    0.871333 0.714442 0.219164 0.087198
H12   H     H_    0.128670 0.214436 0.780820 0.087202
C13   C     C_3   0.965721 0.653541 0.992878 -0.198197
C14   C     C_3   0.034292 0.153535 0.007119 -0.198175
C15   C     C_3   0.076718 0.755123 0.790965 0.386934
C16   C     C_3   0.923299 0.255114 0.209049 0.386879
C17   C     C_3   0.064984 0.689559 0.960686 -0.086208
C18   C     C_3   0.935027 0.189553 0.039321 -0.086160
H13   H     H_    0.139300 0.792928 0.809680 -0.075000
H14   H     H_    0.860711 0.292916 0.190360 -0.074942
C19   C     C_3   0.937957 0.812439 0.027228 -0.142037
C20   C     C_3   0.062051 0.312435 0.972770 -0.142025
C21   C     C_3   0.894169 0.723198 0.062262 -0.214548
C22   C     C_3   0.105840 0.223194 0.937726 -0.214564
C23   C     C_3   0.995438 0.819744 0.818704 0.400774
C24   C     C_3   0.004573 0.319740 0.181299 0.400783
H15   H     H_    0.029872 0.882003 0.819454 0.004470
H16   H     H_    0.970134 0.381996 0.180555 0.004473
H17   H     H_    0.950608 0.623026 0.859155 0.101482
H18   H     H_    0.049410 0.123027 0.140843 0.101491
H19   H     H_    0.830332 0.713521 0.000232 0.052072
H20   H     H_    0.169681 0.213518 0.999741 0.052081
H21   H     H_    0.584214 0.787526 0.364765 0.073726
H22   H     H_    0.416063 0.287837 0.635570 0.073878
C25   C     C_2   0.444579 0.679970 0.349602 -0.242861
C26   C     C_2   0.555465 0.180007 0.650410 -0.242831
C27   C     C_2   0.455645 0.727089 0.506213 0.399767
C28   C     C_2   0.544427 0.227155 0.493832 0.399932
H23   H     H_    0.509562 0.820513 0.793476 0.090617
H24   H     H_    0.490113 0.320130 0.206251 0.090238
C29   C     C_2   0.553906 0.825645 0.656251 -0.218757
C30   C     C_2   0.446007 0.325545 0.343721 -0.218732
C31   C     C_2   0.537200 0.782208 0.500107 -0.133601
C32   C     C_2   0.462895 0.282310 0.500016 -0.133530
H25   H     H_    0.495272 0.683699 0.219544 -0.001170
H26   H     H_    0.504766 0.183728 0.780465 -0.001245
O21   O     O_3   0.947294 0.828452 0.657654 -0.619116
C33   C     C_3   0.878893 0.767900 0.642772 0.257854
H27   H     H_    0.816245 0.778874 0.748402 0.020456
H28   H     H_    0.905757 0.703277 0.641343 0.038355
H29   H     H_    0.853543 0.777287 0.504045 0.030226
O22   O     O_3   0.052722 0.328455 0.342343 -0.619107
C34   C     C_3   0.121122 0.267902 0.357226 0.257864
H30   H     H_    0.183768 0.278867 0.251581 0.020416
H31   H     H_    0.094256 0.203279 0.358678 0.038379
H32   H     H_    0.146480 0.277299 0.495944 0.030238
O23   O     O_3   0.384291 0.735038 0.659503 -0.678349
C35   C     C_3   0.400302 0.684834 0.816879 0.253553
H33   H     H_    0.420404 0.724048 0.933887 0.000880
H34   H     H_    0.451769 0.633682 0.779293 0.020822
H35   H     H_    0.333704 0.656130 0.877437 0.114058
O24   O     O_3   0.615831 0.235185 0.340657 -0.678343
C36   C     C_3   0.599915 0.185098 0.183013 0.253275
H36   H     H_    0.580549 0.224507 0.065538 0.001273
H37   H     H_    0.547939 0.134293 0.219978 0.020149
H38   H     H_    0.666401 0.155962 0.123282 0.114295
O25   O     O_3   0.085969 0.716413 0.607169 -0.643239
C37   C     C_3   0.176103 0.729342 0.506821 0.206077
H39   H     H_    0.229377 0.718060 0.599421 0.093878
H40   H     H_    0.183234 0.794050 0.447969 0.017537
H41   H     H_    0.190332 0.683194 0.388375 0.077739
O26   O     O_3   0.914068 0.216401 0.392837 -0.643259
C38   C     C_3   0.823934 0.229314 0.493203 0.206082
H42   H     H_    0.770666 0.218018 0.400611 0.093921
H43   H     H_    0.816788 0.294022 0.552058 0.017584
H44   H     H_    0.809715 0.183162 0.611637 0.077735

loop_
_geom_bond_atom_site_label_1
_geom_bond_atom_site_label_2
_geom_bond_distance
_ccdc_geom_bond_type
C20   C24   1.575653 S    
C5    C20   1.532005 S    
O23   C35   1.411119 S    
O11   V3    2.034416 S    
O13   V3    1.722221 S    
C15   C23   1.566923 S    
C33   H29   1.102395 S    
C27   O23   1.386792 S    
O4    C2    1.315807 A    
V1    O19   1.732463 S    
C37   H40   1.111042 S    
C11   H5    1.113132 S    
O9    V1    2.029474 S    
C9    C11   1.554339 S    
C13   H17   1.107663 S    
C10   C12   1.554326 S    
H24   C30   1.078697 S    
O3    C1    1.315817 A    
C38   H43   1.111040 S    
C1    C25   1.482623 S    
C30   C32   1.348599 D    
C19   C21   1.566643 S    
C15   O25   1.415530 S    
C11   C19   1.557980 S    
O26   C38   1.415746 S    
C4    C29   1.462247 S    
C23   H15   1.115328 S    
O7    C3    1.307836 A    
C24   H16   1.115331 S    
C21   H19   1.102474 S    
O5    C7    1.313327 A    
O7    V1    2.008569 S    
O6    C8    1.313337 A    
C36   H36   1.106709 S    
O8    V2    2.008563 S    
C6    C19   1.532009 S    
O3    V1    2.025342 S    
O14   V4    1.722221 S    
C34   H31   1.103819 S    
O16   V4    2.033750 S    
C15   H13   1.123587 S    
C12   H6    1.113131 S    
C2    O12   1.296147 A    
C28   C32   1.481311 S    
O17   V3    2.016835 S    
C37   H39   1.104392 S    
C16   C18   1.573269 S    
H12   C22   1.107729 S    
C20   C22   1.566651 S    
C29   C31   1.348522 D    
C9    C17   1.550622 S    
C2    C26   1.482575 S    
C12   C20   1.557963 S    
H22   C32   1.087542 S    
C33   H27   1.102975 S    
C26   C28   1.359911 D    
O8    C4    1.307831 A    
C38   H44   1.105170 S    
C25   C27   1.359913 D    
C8    C18   1.540074 S    
O13   V1    2.190219 S    
C11   H7    1.093752 S    
C1    O11   1.296151 A    
C35   H35   1.104329 S    
C24   O22   1.426369 S    
C9    H3    1.111053 S    
C15   C17   1.573278 S    
H23   C29   1.078610 S    
O21   C33   1.409133 S    
H9    C13   1.113463 S    
O10   V2    2.029470 S    
O1    V3    2.015176 S    
C27   C31   1.481301 S    
C14   C18   1.550981 S    
C34   H32   1.102405 S    
C35   H34   1.116369 S    
C14   H18   1.107665 S    
C22   H20   1.102473 S    
C36   H37   1.116596 S    
O18   V4    2.016861 S    
O15   C5    1.316243 A    
C23   O21   1.426365 S    
O16   C6    1.316235 A    
H21   C31   1.087462 S    
O1    C3    1.294580 A    
V2    O20   1.732464 S    
O10   C6    1.301875 A    
C3    C30   1.462319 S    
C28   O24   1.386851 S    
C10   H4    1.111052 S    
C33   H28   1.103811 S    
C7    C17   1.540050 S    
C19   C23   1.575651 S    
O5    V1    2.010262 S    
O17   C7    1.309083 A    
O6    V2    2.010265 S    
H10   C14   1.113464 S    
O18   C8    1.309082 A    
C13   C21   1.555732 S    
O2    V4    2.015197 S    
C14   C22   1.555744 S    
V3    O19   2.175376 S    
C16   C24   1.566918 S    
C38   H42   1.104330 S    
V4    O20   2.175379 S    
C10   C18   1.550610 S    
O15   V3    2.033778 S    
C13   C17   1.550977 S    
O9    C5    1.301866 A    
C9    H1    1.108216 S    
C10   H2    1.108212 S    
O14   V2    2.190217 S    
C35   H33   1.106427 S    
O2    C4    1.294547 A    
H11   C21   1.107725 S    
O4    V2    2.025349 S    
C12   H8    1.093762 S    
C36   H38   1.104410 S    
O22   C34   1.409136 S    
C16   O26   1.415530 S    
O24   C36   1.411156 S    
O25   C37   1.415758 S    
C34   H30   1.102982 S    
O12   V4    2.034397 S    
C37   H41   1.105179 S    
C26   H26   1.086493 S    
C16   H14   1.123590 S    
C25   H25   1.086475 S    
