data_mof_unit_35307.cif
_audit_creation_date              2012-12-10T18:07:34-0500
_audit_creation_method            fapswitch 2.2
_symmetry_space_group_name_H-M    P1
_symmetry_Int_Tables_number       1
_space_group_crystal_system       triclinic
_cell_length_a                    11.544442
_cell_length_b                    12.678583
_cell_length_c                    13.171856
_cell_angle_alpha                 82.567779
_cell_angle_beta                  91.149386
_cell_angle_gamma                 102.658843
_cell_volume                      1865.191537

loop_
_atom_site_label
_atom_site_type_symbol
_atom_type_description
_atom_site_fract_x
_atom_site_fract_y
_atom_site_fract_z
_atom_type_partial_charge
C1    C     C_R   0.477312 0.439564 0.690546 0.911296
C2    C     C_R   0.498332 0.595518 0.200198 -0.113618
C3    C     C_R   0.454064 0.295502 0.838709 -0.348903
C4    C     C_R   0.463794 0.266888 0.943260 0.474764
C5    C     C_R   0.479876 0.348167 0.008272 0.402071
C6    C     C_R   0.457065 0.453257 0.971448 -0.109514
C7    C     C_R   0.436325 0.477460 0.866400 0.006086
C8    C     C_R   0.462361 0.537666 0.033398 0.069394
C9    C     C_R   0.467496 0.647340 0.989695 0.050862
C10   C     C_R   0.428783 0.664451 0.887691 -0.055492
C11   C     C_R   0.405441 0.577430 0.830374 -0.156602
C12   C     C_R   0.717768 0.501086 0.500373 0.908563
C13   C     C_R   0.459232 0.514671 0.138493 -0.180501
C14   C     C_R   0.524224 0.704796 0.157188 -0.248637
C15   C     C_R   0.450643 0.402660 0.799335 -0.199242
C16   C     C_R   0.331235 0.086235 0.348956 0.354807
C17   C     C_R   0.647388 0.800832 0.623857 0.686606
C18   C     C_R   0.698640 0.910307 0.631381 -0.356967
C19   C     C_R   0.650561 0.991298 0.576913 -0.256819
C20   C     C_R   0.546273 0.965087 0.519205 0.083430
C21   C     C_R   0.509150 0.855109 0.501583 0.138733
C22   C     C_R   0.482467 0.043425 0.472692 -0.088134
C23   C     C_R   0.508503 0.560495 0.308984 0.860128
C24   C     C_R   0.395834 0.011796 0.397333 -0.016531
C25   C     C_R   0.375016 0.906107 0.370732 -0.207718
C26   C     C_R   0.426709 0.828190 0.425121 -0.194328
C27   C     C_R   0.496710 0.150512 0.499245 -0.069462
C28   C     C_R   0.359889 0.194155 0.370632 0.561580
C29   C     C_R   0.282225 0.498904 0.499646 0.861227
C30   C     C_1   0.838933 0.502850 0.500683 -0.175706
C31   C     C_1   0.940923 0.501450 0.500297 -0.001943
C32   C     C_1   0.059090 0.498491 0.499573 -0.010488
C33   C     C_1   0.161083 0.497132 0.499262 -0.198939
C34   C     C_R   0.505491 0.732043 0.052522 -0.004425
H1    H     H_    0.555855 0.768412 0.205145 0.170290
H2    H     H_    0.316180 0.881735 0.308893 0.183279
H3    H     H_    0.701843 0.073135 0.575897 0.177146
H4    H     H_    0.778215 0.933375 0.675416 0.166144
H5    H     H_    0.402586 0.747789 0.403893 0.207930
H6    H     H_    0.423245 0.432649 0.173091 0.256400
H7    H     H_    0.455921 0.234920 0.788390 0.216339
H8    H     H_    0.365910 0.589677 0.755699 0.167055
N1    N     N_R   0.440320 0.222190 0.444690 -0.189216
N2    N     N_R   0.559060 0.776980 0.554780 -0.175183
O1    O     O_R   0.471500 0.366730 0.627160 -0.619644
O2    O     O_R   0.509620 0.544830 0.662520 -0.573809
O3    O     O_R   0.646490 0.410960 0.482310 -0.613635
O4    O     O_R   0.684610 0.589050 0.517670 -0.558151
O5    O     O_R   0.490380 0.455170 0.337480 -0.558127
O6    O     O_R   0.528500 0.633270 0.372840 -0.647886
O7    O     O_R   0.315390 0.410950 0.482330 -0.600494
O8    O     O_R   0.353510 0.589040 0.517690 -0.642017
Zn1   Zn    Zn3+2 0.474550 0.381080 0.476390 0.981918
Zn2   Zn    Zn3+2 0.525450 0.618920 0.523610 0.970283
O9    O     O_3   0.246698 0.056874 0.275643 -0.615313
C35   C     C_3   0.138798 0.000925 0.325068 -0.366773
H9    H     H_    0.115342 0.041425 0.389476 0.144703
H10   H     H_    0.140921 0.915241 0.353907 0.180197
H11   H     H_    0.066251 0.998965 0.268373 0.197472
C36   C     C_1   0.563021 0.186356 0.586955 0.285614
N3    N     N_1   0.617246 0.214673 0.657211 -0.215683
O10   O     O_3   0.695027 0.716370 0.672691 -0.568601
C37   C     C_3   0.726066 0.731103 0.775005 -0.323544
H12   H     H_    0.662507 0.767895 0.813541 0.158894
H13   H     H_    0.817650 0.781131 0.778123 0.163083
H14   H     H_    0.724961 0.650073 0.818928 0.197953
C38   C     C_1   0.404486 0.766663 0.840329 0.150980
N4    N     N_1   0.384808 0.848143 0.801688 -0.191644
C39   C     C_1   0.536576 0.846140 0.012145 0.134178
N5    N     N_1   0.562490 0.937624 0.980089 -0.143179
O11   O     O_3   0.522317 0.323518 0.105383 -0.598831
C40   C     C_3   0.647267 0.355268 0.102526 -0.254491
H15   H     H_    0.677913 0.444385 0.078316 0.144359
H16   H     H_    0.686040 0.308381 0.051430 0.180503
H17   H     H_    0.681100 0.337339 0.180848 0.189636
O12   O     O_3   0.476931 0.163005 0.979452 -0.585165
C41   C     C_3   0.369980 0.105221 0.028261 -0.180242
H18   H     H_    0.295438 0.095937 0.972861 0.132904
H19   H     H_    0.347843 0.144995 0.093595 0.219200
H20   H     H_    0.380448 0.022382 0.059633 0.195683
O13   O     O_3   0.317161 0.275338 0.311171 -0.572884
C42   C     C_3   0.196112 0.267279 0.332794 -0.244930
H21   H     H_    0.177699 0.350188 0.318586 0.175350
H22   H     H_    0.170442 0.234575 0.413856 0.130254
H23   H     H_    0.139636 0.218135 0.279216 0.186120

loop_
_geom_bond_atom_site_label_1
_geom_bond_atom_site_label_2
_ccdc_geom_bond_type
C16   C28   A    
C21   C26   A    
C37   H13   S    
C8    C13   A    
C19   C20   A    
C12   O4    A    
O13   C42   S    
C41   H18   S    
C7    C11   A    
O6    Zn2   S    
C27   C36   S    
C12   O3    A    
C5    C6    A    
C26   H5    S    
C23   O5    A    
C29   C33   S    
C35   H9    S    
C11   H8    S    
C18   C19   A    
C2    C13   A    
C13   H6    S    
C19   H3    S    
N1    Zn1   S    
C8    C9    A    
C1    C15   S    
C9    C10   A    
O3    Zn1   S    
C7    C15   A    
C37   H14   S    
O1    Zn1   S    
C16   C24   A    
C40   H17   S    
C2    C14   A    
O8    Zn2   S    
C41   H19   S    
C38   N4    T    
C24   C25   A    
C40   H16   S    
C14   H1    S    
C4    C5    A    
C23   O6    A    
C6    C8    A    
C25   C26   A    
C10   C38   S    
C36   N3    T    
O7    Zn1   S    
O4    Zn2   S    
O10   C37   S    
C27   N1    A    
C17   O10   S    
C21   N2    A    
C31   C32   S    
O2    Zn2   S    
O9    C35   S    
C17   C18   A    
O12   C41   S    
C34   C39   S    
C20   C22   A    
C42   H22   S    
C22   C27   A    
C9    C34   A    
C22   C24   A    
C3    C4    A    
C3    C15   A    
C29   O7    A    
C41   H20   S    
C3    H7    S    
C12   C30   S    
C28   O13   S    
C40   H15   S    
C14   C34   A    
C6    C7    A    
C42   H23   S    
C28   N1    A    
C35   H11   S    
C32   C33   T    
C18   H4    S    
C17   N2    A    
O11   C40   S    
C5    O11   S    
C16   O9    S    
C1    O1    A    
C30   C31   T    
O5    Zn1   S    
C35   H10   S    
C39   N5    T    
C1    O2    A    
C4    O12   S    
C10   C11   A    
C25   H2    S    
C37   H12   S    
N2    Zn2   S    
C20   C21   A    
C42   H21   S    
C2    C23   S    
C29   O8    A    
