data_mof_unit_32744.cif
_audit_creation_date              2012-12-10T16:53:32-0500
_audit_creation_method            fapswitch 2.2
_symmetry_space_group_name_H-M    P1
_symmetry_Int_Tables_number       1
_space_group_crystal_system       triclinic
_cell_length_a                    7.946275
_cell_length_b                    8.567834
_cell_length_c                    13.595982
_cell_angle_alpha                 94.397874
_cell_angle_beta                  77.675329
_cell_angle_gamma                 93.600813
_cell_volume                      900.62610374

loop_
_atom_site_label
_atom_site_type_symbol
_atom_type_description
_atom_site_fract_x
_atom_site_fract_y
_atom_site_fract_z
_atom_type_partial_charge
C1    C     C_R   0.545405 0.794074 0.497768 0.949493
C2    C     C_1   0.569121 0.492297 0.118658 0.005030
C3    C     C_2   0.569108 0.957743 0.496264 -0.381885
C4    C     C_2   0.430892 0.042257 0.503736 -0.381885
C5    C     C_3   0.024097 0.314424 0.421123 -0.140574
C6    C     C_3   0.961098 0.277189 0.323178 -0.861288
C7    C     C_3   0.975903 0.685576 0.578877 -0.140574
C8    C     C_3   0.038902 0.722811 0.676821 -0.861289
C9    C     C_R   0.454595 0.205926 0.502232 0.949493
C10   C     C_R   0.469230 0.503635 0.687091 0.882271
C11   C     C_R   0.530770 0.496365 0.312908 0.882271
C12   C     C_1   0.554234 0.493803 0.207519 -0.178048
C13   C     C_1   0.445766 0.506197 0.792481 -0.178048
C14   C     C_2   0.573508 0.492084 0.014341 -0.161187
C15   C     C_2   0.426491 0.507916 0.985659 -0.161188
C16   C     C_1   0.430879 0.507703 0.881342 0.005030
H1    H     H_    0.304798 0.520722 0.039562 0.158661
H2    H     H_    0.020079 0.618097 0.722060 0.264293
H3    H     H_    0.175623 0.765033 0.662494 0.284045
H4    H     H_    0.963117 0.818055 0.722155 0.213857
H5    H     H_    0.012240 0.784684 0.529232 0.159087
H6    H     H_    0.836888 0.675316 0.603494 0.230887
H7    H     H_    0.695202 0.479278 0.960438 0.158661
H8    H     H_    0.699962 0.008115 0.488928 0.175725
H9    H     H_    0.300038 0.991885 0.511072 0.175725
H10   H     H_    0.824377 0.234967 0.337506 0.284045
H11   H     H_    0.979921 0.381904 0.277940 0.264293
H12   H     H_    0.036884 0.181946 0.277844 0.213857
H13   H     H_    0.163112 0.324684 0.396506 0.230887
H14   H     H_    0.987760 0.215316 0.470768 0.159086
N1    N     N_2   0.954190 0.457600 0.473930 -0.026868
N2    N     N_2   0.045810 0.542400 0.526070 -0.026868
O1    O     O_R   0.388300 0.738660 0.506400 -0.610723
O2    O     O_R   0.611700 0.261340 0.493600 -0.610723
O3    O     O_R   0.679920 0.711490 0.489690 -0.656016
O4    O     O_R   0.320080 0.288510 0.510310 -0.656016
O5    O     O_R   0.333200 0.515510 0.649910 -0.606217
O6    O     O_R   0.666800 0.484490 0.350090 -0.606217
O7    O     O_R   0.624820 0.488340 0.633200 -0.629397
O8    O     O_R   0.375180 0.511660 0.366800 -0.629397
Zn1   Zn    Zn3+2 0.305280 0.518140 0.511160 0.928856
Zn2   Zn    Zn3+2 0.694720 0.481860 0.488840 0.928856

loop_
_geom_bond_atom_site_label_1
_geom_bond_atom_site_label_2
_ccdc_geom_bond_type
C14   H7    S    
C9    O4    A    
N2    Zn1   S    
N1    Zn2   S    
C11   O6    A    
C7    H6    S    
N1    N2    D    
O2    Zn2   S    
C11   C12   S    
O1    Zn1   S    
C4    H9    S    
C3    H8    S    
C1    O1    A    
C7    C8    S    
C6    H10   S    
O4    Zn1   S    
C8    H4    S    
C10   O5    A    
O8    Zn1   S    
C9    O2    A    
O6    Zn2   S    
O7    Zn2   S    
C5    H13   S    
O5    Zn1   S    
C5    C6    S    
C2    C14   S    
C6    H12   S    
C8    H3    S    
C15   C16   S    
C11   O8    A    
C1    O3    A    
C2    C12   T    
C5    H14   S    
C13   C16   T    
C15   H1    S    
O3    Zn2   S    
C14   C15   D    
C7    N2    S    
C5    N1    S    
C4    C9    S    
C7    H5    S    
C8    H2    S    
C3    C4    D    
C6    H11   S    
C10   O7    A    
C1    C3    S    
C10   C13   S    
