data_mof_unit_30728.cif
_audit_creation_date              2012-12-10T17:40:57-0500
_audit_creation_method            fapswitch 2.2
_symmetry_space_group_name_H-M    P1
_symmetry_Int_Tables_number       1
_space_group_crystal_system       triclinic
_cell_length_a                    15.003945
_cell_length_b                    13.943872
_cell_length_c                    11.678946
_cell_angle_alpha                 89.934519
_cell_angle_beta                  85.864135
_cell_angle_gamma                 89.678158
_cell_volume                      2436.98625791

loop_
_atom_site_label
_atom_site_type_symbol
_atom_type_description
_atom_site_fract_x
_atom_site_fract_y
_atom_site_fract_z
_atom_type_partial_charge
C1    C     C_R   0.329439 0.500276 0.499208 0.803613
C2    C     C_R   0.670550 0.499719 0.500943 0.804152
C3    C     C_R   0.910196 0.493084 0.398763 0.123788
C4    C     C_R   0.089786 0.508003 0.601195 0.123747
C5    C     C_R   0.946725 0.515402 0.710198 -0.221147
C6    C     C_R   0.053270 0.485833 0.289735 -0.221265
C7    C     C_R   0.039477 0.515648 0.706126 -0.211716
C8    C     C_R   0.960510 0.485667 0.293807 -0.211149
C9    C     C_R   0.442980 0.795433 0.577153 0.256831
C10   C     C_R   0.557583 0.204737 0.422648 0.254104
C11   C     C_R   0.556960 0.794920 0.422662 0.256360
C12   C     C_R   0.442497 0.205278 0.577526 0.253933
C13   C     C_R   0.550160 0.897120 0.414883 -0.049113
C14   C     C_R   0.439194 0.102208 0.574591 -0.071693
C15   C     C_R   0.449991 0.897488 0.585287 -0.049804
C16   C     C_R   0.560926 0.101650 0.425713 -0.071454
C17   C     C_R   0.500117 0.948307 0.500164 -0.023624
C18   C     C_R   0.500085 0.051386 0.500180 -0.027089
C19   C     C_R   0.594477 0.951348 0.326130 0.133521
C20   C     C_R   0.379266 0.046115 0.647176 0.159350
C21   C     C_R   0.405429 0.951954 0.673928 0.133105
C22   C     C_R   0.620847 0.044998 0.353179 0.160243
C23   C     C_R   0.501056 0.500026 0.284235 0.803578
C24   C     C_R   0.498970 0.499973 0.715763 0.803527
C25   C     C_1   0.500859 0.500038 0.162461 -0.191862
C26   C     C_1   0.499176 0.499860 0.837536 -0.190795
C27   C     C_1   0.500369 0.499893 0.059910 -0.019251
C28   C     C_1   0.499669 0.499799 0.940087 -0.018849
C29   C     C_R   0.817602 0.493198 0.401395 -0.320122
C30   C     C_R   0.182367 0.507192 0.598654 -0.321064
C31   C     C_R   0.766657 0.498838 0.505532 -0.072285
C32   C     C_R   0.233331 0.501219 0.494573 -0.071407
C33   C     C_R   0.806978 0.503688 0.611131 0.098515
C34   C     C_R   0.193048 0.496633 0.388929 0.097557
C35   C     C_R   0.901597 0.506598 0.608959 0.085870
C36   C     C_R   0.098408 0.494445 0.390992 0.086309
C37   C     C_R   0.952877 0.500341 0.501972 0.032546
C38   C     C_R   0.047113 0.500955 0.497955 0.033303
Cu1   Cu    Cu3+1 0.500000 0.597420 0.500000 0.908585
Cu2   Cu    Cu3+1 0.500000 0.402580 0.500000 0.907259
H1    H     H_    0.784507 0.488734 0.321909 0.129503
H2    H     H_    0.215447 0.511651 0.678153 0.130300
H3    H     H_    0.911718 0.522920 0.793769 0.154247
H4    H     H_    0.088250 0.478210 0.206170 0.153664
H5    H     H_    0.072035 0.521988 0.785661 0.139402
H6    H     H_    0.927950 0.479293 0.214276 0.139518
N1    N     N_R   0.500000 0.743810 0.500000 -0.202198
N2    N     N_R   0.500000 0.256190 0.500000 -0.208395
O1    O     O_R   0.370260 0.582280 0.500020 -0.583374
O2    O     O_R   0.629740 0.417720 0.499980 -0.605237
O3    O     O_R   0.629740 0.582280 0.499980 -0.574205
O4    O     O_R   0.370260 0.417720 0.500020 -0.597012
O5    O     O_R   0.500010 0.582270 0.337200 -0.594999
O6    O     O_R   0.499990 0.417730 0.662800 -0.578305
O7    O     O_R   0.499990 0.582270 0.662800 -0.588226
O8    O     O_R   0.500010 0.417730 0.337200 -0.571509
C39   C     C_3   0.748990 0.502845 0.723811 -0.408003
C40   C     C_3   0.730379 0.604343 0.768505 -0.826781
H7    H     H_    0.793683 0.642720 0.780231 0.245519
H8    H     H_    0.691361 0.645249 0.707484 0.265032
H9    H     H_    0.690812 0.601001 0.852487 0.242049
H10   H     H_    0.684368 0.466927 0.713701 0.201345
H11   H     H_    0.779974 0.458753 0.789513 0.189756
C41   C     C_3   0.251241 0.496020 0.276417 -0.409332
C42   C     C_3   0.269306 0.393889 0.233488 -0.822069
H12   H     H_    0.205796 0.356755 0.219335 0.245380
H13   H     H_    0.311018 0.395900 0.151034 0.239526
H14   H     H_    0.305795 0.352536 0.296820 0.268955
H15   H     H_    0.220810 0.539632 0.209849 0.189171
H16   H     H_    0.316029 0.531633 0.286316 0.200431
C43   C     C_3   0.359933 0.749631 0.636131 -0.345656
C44   C     C_3   0.280460 0.759933 0.561733 -0.808355
H17   H     H_    0.298423 0.738388 0.471517 0.268844
H18   H     H_    0.224217 0.715033 0.597402 0.243144
H19   H     H_    0.257473 0.835565 0.561156 0.223780
H20   H     H_    0.370621 0.674905 0.660950 0.237689
H21   H     H_    0.338843 0.783563 0.718926 0.155807
C45   C     C_3   0.610125 0.254837 0.323232 -0.327202
C46   C     C_3   0.565203 0.243553 0.210528 -0.836909
H22   H     H_    0.492524 0.259469 0.222658 0.267195
H23   H     H_    0.596067 0.293513 0.145200 0.236858
H24   H     H_    0.574553 0.169535 0.177163 0.245610
H25   H     H_    0.623235 0.329980 0.338713 0.241628
H26   H     H_    0.679157 0.229187 0.310092 0.176227
C47   C     C_3   0.639164 0.747977 0.361647 -0.346157
C48   C     C_3   0.720220 0.757399 0.433224 -0.804792
H27   H     H_    0.703336 0.738468 0.524459 0.266120
H28   H     H_    0.775019 0.709784 0.397850 0.244248
H29   H     H_    0.744726 0.832202 0.430282 0.224088
H30   H     H_    0.628284 0.673307 0.337790 0.238937
H31   H     H_    0.658616 0.781244 0.278018 0.155623
C49   C     C_3   0.390048 0.255765 0.677110 -0.325319
C50   C     C_3   0.434915 0.243367 0.789797 -0.837546
H32   H     H_    0.507486 0.258978 0.777852 0.267105
H33   H     H_    0.403708 0.293029 0.855509 0.236201
H34   H     H_    0.426032 0.169157 0.822541 0.245783
H35   H     H_    0.377060 0.331163 0.662097 0.242008
H36   H     H_    0.320957 0.231098 0.690066 0.176759
C51   C     C_3   0.568105 0.935838 0.204332 -0.416582
C52   C     C_3   0.473016 0.971916 0.190142 -0.837347
H37   H     H_    0.424163 0.929465 0.244986 0.253497
H38   H     H_    0.465832 0.048633 0.214238 0.255247
H39   H     H_    0.457019 0.963815 0.099344 0.238953
H40   H     H_    0.614838 0.974316 0.142355 0.207924
H41   H     H_    0.570090 0.859257 0.179610 0.194258
C53   C     C_3   0.279151 0.060534 0.643716 -0.412984
C54   C     C_3   0.231241 0.065853 0.763595 -0.858833
H42   H     H_    0.231272 0.994201 0.805173 0.246027
H43   H     H_    0.263674 0.117953 0.818775 0.254519
H44   H     H_    0.160737 0.088323 0.756606 0.247162
H45   H     H_    0.262530 0.123835 0.591512 0.191318
H46   H     H_    0.250986 0.999283 0.597905 0.196178
C55   C     C_3   0.430380 0.934818 0.796120 -0.416697
C56   C     C_3   0.525623 0.968362 0.812002 -0.836966
H47   H     H_    0.574465 0.925140 0.757483 0.253560
H48   H     H_    0.533786 0.045097 0.788617 0.254893
H49   H     H_    0.540706 0.959099 0.903030 0.239099
H50   H     H_    0.383611 0.974038 0.857748 0.208238
H51   H     H_    0.427253 0.858094 0.820219 0.194215
C57   C     C_3   0.720938 0.058003 0.356965 -0.413415
C58   C     C_3   0.769019 0.062365 0.237162 -0.859483
H52   H     H_    0.768222 0.990809 0.195628 0.246635
H53   H     H_    0.737184 0.115378 0.181918 0.254087
H54   H     H_    0.839741 0.083101 0.244241 0.247107
H55   H     H_    0.737607 0.121204 0.408791 0.191342
H56   H     H_    0.748838 0.996489 0.403313 0.196075

loop_
_geom_bond_atom_site_label_1
_geom_bond_atom_site_label_2
_ccdc_geom_bond_type
Cu1   O3    S    
C50   H32   S    
C14   C18   A    
C11   N1    A    
C12   N2    A    
C56   H47   S    
C10   C45   S    
C49   H36   S    
C39   H10   S    
C53   H46   S    
C47   C48   S    
C24   O7    A    
C22   C57   S    
C7    H5    S    
C35   C37   A    
C24   C26   S    
C4    C7    A    
C43   H20   S    
C57   H56   S    
C53   C54   S    
C40   H8    S    
Cu2   N2    S    
C3    C29   A    
C49   C50   S    
C58   H54   S    
C2    O2    A    
C55   H51   S    
C45   H25   S    
Cu1   O7    S    
C42   H13   S    
C33   C39   S    
C54   H42   S    
C31   C33   A    
C39   H11   S    
C41   H16   S    
C40   H9    S    
C23   C25   S    
C51   H40   S    
C5    H3    S    
C50   H33   S    
C6    H4    S    
C54   H43   S    
C44   H19   S    
C52   H38   S    
C49   H35   S    
C23   O5    A    
C20   C53   S    
C53   H45   S    
C47   H31   S    
C51   H41   S    
C13   C19   A    
C48   H28   S    
C14   C20   A    
C23   O8    A    
C19   C22   A    
C44   H18   S    
C3    C8    A    
Cu1   Cu2   S    
C5    C7    A    
C19   C51   S    
C45   C46   S    
C6    C8    A    
Cu2   O8    S    
C40   H7    S    
Cu2   O4    S    
C52   H39   S    
C55   H50   S    
C2    C31   S    
C32   C34   A    
C24   O6    A    
C37   C38   A    
C51   C52   S    
C42   H14   S    
C34   C41   S    
C17   C18   A    
C41   H15   S    
C58   H52   S    
C21   C55   S    
Cu1   O1    S    
C12   C14   A    
C9    N1    A    
C50   H34   S    
Cu2   O6    S    
C10   N2    A    
C54   H44   S    
C43   H21   S    
C57   C58   S    
Cu1   N1    S    
C55   C56   S    
C15   C17   A    
C16   C22   A    
C29   H1    S    
C48   H27   S    
C26   C28   T    
C12   C49   S    
C9    C43   S    
C4    C38   A    
C44   H17   S    
C48   H29   S    
C46   H24   S    
C56   H48   S    
C47   H30   S    
C25   C27   T    
C46   H23   S    
C13   C17   A    
C41   C42   S    
C36   C38   A    
C9    C15   A    
C43   C44   S    
C29   C31   A    
C10   C16   A    
C30   C32   A    
C11   C13   A    
C39   C40   S    
Cu1   O5    S    
C11   C47   S    
Cu2   O2    S    
C5    C35   A    
C52   H37   S    
C33   C35   A    
C6    C36   A    
C34   C36   A    
C1    C32   S    
C57   H55   S    
C1    O4    A    
C8    H6    S    
C58   H53   S    
C56   H49   S    
C2    O3    A    
C46   H22   S    
C45   H26   S    
C15   C21   A    
C20   C21   A    
C3    C37   A    
C16   C18   A    
C42   H12   S    
C27   C28   S    
C30   H2    S    
C1    O1    A    
C4    C30   A    
