data_mof_unit_33650.cif
_audit_creation_date              2012-12-10T19:03:35-0500
_audit_creation_method            fapswitch 2.2
_symmetry_space_group_name_H-M    P1
_symmetry_Int_Tables_number       1
_space_group_crystal_system       triclinic
_cell_length_a                    15.871719
_cell_length_b                    10.819208
_cell_length_c                    9.635784
_cell_angle_alpha                 90.617953
_cell_angle_beta                  92.355132
_cell_angle_gamma                 91.311233
_cell_volume                      1652.70687798

loop_
_atom_site_label
_atom_site_type_symbol
_atom_type_description
_atom_site_fract_x
_atom_site_fract_y
_atom_site_fract_z
_atom_type_partial_charge
C1    C     C_R   0.502522 0.262956 0.499091 0.789939
C2    C     C_3   0.954103 0.454726 0.658001 -0.406758
C3    C     C_3   0.916404 0.475861 0.510835 -0.043230
C4    C     C_3   0.950570 0.605087 0.463096 -0.500708
C5    C     C_3   0.045118 0.602719 0.426144 0.611314
C6    C     C_1   0.824341 0.484166 0.512697 0.087085
C7    C     C_1   0.174905 0.485644 0.494191 0.101227
C8    C     C_1   0.250538 0.493034 0.493448 -0.126817
C9    C     C_R   0.452987 0.065108 0.588187 0.090888
C10   C     C_R   0.502026 0.129481 0.494559 -0.127744
C11   C     C_R   0.542357 0.062240 0.389431 0.122057
C12   C     C_R   0.340336 0.499146 0.497714 0.813828
C13   C     C_R   0.536905 0.933106 0.390590 -0.237555
C14   C     C_R   0.497424 0.870533 0.497630 -0.127764
C15   C     C_R   0.451454 0.938002 0.590851 0.147110
C16   C     C_3   0.449459 0.935659 0.745484 -0.444196
C17   C     C_3   0.450115 0.075972 0.742575 -0.466996
C18   C     C_R   0.569405 0.541235 0.078068 0.187996
C19   C     C_R   0.437806 0.439159 0.066179 0.222551
C20   C     C_R   0.438434 0.441039 0.918421 -0.061206
C21   C     C_R   0.568684 0.541745 0.931860 0.210611
C22   C     C_3   0.611112 0.665014 0.927694 -0.515507
C23   C     C_R   0.499193 0.737231 0.500351 0.807463
C24   C     C_3   0.614125 0.665275 0.086829 -0.104368
C25   C     C_R   0.659564 0.499118 0.502665 0.806137
C26   C     C_3   0.053053 0.460987 0.659760 0.474254
C27   C     C_3   0.043504 0.363617 0.408005 -0.236125
C28   C     C_3   0.943371 0.366315 0.413706 0.262552
C29   C     C_1   0.749038 0.492386 0.509337 -0.113162
C30   C     C_3   0.082610 0.478640 0.499093 -0.104495
Cu1   Cu    Cu3+1 0.500000 0.499980 0.640670 0.958149
Cu2   Cu    Cu3+1 0.500000 0.500020 0.359330 0.939527
H1    H     H_    0.929773 0.365991 0.698039 0.223062
H2    H     H_    0.928542 0.524941 0.729305 0.218929
H3    H     H_    0.910579 0.638456 0.374370 0.215314
H4    H     H_    0.568421 0.881684 0.312282 0.158460
H5    H     H_    0.389655 0.894504 0.782112 0.225162
H6    H     H_    0.508060 0.899712 0.794585 0.191471
H7    H     H_    0.390196 0.116048 0.775828 0.199229
H8    H     H_    0.508453 0.119151 0.791500 0.212476
H9    H     H_    0.388537 0.394372 0.856743 0.151630
H10   H     H_    0.672839 0.659815 0.877797 0.199100
H11   H     H_    0.568853 0.735376 0.883134 0.193016
H12   H     H_    0.574235 0.737880 0.130757 0.183468
H13   H     H_    0.058456 0.384780 0.300647 0.228611
H14   H     H_    0.917134 0.386464 0.308852 0.166941
H15   H     H_    0.941291 0.673801 0.547010 0.245158
N1    N     N_R   0.500530 0.500930 0.147930 -0.205050
N2    N     N_R   0.500530 0.500890 0.852020 -0.198354
O1    O     O_R   0.500000 0.319640 0.618810 -0.580401
O2    O     O_R   0.500010 0.319680 0.381230 -0.596532
O3    O     O_R   0.379430 0.499990 0.618840 -0.559751
O4    O     O_R   0.379440 0.500030 0.381260 -0.587737
O5    O     O_R   0.499990 0.680320 0.618770 -0.571677
O6    O     O_R   0.500000 0.680360 0.381190 -0.582956
O7    O     O_R   0.620560 0.499970 0.618740 -0.572669
O8    O     O_R   0.620570 0.500010 0.381160 -0.575715
S1    S     S_3+6 0.086317 0.583607 0.783930 0.022507
O9    O     O_2   0.055248 0.551637 0.923583 -0.232255
O10   O     O_2   0.180920 0.595189 0.796013 -0.267644
O11   O     O_3   0.042708 0.720092 0.748428 -0.490054
H16   H     H_    0.066715 0.777888 0.820876 0.387500
C31   C     C_3   0.598653 0.121049 0.283700 -0.349699
C32   C     C_3   0.553484 0.126385 0.141029 -0.796203
H17   H     H_    0.494202 0.177956 0.147340 0.255845
H18   H     H_    0.594744 0.174098 0.067140 0.240610
H19   H     H_    0.538368 0.031530 0.100684 0.240942
H20   H     H_    0.622031 0.214577 0.316401 0.238065
H21   H     H_    0.656423 0.065815 0.274654 0.205120
C33   C     C_3   0.365536 0.365574 0.123178 -0.452670
C34   C     C_3   0.283686 0.436127 0.104444 -0.676284
H22   H     H_    0.288671 0.525772 0.161445 0.290313
H23   H     H_    0.269474 0.454628 0.992944 0.261838
H24   H     H_    0.230333 0.380479 0.142588 0.234466
H25   H     H_    0.357788 0.276768 0.064244 0.164338
H26   H     H_    0.376749 0.336639 0.230981 0.255967
C35   C     C_3   0.089402 0.337845 0.722038 -0.398295
C36   C     C_3   0.072473 0.304793 0.873382 -0.653235
H27   H     H_    0.118657 0.352679 0.946088 0.279203
H28   H     H_    0.007049 0.325476 0.900825 0.272560
H29   H     H_    0.081497 0.204193 0.888528 0.221797
H30   H     H_    0.060893 0.259689 0.664808 0.232115
H31   H     H_    0.158668 0.336686 0.711418 0.197030
C37   C     C_3   0.705240 0.660199 0.151163 -0.311889
C38   C     C_3   0.719898 0.753386 0.270082 -0.797828
H32   H     H_    0.710654 0.848686 0.231630 0.251123
H33   H     H_    0.676218 0.734156 0.354485 0.239337
H34   H     H_    0.785501 0.747281 0.313211 0.257303
H35   H     H_    0.719337 0.566180 0.189749 0.225080
H36   H     H_    0.752691 0.681905 0.072821 0.226305
C39   C     C_3   0.081989 0.229842 0.406633 -0.272410
C40   C     C_3   0.177872 0.219961 0.413322 -0.858077
H37   H     H_    0.206772 0.281058 0.336733 0.247854
H38   H     H_    0.204555 0.240950 0.518985 0.240640
H39   H     H_    0.194920 0.123535 0.387896 0.280040
H40   H     H_    0.056682 0.164832 0.482235 0.280184
H41   H     H_    0.061385 0.185656 0.305558 0.248741
S2    S     S_3+6 0.890129 0.218168 0.446590 -0.024747
O12   O     O_2   0.909785 0.126865 0.334480 -0.267465
O13   O     O_2   0.917008 0.166517 0.585189 -0.311788
O14   O     O_3   0.784933 0.233576 0.441605 -0.563919
H42   H     H_    0.762145 0.154042 0.475745 0.368690
S3    S     S_3+6 0.103549 0.749840 0.470803 0.099006
O15   O     O_2   0.042660 0.848060 0.508294 -0.200106
O16   O     O_2   0.168916 0.739844 0.586419 -0.258012
O17   O     O_3   0.157399 0.804304 0.336195 -0.454631
H43   H     H_    0.210762 0.758459 0.337896 0.352206
S4    S     S_3+6 0.044621 0.607357 0.235176 0.012708
O18   O     O_2   0.130451 0.575550 0.187711 -0.316058
O19   O     O_2   0.979607 0.522687 0.164609 -0.336962
O20   O     O_3   0.020929 0.750858 0.182097 -0.433376
H44   H     H_    0.041902 0.756885 0.086970 0.396932

loop_
_geom_bond_atom_site_label_1
_geom_bond_atom_site_label_2
_ccdc_geom_bond_type
C5    S3    S    
O14   H42   S    
C18   C21   A    
C19   C20   A    
C25   O7    A    
Cu1   O3    S    
C3    C6    S    
C21   N2    A    
C20   H9    S    
C7    C8    T    
C35   C36   S    
C28   H14   S    
C25   O8    A    
C18   C24   S    
C3    C28   S    
C11   C31   S    
C36   H28   S    
O17   H43   S    
C35   H31   S    
S1    O10   D    
C15   C16   S    
S4    O18   D    
C17   H7    S    
C39   H40   S    
C31   H21   S    
C16   C17   S    
C27   C39   S    
C33   C34   S    
Cu1   O7    S    
C1    O1    A    
Cu2   O6    S    
C12   O4    A    
C16   H5    S    
C27   H13   S    
S1    O11   S    
C4    H3    S    
C7    C30   S    
C21   C22   S    
C27   C30   S    
Cu2   N1    S    
C37   H36   S    
Cu2   O8    S    
Cu1   N2    S    
C12   O3    A    
C38   H33   S    
C25   C29   S    
C26   C35   S    
C32   H19   S    
C37   C38   S    
C13   H4    S    
C2    C26   S    
C39   C40   S    
C34   H23   S    
C19   N1    A    
S1    O9    D    
C38   H32   S    
C40   H39   S    
C17   H8    S    
C32   H18   S    
C14   C23   S    
Cu2   O2    S    
C20   N2    A    
C26   S1    S    
Cu1   Cu2   S    
C8    C12   S    
C40   H38   S    
S3    O16   D    
C39   H41   S    
C1    O2    A    
C2    H1    S    
C9    C17   S    
C26   C30   S    
S2    O13   D    
C33   H26   S    
C24   H12   S    
C22   C24   S    
C37   H35   S    
Cu1   O1    S    
C3    C4    S    
Cu2   O4    S    
S3    O15   D    
C23   O5    A    
C5    C30   S    
C9    C10   A    
C38   H34   S    
C28   S2    S    
C31   H20   S    
O20   H44   S    
C36   H27   S    
C1    C10   S    
C4    C5    S    
C18   N1    A    
C34   H24   S    
C23   O6    A    
S2    O14   S    
S4    O20   S    
C32   H17   S    
C2    C3    S    
C9    C15   A    
C34   H22   S    
C11   C13   A    
C36   H29   S    
C2    H2    S    
C22   H10   S    
C35   H30   S    
C40   H37   S    
S4    O19   D    
S3    O17   S    
Cu1   O5    S    
C24   C37   S    
O11   H16   S    
C10   C11   A    
C31   C32   S    
C6    C29   T    
S2    O12   D    
C33   H25   S    
C14   C15   A    
C19   C33   S    
C13   C14   A    
C5    S4    S    
C22   H11   S    
C16   H6    S    
C27   C28   S    
C4    H15   S    
