data_mof_unit_46102.cif
_audit_creation_date              2012-12-10T16:52:12-0500
_audit_creation_method            fapswitch 2.2
_symmetry_space_group_name_H-M    P1
_symmetry_Int_Tables_number       1
_space_group_crystal_system       triclinic
_cell_length_a                    11.00515
_cell_length_b                    10.935897
_cell_length_c                    9.689258
_cell_angle_alpha                 91.121463
_cell_angle_beta                  102.092791
_cell_angle_gamma                 89.851178
_cell_volume                      1140.01741601

loop_
_atom_site_label
_atom_site_type_symbol
_atom_type_description
_atom_site_fract_x
_atom_site_fract_y
_atom_site_fract_z
_atom_type_partial_charge
C1    C     C_R   0.498154 0.265533 0.497763 0.856143
C2    C     C_2   0.525102 0.864842 0.514685 -0.231630
C3    C     C_2   0.552273 0.063039 0.422088 0.289644
C4    C     C_2   0.478229 0.134882 0.485906 0.072554
C5    C     C_2   0.432741 0.425379 0.904524 0.038831
C6    C     C_2   0.430507 0.427338 0.059755 0.018487
C7    C     C_R   0.262925 0.505520 0.443804 0.928551
C8    C     C_R   0.505899 0.734286 0.503063 0.890679
C9    C     C_R   0.737352 0.503115 0.556563 0.878173
C10   C     C_2   0.127674 0.509483 0.414755 -0.408477
C11   C     C_2   0.063617 0.560506 0.505367 0.436508
C12   C     C_2   0.871863 0.519045 0.586372 -0.218860
C13   C     C_2   0.930303 0.536147 0.479995 -0.195618
C14   C     C_2   0.530742 0.931838 0.403137 -0.118217
Cu1   Cu    Cu3+1 0.500020 0.500020 0.638640 1.048588
Cu2   Cu    Cu3+1 0.499980 0.499980 0.361360 1.036973
H1    H     H_    0.880268 0.527880 0.370815 0.170273
H2    H     H_    0.552079 0.564244 0.907755 0.198764
H3    H     H_    0.368076 0.364091 0.094944 0.162303
H4    H     H_    0.560319 0.556765 0.121664 0.197212
H5    H     H_    0.922351 0.522046 0.695480 0.193259
H6    H     H_    0.078766 0.460013 0.321142 0.147922
H7    H     H_    0.527698 0.890069 0.299808 0.194142
H8    H     H_    0.538517 0.907200 0.619139 0.190185
H9    H     H_    0.374258 0.358567 0.837801 0.152402
N1    N     N_2   0.498650 0.498660 0.846590 -0.273040
N2    N     N_2   0.498620 0.498630 0.152710 -0.278885
O1    O     O_R   0.500020 0.321960 0.617050 -0.584340
O2    O     O_R   0.499980 0.321920 0.382890 -0.541524
O3    O     O_R   0.320700 0.500020 0.574050 -0.530470
O4    O     O_R   0.320660 0.499980 0.339890 -0.579881
O5    O     O_R   0.500020 0.678080 0.617110 -0.550051
O6    O     O_R   0.499980 0.678040 0.382950 -0.588614
O7    O     O_R   0.679340 0.500020 0.660110 -0.582884
O8    O     O_R   0.679300 0.499980 0.425950 -0.562149
S1    S     S_3+6 0.130217 0.663244 0.645789 0.050928
O9    O     O_2   0.186324 0.591383 0.774111 -0.303136
O10   O     O_2   0.228856 0.740292 0.603606 -0.227081
O11   O     O_3   0.019107 0.755621 0.684702 -0.506437
H10   H     H_    0.062177 0.807897 0.764602 0.393612
S2    S     S_3+6 0.684877 0.118699 0.365270 0.023669
O12   O     O_2   0.643910 0.183955 0.228266 -0.270405
O13   O     O_2   0.756843 0.205484 0.474429 -0.303886
O14   O     O_3   0.776808 0.000719 0.340347 -0.495962
H11   H     H_    0.848693 0.038509 0.310639 0.399255
S3    S     S_3+6 0.337066 0.084312 0.529279 0.029473
O15   O     O_2   0.276557 0.985599 0.428046 -0.212600
O16   O     O_2   0.363175 0.035639 0.676597 -0.273726
O17   O     O_3   0.237323 0.202269 0.520770 -0.515215
H12   H     H_    0.255914 0.241426 0.615887 0.354561

loop_
_geom_bond_atom_site_label_1
_geom_bond_atom_site_label_2
_ccdc_geom_bond_type
C14   H7    S    
C7    C10   S    
H4    N2    S    
Cu2   O6    S    
C1    O1    A    
S2    O13   D    
S2    O12   D    
Cu1   O7    S    
C6    N2    D    
H2    N1    S    
C13   H1    S    
C1    C4    S    
Cu2   N2    S    
S1    O10   D    
Cu1   O5    S    
C7    O3    A    
C4    S3    S    
C10   H6    S    
Cu2   O4    S    
C6    H3    S    
C11   C13   S    
S3    O17   S    
Cu1   O1    S    
C5    C6    S    
C3    C14   S    
C5    H9    S    
C1    O2    A    
S1    O9    D    
S2    O14   S    
C8    O6    A    
Cu2   O8    S    
C2    H8    S    
C9    O7    A    
C2    C14   D    
C9    C12   S    
S3    O16   D    
C7    O4    A    
C10   C11   D    
Cu1   Cu2   S    
C8    O5    A    
C5    N1    D    
O14   H11   S    
Cu1   O3    S    
O17   H12   S    
O11   H10   S    
C9    O8    A    
S3    O15   D    
C3    S2    S    
Cu1   N1    S    
C12   C13   D    
Cu2   O2    S    
C12   H5    S    
S1    O11   S    
C2    C8    S    
C3    C4    D    
C11   S1    S    
