data_mof_unit_34355.cif
_audit_creation_date              2012-10-26T19:54:46-0400
_audit_creation_method            fapswitch 2.2
_symmetry_space_group_name_H-M    P1
_symmetry_Int_Tables_number       1
_space_group_crystal_system       triclinic
_cell_length_a                    17.742812
_cell_length_b                    16.440323
_cell_length_c                    10.794879
_cell_angle_alpha                 89.893592
_cell_angle_beta                  89.963295
_cell_angle_gamma                 89.9496
_cell_volume                      3148.83257565

loop_
_atom_site_label
_atom_site_type_symbol
_atom_type_description
_atom_site_fract_x
_atom_site_fract_y
_atom_site_fract_z
_atom_type_partial_charge
C1    C     C_R   0.355285 0.500060 0.499844 0.528459
C2    C     C_R   0.542045 0.170747 0.587863 0.192375
C3    C     C_R   0.545417 0.742560 0.580004 0.027741
C4    C     C_R   0.457150 0.257335 0.416239 0.025582
C5    C     C_R   0.454598 0.742986 0.420163 0.028414
C6    C     C_R   0.542579 0.256910 0.583936 0.027971
C7    C     C_R   0.500004 0.872934 0.500329 0.042544
C8    C     C_R   0.499697 0.126941 0.500099 0.035813
C9    C     C_1   0.499899 0.962687 0.500337 0.087166
C10   C     C_1   0.499765 0.037207 0.500210 0.081720
C11   C     C_R   0.500070 0.500045 0.262456 0.535876
C12   C     C_R   0.644711 0.499999 0.500730 0.527849
C13   C     C_R   0.499965 0.499938 0.737521 0.536637
C14   C     C_R   0.631531 0.550072 0.128437 -0.094777
C15   C     C_R   0.368721 0.449318 0.871423 -0.098499
C16   C     C_R   0.631352 0.550292 0.870533 -0.103020
C17   C     C_R   0.368774 0.449420 0.129316 -0.108209
C18   C     C_R   0.695582 0.574527 0.063597 -0.119711
C19   C     C_R   0.304711 0.424724 0.936206 -0.124202
C20   C     C_R   0.695470 0.574710 0.934880 -0.123847
C21   C     C_R   0.304747 0.424755 0.064916 -0.125762
C22   C     C_R   0.565330 0.525706 0.934520 0.006992
C23   C     C_R   0.885244 0.500668 0.505820 0.036426
C24   C     C_R   0.434790 0.474060 0.065383 0.003167
C25   C     C_R   0.565378 0.525717 0.064945 0.008039
C26   C     C_R   0.434775 0.473961 0.934962 0.005946
C27   C     C_R   0.500030 0.499825 0.871048 -0.019428
C28   C     C_R   0.500053 0.500055 0.128888 -0.019809
C29   C     C_R   0.845768 0.574657 0.522705 0.020435
C30   C     C_R   0.153770 0.426328 0.517076 0.019346
C31   C     C_R   0.153891 0.575010 0.485806 0.022340
C32   C     C_R   0.846512 0.426286 0.489007 0.021074
C33   C     C_R   0.766678 0.573118 0.520583 -0.125710
C34   C     C_R   0.114729 0.500830 0.502393 0.036502
C35   C     C_R   0.232863 0.427356 0.515467 -0.127340
C36   C     C_R   0.232997 0.573436 0.485154 -0.113444
C37   C     C_R   0.767409 0.427332 0.487911 -0.115534
C38   C     C_R   0.727558 0.500144 0.502887 -0.037220
C39   C     C_R   0.272425 0.500269 0.500033 -0.036853
C40   C     C_3   0.889724 0.653423 0.542183 -0.268962
C41   C     C_3   0.842682 0.729908 0.565599 -0.463133
C42   C     C_3   0.109342 0.347589 0.534082 -0.275246
C43   C     C_3   0.155907 0.269916 0.550046 -0.453298
C44   C     C_3   0.109585 0.653999 0.469530 -0.268335
C45   C     C_1   0.966229 0.501051 0.505132 -0.059184
C46   C     C_3   0.156233 0.730962 0.447865 -0.462104
C47   C     C_3   0.891287 0.347669 0.472558 -0.274764
C48   C     C_3   0.845082 0.269925 0.456029 -0.451763
C49   C     C_3   0.668582 0.848874 0.651164 -0.014673
C50   C     C_3   0.717664 0.913160 0.712094 -0.364435
C51   C     C_3   0.438368 0.144131 0.206956 -0.012780
C52   C     C_3   0.402308 0.082861 0.119858 -0.364725
C53   C     C_3   0.331124 0.852581 0.354967 -0.013695
C54   C     C_3   0.282729 0.916590 0.291351 -0.364499
C55   C     C_3   0.553939 0.136964 0.791478 -0.012090
C56   C     C_1   0.033748 0.501088 0.504047 -0.059152
C57   C     C_3   0.592921 0.078260 0.879703 -0.364810
C58   C     C_R   0.547820 0.828954 0.580399 0.198898
C59   C     C_R   0.457396 0.171044 0.412232 0.194172
C60   C     C_R   0.452263 0.829310 0.420122 0.197496
Cu1   Cu    Cu3+1 0.500000 0.580420 0.500000 0.916698
Cu2   Cu    Cu3+1 0.500000 0.419580 0.500000 0.908738
H1    H     H_    0.254834 0.406071 0.115163 0.112825
H2    H     H_    0.264526 0.371704 0.526901 0.137607
H3    H     H_    0.264755 0.628897 0.472786 0.131006
H4    H     H_    0.735979 0.371790 0.474664 0.140021
H5    H     H_    0.579677 0.708241 0.644331 0.129673
H6    H     H_    0.422340 0.291304 0.352201 0.132758
H7    H     H_    0.420179 0.709125 0.355762 0.133637
H8    H     H_    0.577131 0.290354 0.648741 0.138537
H9    H     H_    0.806375 0.743665 0.484425 0.142626
H10   H     H_    0.807649 0.722258 0.650117 0.137190
H11   H     H_    0.880839 0.782509 0.580313 0.137101
H12   H     H_    0.745383 0.593362 0.884578 0.109136
H13   H     H_    0.927799 0.645249 0.623010 0.144701
H14   H     H_    0.925393 0.664609 0.459217 0.142064
H15   H     H_    0.191276 0.258887 0.466792 0.155271
H16   H     H_    0.191873 0.274005 0.633998 0.147490
H17   H     H_    0.117358 0.217267 0.561633 0.137747
H18   H     H_    0.072695 0.353908 0.617074 0.144704
H19   H     H_    0.072257 0.339148 0.452179 0.142643
H20   H     H_    0.193314 0.743202 0.528558 0.144327
H21   H     H_    0.190444 0.724987 0.362174 0.140559
H22   H     H_    0.117817 0.783777 0.436183 0.136572
H23   H     H_    0.254769 0.406020 0.886248 0.111569
H24   H     H_    0.071000 0.647049 0.389154 0.144915
H25   H     H_    0.074425 0.663789 0.553453 0.142765
H26   H     H_    0.809005 0.258901 0.538502 0.157050
H27   H     H_    0.809859 0.273899 0.371198 0.150852
H28   H     H_    0.883871 0.217318 0.445725 0.137422
H29   H     H_    0.928376 0.354288 0.390133 0.144967
H30   H     H_    0.927945 0.339068 0.555012 0.143294
H31   H     H_    0.685685 0.844350 0.551896 0.121936
H32   H     H_    0.679336 0.789893 0.698485 0.119065
H33   H     H_    0.703989 0.917528 0.812278 0.152626
H34   H     H_    0.745610 0.592998 0.113509 0.112059
H35   H     H_    0.778024 0.896567 0.701790 0.087469
H36   H     H_    0.707877 0.973246 0.667651 0.184449
H37   H     H_    0.500794 0.137227 0.199560 0.125688
H38   H     H_    0.421818 0.206221 0.176110 0.125652
H39   H     H_    0.339946 0.088159 0.124057 0.151911
H40   H     H_    0.421163 0.094585 0.023348 0.085394
H41   H     H_    0.419050 0.020156 0.146812 0.191052
H42   H     H_    0.315799 0.851856 0.455267 0.122929
H43   H     H_    0.317859 0.792539 0.313164 0.119045
H44   H     H_    0.295131 0.917824 0.190499 0.153865
H45   H     H_    0.634796 0.550015 0.228456 0.132260
H46   H     H_    0.222158 0.902116 0.305001 0.087203
H47   H     H_    0.294553 0.977508 0.331206 0.185815
H48   H     H_    0.492628 0.121849 0.790765 0.126883
H49   H     H_    0.561773 0.199852 0.827184 0.123140
H50   H     H_    0.654319 0.091210 0.882757 0.152790
H51   H     H_    0.569176 0.085034 0.974335 0.087693
H52   H     H_    0.584129 0.014695 0.848206 0.193483
H53   H     H_    0.365492 0.449238 0.771404 0.131999
H54   H     H_    0.634486 0.550451 0.770502 0.122380
H55   H     H_    0.365580 0.449404 0.229341 0.125684
H56   H     H_    0.734684 0.628449 0.533001 0.128468
N1    N     N_R   0.500000 0.701220 0.500000 -0.273406
N2    N     N_R   0.500000 0.298780 0.500000 -0.274925
O1    O     O_R   0.391260 0.567930 0.500000 -0.501510
O2    O     O_3   0.412633 0.129281 0.328790 -0.565079
O3    O     O_3   0.407895 0.871912 0.336568 -0.559847
O4    O     O_3   0.586173 0.129094 0.672439 -0.564101
O5    O     O_R   0.608740 0.432070 0.500000 -0.498333
O6    O     O_R   0.608740 0.567930 0.500000 -0.514985
O7    O     O_R   0.391260 0.432070 0.500000 -0.511878
O8    O     O_R   0.500000 0.567910 0.319660 -0.498999
O9    O     O_R   0.500000 0.432090 0.680340 -0.508065
O10   O     O_R   0.500000 0.567910 0.680340 -0.497249
O11   O     O_R   0.500000 0.432090 0.319660 -0.506124
O12   O     O_3   0.592101 0.871396 0.664072 -0.560867

loop_
_geom_bond_atom_site_label_1
_geom_bond_atom_site_label_2
_ccdc_geom_bond_type
C52   H41   S    
C42   H18   S    
C23   C45   S    
Cu1   N1    S    
C18   H34   S    
C47   H30   S    
C14   C18   A    
C53   C54   S    
C43   H16   S    
C15   C19   A    
C52   H40   S    
C26   C27   A    
C30   C35   A    
C5    N1    A    
C23   C29   A    
C19   C21   A    
C24   C26   A    
C8    C59   A    
Cu2   O7    S    
C50   H33   S    
C57   H50   S    
C12   O6    A    
C53   H42   S    
C43   H17   S    
C29   C33   A    
C4    C59   A    
Cu1   O1    S    
C5    H7    S    
C46   H20   S    
C45   C56   T    
C58   O12   S    
C22   C25   A    
C13   O10   A    
C48   H26   S    
C35   H2    S    
C49   H32   S    
C44   H25   S    
C9    C10   T    
C7    C58   A    
Cu2   N2    S    
C17   H55   S    
C34   C56   S    
C41   H9    S    
C59   O2    S    
C33   H56   S    
C48   H28   S    
Cu2   O9    S    
C2    C6    A    
C42   H19   S    
C44   H24   S    
C16   H54   S    
C6    N2    A    
C44   C46   S    
C51   H37   S    
C49   O12   S    
C2    C8    A    
C52   H39   S    
C50   H36   S    
C17   C24   A    
C31   C44   S    
C30   C34   A    
C51   C52   S    
C6    H8    S    
C1    O7    A    
C53   O3    S    
C4    H6    S    
C54   H44   S    
C36   H3    S    
C15   C26   A    
C57   H51   S    
C12   O5    A    
C17   C21   A    
C40   H14   S    
C54   H47   S    
C25   C28   A    
C60   O3    S    
C35   C39   A    
C37   C38   A    
C4    N2    A    
C47   C48   S    
C16   C20   A    
C37   H4    S    
C31   C34   A    
C20   H12   S    
C32   C37   A    
Cu1   O6    S    
C3    N1    A    
Cu1   O10   S    
C41   H10   S    
C46   H22   S    
C14   H45   S    
C48   H27   S    
C55   C57   S    
C55   H48   S    
C32   C47   S    
C15   H53   S    
C42   C43   S    
C7    C60   A    
C51   H38   S    
C7    C9    S    
C55   O4    S    
C40   C41   S    
C50   H35   S    
C16   C22   A    
C5    C60   A    
C55   H49   S    
C47   H29   S    
Cu2   O11   S    
C36   C39   A    
C30   C42   S    
C24   C28   A    
C19   H23   S    
C11   O11   A    
Cu2   O5    S    
C57   H52   S    
C2    O4    S    
C43   H15   S    
C33   C38   A    
C40   H13   S    
C54   H46   S    
C22   C27   A    
C23   C32   A    
C11   O8    A    
C3    H5    S    
C11   C28   S    
C29   C40   S    
Cu1   O8    S    
C18   C20   A    
C14   C25   A    
C12   C38   S    
Cu1   Cu2   S    
C1    O1    A    
C21   H1    S    
C1    C39   S    
C41   H11   S    
C46   H21   S    
C3    C58   A    
C53   H43   S    
C8    C10   S    
C49   C50   S    
C51   O2    S    
C13   O9    A    
C31   C36   A    
C13   C27   S    
C49   H31   S    
