data_mof_unit_11570.cif
_audit_creation_date              2012-12-11T17:01:24-0500
_audit_creation_method            fapswitch 2.2
_symmetry_space_group_name_H-M    P1
_symmetry_Int_Tables_number       1
_space_group_crystal_system       triclinic
_cell_length_a                    19.393465
_cell_length_b                    7.097814
_cell_length_c                    17.634213
_cell_angle_alpha                 90.000021
_cell_angle_beta                  108.727357
_cell_angle_gamma                 90.0
_cell_volume                      2298.85863386

loop_
_atom_site_label
_atom_site_type_symbol
_atom_type_description
_atom_site_fract_x
_atom_site_fract_y
_atom_site_fract_z
_atom_type_partial_charge
O1    O     O_R   0.413720 0.494330 0.415730 -0.541882
O2    O     O_R   0.586280 0.994330 0.584270 -0.541881
O3    O     O_R   0.560210 0.819300 0.430070 -0.517241
O4    O     O_R   0.439790 0.319300 0.569930 -0.517242
C1    C     C_R   0.580994 0.655114 0.413793 0.770049
C2    C     C_R   0.419006 0.155114 0.586206 0.770047
O5    O     O_R   0.412670 0.823730 0.406310 -0.545877
O6    O     O_R   0.587330 0.323730 0.593690 -0.545877
O7    O     O_R   0.437690 0.998790 0.560340 -0.513150
O8    O     O_R   0.562310 0.498790 0.439660 -0.513150
C3    C     C_R   0.385635 0.655183 0.383072 0.688400
C4    C     C_R   0.614365 0.155183 0.616928 0.688398
O9    O     O_3   0.508380 0.662350 0.550560 -0.368356
O10   O     O_3   0.491620 0.162350 0.449440 -0.368356
V1    V     V_3+5 0.498450 0.935370 0.490620 1.508545
V2    V     V_3+5 0.501550 0.435370 0.509380 1.508545
C5    C     C_R   0.697445 0.992860 0.739665 0.013792
C6    C     C_R   0.302555 0.492859 0.260335 0.013792
C7    C     C_R   0.681329 0.147449 0.687466 -0.098423
C8    C     C_R   0.318671 0.647448 0.312534 -0.098423
C9    C     C_R   0.730767 0.299356 0.706108 -0.175581
C10   C     C_R   0.269233 0.799356 0.293892 -0.175582
H1    H     H_    0.720309 0.423509 0.668729 0.114660
H2    H     H_    0.279691 0.923509 0.331271 0.114660
C11   C     C_R   0.796973 0.286964 0.769648 -0.093266
C12   C     C_R   0.203027 0.786964 0.230352 -0.093265
C13   C     C_R   0.815404 0.123146 0.817128 -0.149231
C14   C     C_R   0.184595 0.623146 0.182872 -0.149231
C15   C     C_R   0.762411 0.982064 0.803243 0.010380
C16   C     C_R   0.237589 0.482064 0.196757 0.010380
C17   C     C_3   0.767797 0.773457 0.791614 0.351332
C18   C     C_3   0.232202 0.273457 0.208386 0.351331
C19   C     C_3   0.696223 0.786648 0.722688 -0.439057
C20   C     C_3   0.303777 0.286648 0.277312 -0.439056
H3    H     H_    0.814605 0.737852 0.770832 0.056470
H4    H     H_    0.185395 0.237852 0.229168 0.056470
H5    H     H_    0.702293 0.756957 0.663251 0.126925
H6    H     H_    0.297707 0.256958 0.336749 0.126925
C21   C     C_R   0.322126 0.994489 0.630253 0.405402
C22   C     C_R   0.677874 0.494490 0.369747 0.405404
C23   C     C_R   0.370895 0.146790 0.637438 -0.309938
C24   C     C_R   0.629105 0.646790 0.362562 -0.309939
C25   C     C_R   0.373171 0.293099 0.693096 0.410685
C26   C     C_R   0.626829 0.793100 0.306904 0.410685
C27   C     C_R   0.323303 0.294826 0.737157 -0.114380
C28   C     C_R   0.676697 0.794827 0.262843 -0.114378
C29   C     C_R   0.276342 0.138297 0.730874 -0.156922
C30   C     C_R   0.723658 0.638298 0.269126 -0.156927
C31   C     C_R   0.276974 0.986899 0.678884 0.046268
C32   C     C_R   0.723027 0.486899 0.321117 0.046267
C33   C     C_R   0.319992 0.447838 0.788093 0.519717
C34   C     C_R   0.680009 0.947840 0.211908 0.519718
C35   C     C_R   0.269180 0.442087 0.830269 -0.324614
C36   C     C_R   0.730820 0.942089 0.169732 -0.324620
C37   C     C_R   0.224332 0.285653 0.825694 0.035607
C38   C     C_R   0.775668 0.785653 0.174306 0.035611
C39   C     C_R   0.228073 0.132674 0.776410 0.105570
C40   C     C_R   0.771928 0.632675 0.223590 0.105565
C41   C     C_R   0.182737 0.974524 0.771962 0.113977
C42   C     C_R   0.817263 0.474525 0.228039 0.113972
C43   C     C_R   0.184988 0.824383 0.721509 -0.229233
C44   C     C_R   0.815012 0.324384 0.278492 -0.229236
C45   C     C_R   0.231149 0.830846 0.675171 -0.067557
C46   C     C_R   0.768851 0.330847 0.324830 -0.067558
C47   C     C_R   0.175182 0.281029 0.869380 -0.210454
C48   C     C_R   0.824819 0.781030 0.130621 -0.210454
C49   C     C_R   0.131033 0.122254 0.866469 -0.086581
C50   C     C_R   0.868967 0.622254 0.133531 -0.086582
C51   C     C_R   0.135476 0.969129 0.817691 -0.235265
C52   C     C_R   0.864524 0.469129 0.182309 -0.235265
H7    H     H_    0.101349 0.846358 0.814332 0.128797
H8    H     H_    0.898651 0.346358 0.185668 0.128797
H9    H     H_    0.150662 0.701819 0.717495 0.126399
H10   H     H_    0.849339 0.201820 0.282505 0.126400
H11   H     H_    0.231110 0.711753 0.636767 0.157374
H12   H     H_    0.768891 0.211754 0.363234 0.157375
O11   O     O_R   0.937800 0.775460 0.060470 -0.540576
O12   O     O_R   0.062200 0.275460 0.939530 -0.540576
O13   O     O_R   0.087350 0.441340 0.093710 -0.539209
O14   O     O_R   0.912650 0.941340 0.906290 -0.539209
C53   C     C_R   0.114770 0.610306 0.116356 0.685792
C54   C     C_R   0.885230 0.110306 0.883644 0.685792
O15   O     O_R   0.939820 0.446010 0.069950 -0.544322
O16   O     O_R   0.060180 0.946010 0.930050 -0.544322
O17   O     O_R   0.913690 0.271230 0.915700 -0.527904
O18   O     O_R   0.086310 0.771230 0.084300 -0.527904
C55   C     C_R   0.918556 0.614383 0.084723 0.717794
C56   C     C_R   0.081444 0.114383 0.915277 0.717795
O19   O     O_3   0.991670 0.603050 0.949510 -0.374336
O20   O     O_3   0.008330 0.103050 0.050490 -0.374336
V3    V     V_3+5 0.001550 0.329940 0.009370 1.431657
V4    V     V_3+5 0.998450 0.829940 0.990630 1.431657
H13   H     H_    0.263595 0.561587 0.865994 0.137674
H14   H     H_    0.736406 0.061588 0.134007 0.137670
H15   H     H_    0.172367 0.399862 0.906895 0.123610
H16   H     H_    0.827633 0.899863 0.093105 0.123610
H17   H     H_    0.835252 0.402364 0.779324 0.133850
H18   H     H_    0.164748 0.902364 0.220676 0.133850
O21   O     O_3   0.764364 0.650643 0.854479 -0.539290
C57   C     C_3   0.731525 0.731206 0.907724 -0.201522
H19   H     H_    0.675864 0.784302 0.875652 0.119986
H20   H     H_    0.766256 0.844979 0.943739 0.126586
H21   H     H_    0.726460 0.620648 0.950086 0.146581
O22   O     O_3   0.235636 0.150643 0.145521 -0.539290
C58   C     C_3   0.268475 0.231205 0.092276 -0.201521
H22   H     H_    0.324136 0.284302 0.124348 0.119987
H23   H     H_    0.233744 0.344979 0.056261 0.126586
H24   H     H_    0.273540 0.120647 0.049914 0.146582
H25   H     H_    0.649694 0.714132 0.734049 0.182390
H26   H     H_    0.350306 0.214132 0.265951 0.182390
O23   O     O_3   0.320300 0.848512 0.577525 -0.523144
C59   C     C_3   0.268026 0.891653 0.503076 -0.248595
H27   H     H_    0.284018 0.018544 0.475631 0.107585
H28   H     H_    0.212903 0.911863 0.508549 0.112812
H29   H     H_    0.264616 0.771321 0.461933 0.152732
O24   O     O_3   0.679701 0.348512 0.422475 -0.523144
C60   C     C_3   0.731974 0.391653 0.496924 -0.248593
H30   H     H_    0.715982 0.518544 0.524369 0.107585
H31   H     H_    0.787097 0.411863 0.491451 0.112812
H32   H     H_    0.735383 0.271321 0.538067 0.152732
O25   O     O_3   0.423754 0.436493 0.703241 -0.498327
C61   C     C_3   0.489217 0.379563 0.761496 -0.116743
H33   H     H_    0.480984 0.349400 0.819952 0.102232
H34   H     H_    0.529127 0.496381 0.771140 0.142065
H35   H     H_    0.513291 0.254689 0.741239 0.076527
O26   O     O_3   0.576246 0.936492 0.296760 -0.498326
C62   C     C_3   0.510783 0.879564 0.238502 -0.116740
H36   H     H_    0.519017 0.849414 0.180046 0.102239
H37   H     H_    0.470873 0.996378 0.228861 0.142066
H38   H     H_    0.486710 0.754683 0.258756 0.076522
O27   O     O_3   0.360810 0.609414 0.788439 -0.512868
C63   C     C_3   0.393047 0.681380 0.866492 -0.235731
H39   H     H_    0.412999 0.568059 0.912038 0.100003
H40   H     H_    0.354551 0.776433 0.882826 0.135757
H41   H     H_    0.440924 0.767449 0.866953 0.153598
O28   O     O_3   0.639191 0.109416 0.211563 -0.512868
C64   C     C_3   0.606967 0.181419 0.133515 -0.235744
H42   H     H_    0.587022 0.068121 0.087957 0.100008
H43   H     H_    0.645472 0.276484 0.117201 0.135770
H44   H     H_    0.559089 0.267484 0.133050 0.153597

loop_
_geom_bond_atom_site_label_1
_geom_bond_atom_site_label_2
_ccdc_geom_bond_type
O15   C55   A    
C1    C24   S    
O11   V4    S    
O4    V2    S    
O26   C62   S    
C31   C45   A    
C13   C15   A    
C5    C15   A    
C48   C50   A    
O23   C59   S    
O1    C3    A    
O2    C4    A    
C2    O7    A    
C59   H28   S    
O17   V3    S    
C29   C31   A    
O5    C3    A    
C58   H23   S    
C26   O26   S    
C49   C56   S    
C5    C19   S    
C18   H4    S    
C7    C9    A    
C30   C32   A    
C60   H31   S    
C38   C48   A    
C39   C41   A    
C27   C33   A    
C40   C42   A    
C28   C34   A    
C32   C46   A    
O24   C60   S    
C6    C8    A    
C42   C44   A    
C27   C29   A    
C51   H7    S    
O22   C58   S    
C44   C46   A    
C37   C47   A    
C34   C36   A    
C63   H39   S    
C47   C49   A    
C2    C23   S    
C17   C19   S    
C6    C16   A    
C17   O21   S    
O19   V3    S    
C25   O25   S    
O13   V3    S    
C53   O18   A    
C21   O23   S    
O6    V2    S    
C22   C24   A    
C23   C25   A    
C24   C26   A    
C57   H20   S    
C59   H27   S    
C58   H24   S    
C26   C28   A    
C28   C30   A    
C35   C37   A    
C64   H44   S    
C36   C38   A    
C3    C8    S    
C41   C43   A    
C47   H15   S    
C35   H13   S    
C21   C23   A    
C60   H32   S    
O13   C53   A    
C33   O27   S    
C43   H9    S    
C57   H21   S    
C19   H5    S    
C49   C51   A    
C18   C20   S    
O14   V4    S    
C62   H37   S    
C29   C39   A    
C64   H43   S    
O20   V4    S    
O21   C57   S    
C42   C52   A    
O6    C4    A    
C18   O22   S    
C46   H12   S    
O1    V2    S    
O19   V4    S    
O2    V1    S    
C6    C20   S    
O25   C61   S    
C12   H18   S    
C63   H40   S    
C11   H17   S    
C21   C31   A    
C41   C51   A    
C9    H1    S    
C34   O28   S    
C17   H3    S    
O4    C2    A    
C19   H25   S    
C61   H34   S    
C62   H36   S    
O18   V4    S    
O3    V1    S    
C48   H16   S    
C58   H22   S    
O12   C56   A    
C9    C11   A    
C14   C53   S    
C20   H6    S    
C13   C54   S    
C43   C45   A    
O16   C56   A    
C8    C10   A    
O28   C64   S    
O3    C1    A    
C30   C40   A    
O12   V3    S    
C11   C13   A    
C54   O17   A    
O15   V3    S    
C64   H42   S    
C12   C14   A    
C61   H35   S    
C37   C39   A    
O7    V1    S    
C62   H38   S    
C14   C16   A    
C15   C17   S    
O8    V2    S    
C60   H30   S    
C16   C18   S    
O20   V3    S    
C22   O24   S    
C45   H11   S    
C63   H41   S    
C22   C32   A    
C4    C7    S    
O5    V1    S    
C57   H19   S    
C5    C7    A    
O14   C54   A    
C38   C40   A    
C10   H2    S    
C36   H14   S    
C1    O8    A    
O11   C55   A    
C50   C52   A    
C10   C12   A    
O9    V2    S    
C50   C55   S    
O10   V1    S    
C44   H10   S    
C52   H8    S    
O16   V4    S    
C20   H26   S    
C33   C35   A    
C61   H33   S    
C25   C27   A    
C59   H29   S    
O27   C63   S    
