data_mof_unit_27264.cif
_audit_creation_date              2012-12-10T17:46:24-0500
_audit_creation_method            fapswitch 2.2
_symmetry_space_group_name_H-M    P1
_symmetry_Int_Tables_number       1
_space_group_crystal_system       triclinic
_cell_length_a                    20.649689
_cell_length_b                    21.337563
_cell_length_c                    14.718404
_cell_angle_alpha                 90.013066
_cell_angle_beta                  127.843882
_cell_angle_gamma                 90.238391
_cell_volume                      5121.1404701

loop_
_atom_site_label
_atom_site_type_symbol
_atom_type_description
_atom_site_fract_x
_atom_site_fract_y
_atom_site_fract_z
_atom_type_partial_charge
C1    C     C_R   0.601498 0.912844 0.629935 0.817939
C2    C     C_R   0.399771 0.088066 0.371660 0.816109
C3    C     C_R   0.397078 0.913573 0.368512 0.818934
C4    C     C_R   0.600601 0.087882 0.628534 0.813806
C5    C     C_R   0.102031 0.413173 0.630525 0.819777
C6    C     C_R   0.899405 0.587757 0.371212 0.814948
C7    C     C_R   0.897344 0.413408 0.368791 0.816365
C8    C     C_R   0.100730 0.587856 0.628693 0.812997
C9    C     C_R   0.311167 0.788674 0.902675 -0.200777
C10   C     C_R   0.657465 0.234895 0.060259 -0.220789
C11   C     C_R   0.689715 0.787481 0.098294 -0.215450
C12   C     C_R   0.334946 0.230254 0.928768 -0.220891
C13   C     C_R   0.808637 0.290173 0.899074 -0.215823
C14   C     C_R   0.149923 0.741501 0.051417 -0.226104
C15   C     C_R   0.191627 0.289043 0.099680 -0.198094
C16   C     C_R   0.820376 0.719526 0.913274 -0.209526
C17   C     C_R   0.321440 0.991584 0.665028 -0.267089
C18   C     C_R   0.678983 0.003824 0.335380 -0.270010
C19   C     C_R   0.821285 0.506680 0.664856 -0.268633
C20   C     C_R   0.178229 0.490041 0.334733 -0.268170
C21   C     C_R   0.351567 0.995715 0.602733 0.025113
C22   C     C_R   0.648551 0.002631 0.397455 0.029922
C23   C     C_R   0.851580 0.503976 0.602669 0.038753
C24   C     C_R   0.148270 0.494767 0.397143 0.015566
C25   C     C_R   0.487944 0.001010 0.775145 0.075835
C26   C     C_R   0.512192 0.997993 0.224874 0.086749
C27   C     C_R   0.987710 0.497406 0.775076 0.083970
C28   C     C_R   0.012134 0.501911 0.224924 0.073150
C29   C     C_R   0.461311 0.997422 0.844534 -0.058029
C30   C     C_R   0.539155 0.998272 0.155757 -0.059064
C31   C     C_R   0.960810 0.498943 0.844252 -0.057104
C32   C     C_R   0.038665 0.498125 0.155460 -0.059329
C33   C     C_R   0.375577 0.992121 0.786161 0.090730
C34   C     C_R   0.625019 0.001943 0.214277 0.090683
C35   C     C_R   0.875217 0.504792 0.785930 0.092412
C36   C     C_R   0.124109 0.491126 0.213630 0.091563
C37   C     C_R   0.516245 0.998620 0.968534 0.021202
C38   C     C_R   0.484394 0.995500 0.031851 0.021475
C39   C     C_R   0.015438 0.495627 0.968069 0.022000
C40   C     C_R   0.983848 0.500401 0.031550 0.022722
C41   C     C_R   0.398913 0.988913 0.969342 -0.256461
C42   C     C_R   0.601993 0.002607 0.031241 -0.254140
C43   C     C_R   0.898500 0.507393 0.969109 -0.258803
C44   C     C_R   0.100500 0.486935 0.030306 -0.254200
C45   C     C_R   0.345518 0.987077 0.849603 0.251807
C46   C     C_R   0.655402 0.003807 0.151011 0.252260
C47   C     C_R   0.845122 0.509073 0.849383 0.249447
C48   C     C_R   0.153858 0.484770 0.150005 0.249920
C49   C     C_R   0.652589 0.142104 0.694079 -0.152595
C50   C     C_R   0.335043 0.866442 0.290434 -0.133860
C51   C     C_R   0.347186 0.141568 0.304381 -0.140203
C52   C     C_R   0.658069 0.862194 0.702114 -0.143350
C53   C     C_R   0.152961 0.642050 0.694513 -0.152349
C54   C     C_R   0.836559 0.365353 0.291892 -0.142925
C55   C     C_R   0.845603 0.640320 0.302506 -0.141730
C56   C     C_R   0.161148 0.364284 0.705279 -0.131943
C57   C     C_R   0.765396 0.211288 0.754300 -0.197335
C58   C     C_R   0.209999 0.809508 0.216435 -0.193248
C59   C     C_R   0.237587 0.212571 0.248513 -0.192838
C60   C     C_R   0.769342 0.792947 0.758486 -0.193406
C61   C     C_R   0.267865 0.709615 0.758255 -0.199453
C62   C     C_R   0.715799 0.303888 0.223499 -0.198136
C63   C     C_R   0.737524 0.712246 0.249589 -0.192444
C64   C     C_R   0.279250 0.301276 0.769430 -0.190340
C65   C     C_R   0.715664 0.160405 0.689373 -0.268434
C66   C     C_R   0.270875 0.851728 0.294985 -0.278507
C67   C     C_R   0.287405 0.162236 0.314116 -0.281280
C68   C     C_R   0.716178 0.841039 0.689266 -0.272150
C69   C     C_R   0.217634 0.659087 0.692586 -0.270732
C70   C     C_R   0.774701 0.347845 0.299763 -0.273647
C71   C     C_R   0.788062 0.662349 0.315836 -0.281830
C72   C     C_R   0.222161 0.346468 0.696053 -0.279024
C73   C     C_R   0.637868 0.176739 0.761236 0.387657
C74   C     C_R   0.338408 0.837549 0.207529 0.384867
C75   C     C_R   0.358156 0.173053 0.230607 0.367515
C76   C     C_R   0.653733 0.834648 0.785243 0.364230
C77   C     C_R   0.136826 0.677900 0.759022 0.391386
C78   C     C_R   0.839133 0.338098 0.206988 0.364385
C79   C     C_R   0.852854 0.669423 0.223293 0.364261
C80   C     C_R   0.157456 0.335907 0.788302 0.382567
C81   C     C_R   0.699117 0.217934 0.846217 -0.003749
C82   C     C_R   0.269031 0.804645 0.114725 -0.022800
C83   C     C_R   0.297553 0.215005 0.147594 -0.015574
C84   C     C_R   0.717320 0.795156 0.869586 -0.008147
C85   C     C_R   0.197904 0.719120 0.844714 -0.005920
C86   C     C_R   0.771454 0.302868 0.117017 -0.005426
C87   C     C_R   0.791227 0.710647 0.140587 -0.011414
C88   C     C_R   0.224357 0.299862 0.876757 -0.023075
C89   C     C_R   0.758402 0.239580 0.833828 0.103127
C90   C     C_R   0.208610 0.785901 0.126404 0.119111
C91   C     C_R   0.241531 0.238609 0.164582 0.110336
C92   C     C_R   0.770128 0.769725 0.848176 0.107305
C93   C     C_R   0.259497 0.738990 0.835688 0.103406
C94   C     C_R   0.713857 0.281182 0.132509 0.114219
C95   C     C_R   0.738468 0.736379 0.161873 0.111520
C96   C     C_R   0.280656 0.277764 0.859470 0.116490
C97   C     C_R   0.703519 0.238649 0.942005 0.063791
C98   C     C_R   0.260352 0.786893 0.014506 0.053366
C99   C     C_R   0.291208 0.234735 0.049778 0.063075
C100  C     C_R   0.727826 0.778066 0.971357 0.059104
C101  C     C_R   0.200409 0.741267 0.938428 0.069404
C102  C     C_R   0.761660 0.285756 0.015699 0.057691
C103  C     C_R   0.781987 0.728493 0.040010 0.056861
C104  C     C_R   0.234460 0.282522 0.978147 0.056425
C105  C     C_R   0.308725 0.814298 0.986976 -0.146433
C106  C     C_R   0.655916 0.211237 0.971171 -0.154778
C107  C     C_R   0.688387 0.810346 0.009042 -0.147681
C108  C     C_R   0.336183 0.206260 0.017374 -0.168390
C109  C     C_R   0.806775 0.315192 0.984279 -0.144083
C110  C     C_R   0.149241 0.716668 0.963681 -0.165619
C111  C     C_R   0.191319 0.312710 0.011750 -0.148799
C112  C     C_R   0.822126 0.696697 0.002905 -0.147546
Cu1   Cu    Cu3+1 0.526640 1.000000 0.436960 0.952729
Cu2   Cu    Cu3+1 0.473360 1.000000 0.563040 0.946458
Cu3   Cu    Cu3+1 0.026640 0.500000 0.436960 0.945804
Cu4   Cu    Cu3+1 0.973360 0.500000 0.563040 0.949981
H1    H     H_    0.353627 0.807950 0.889741 0.150212
H2    H     H_    0.616996 0.214647 0.076128 0.146595
H3    H     H_    0.654295 0.811087 0.119795 0.151331
H4    H     H_    0.373990 0.209467 0.911039 0.148012
H5    H     H_    0.848942 0.310976 0.883387 0.150221
H6    H     H_    0.106904 0.723452 0.064246 0.145529
H7    H     H_    0.153441 0.310925 0.117983 0.152804
H8    H     H_    0.856080 0.696187 0.891997 0.152388
H9    H     H_    0.371008 0.984204 0.011224 0.165289
H10   H     H_    0.630285 0.004524 0.989629 0.167320
H11   H     H_    0.870531 0.511726 0.010910 0.167201
H12   H     H_    0.128048 0.480843 0.988202 0.165240
H13   H     H_    0.268449 0.872004 0.360314 0.180389
H14   H     H_    0.725394 0.136317 0.633894 0.178208
H15   H     H_    0.718869 0.860270 0.623549 0.178758
H16   H     H_    0.280340 0.140424 0.374029 0.176151
H17   H     H_    0.772902 0.367013 0.366327 0.180034
H18   H     H_    0.228489 0.634093 0.639042 0.181443
H19   H     H_    0.224581 0.366306 0.630444 0.180449
H20   H     H_    0.783677 0.642223 0.379444 0.173047
H21   H     H_    0.315618 0.723922 0.752405 0.155722
H22   H     H_    0.670931 0.288386 0.234484 0.154935
H23   H     H_    0.696299 0.730964 0.264978 0.144846
H24   H     H_    0.323247 0.285540 0.757139 0.149906
H25   H     H_    0.811461 0.226892 0.745787 0.147648
H26   H     H_    0.163073 0.796263 0.224649 0.154105
H27   H     H_    0.194046 0.229798 0.260633 0.151908
H28   H     H_    0.810798 0.774628 0.743216 0.150789
H29   H     H_    0.345697 0.855658 0.030131 0.201104
H30   H     H_    0.618377 0.170158 0.929117 0.207517
H31   H     H_    0.656822 0.854080 0.972090 0.206567
H32   H     H_    0.371781 0.164419 0.056943 0.208331
H33   H     H_    0.841218 0.357893 0.024241 0.205433
H34   H     H_    0.109376 0.676930 0.919782 0.209499
H35   H     H_    0.156935 0.355112 0.971429 0.202532
H36   H     H_    0.854365 0.653258 0.040164 0.206329
H37   H     H_    0.448303 0.996890 0.187859 0.135096
H38   H     H_    0.551678 0.004064 0.811864 0.137899
H39   H     H_    0.948487 0.505440 0.188276 0.143049
H40   H     H_    0.051541 0.495197 0.812086 0.134544
H41   H     H_    0.690495 0.004213 0.490471 0.132094
H42   H     H_    0.309533 0.994578 0.509702 0.134248
H43   H     H_    0.190251 0.493132 0.490127 0.135655
H44   H     H_    0.809675 0.505839 0.509692 0.131373
H45   H     H_    0.255790 0.987789 0.617263 0.195168
H46   H     H_    0.744735 0.006360 0.383293 0.193639
H47   H     H_    0.755688 0.510551 0.617071 0.193921
H48   H     H_    0.243706 0.485216 0.382372 0.194296
N1    N     N_R   0.433280 0.000000 0.657760 -0.185062
N2    N     N_R   0.566720 1.000000 0.342240 -0.180764
N3    N     N_R   0.933280 0.500000 0.657760 -0.179689
N4    N     N_R   0.066720 0.500000 0.342240 -0.188876
O1    O     O_R   0.600040 0.935040 0.546740 -0.605263
O2    O     O_R   0.399960 0.064960 0.453260 -0.606183
O3    O     O_R   0.399960 0.935040 0.453260 -0.605721
O4    O     O_R   0.600040 0.064960 0.546740 -0.603712
O5    O     O_R   0.100040 0.435040 0.546740 -0.606461
O6    O     O_R   0.899960 0.564960 0.453260 -0.607079
O7    O     O_R   0.899960 0.435040 0.453260 -0.606034
O8    O     O_R   0.100040 0.564960 0.546740 -0.600381
O9    O     O_R   0.555010 0.935070 0.653220 -0.537040
O10   O     O_R   0.444990 0.064930 0.346780 -0.535229
O11   O     O_R   0.444990 0.935070 0.346780 -0.538387
O12   O     O_R   0.555010 0.064930 0.653220 -0.547911
O13   O     O_R   0.055010 0.435070 0.653220 -0.539199
O14   O     O_R   0.944990 0.564930 0.346780 -0.537222
O15   O     O_R   0.944990 0.435070 0.346780 -0.537155
O16   O     O_R   0.055010 0.564930 0.653220 -0.546139
O17   O     O_3   0.411371 0.839204 0.221874 -0.623131
C113  C     C_3   0.453240 0.781542 0.267457 0.060241
H49   H     H_    0.487637 0.773191 0.233077 0.165298
H50   H     H_    0.411541 0.740324 0.240568 0.139497
C114  C     C_3   0.514672 0.785276 0.398912 -0.354546
H51   H     H_    0.557115 0.825411 0.424120 0.244178
H52   H     H_    0.481275 0.792960 0.434862 0.190972
C115  C     C_3   0.564566 0.725282 0.450016 -0.894056
H53   H     H_    0.523345 0.684445 0.426115 0.269581
H54   H     H_    0.607320 0.729273 0.545278 0.267579
H55   H     H_    0.600925 0.717512 0.418528 0.252243
O18   O     O_3   0.563363 0.171301 0.742133 -0.628506
C116  C     C_3   0.500270 0.201092 0.637957 0.095649
H56   H     H_    0.441583 0.177361 0.605120 0.179410
H57   H     H_    0.507173 0.196416 0.568918 0.099208
C117  C     C_3   0.493938 0.270322 0.658717 -0.385180
H58   H     H_    0.485914 0.274403 0.726579 0.229976
H59   H     H_    0.551313 0.295243 0.688642 0.229130
C118  C     C_3   0.421535 0.301299 0.548714 -0.862986
H60   H     H_    0.428743 0.298155 0.479974 0.260190
H61   H     H_    0.418641 0.351494 0.565796 0.269356
H62   H     H_    0.363105 0.278122 0.518505 0.248706
O19   O     O_3   0.585207 0.844295 0.779933 -0.623714
C119  C     C_3   0.525602 0.798170 0.708207 0.075680
H63   H     H_    0.546619 0.751399 0.750185 0.152586
H64   H     H_    0.513107 0.796064 0.623059 0.128790
C120  C     C_3   0.445879 0.814927 0.688298 -0.301567
H65   H     H_    0.456482 0.815526 0.772045 0.212647
H66   H     H_    0.426232 0.862493 0.650072 0.246143
C121  C     C_3   0.377465 0.768271 0.607428 -0.951500
H67   H     H_    0.364811 0.767906 0.522357 0.266515
H68   H     H_    0.320639 0.782099 0.594747 0.260730
H69   H     H_    0.394873 0.720416 0.644658 0.261640
O20   O     O_3   0.430311 0.164471 0.244880 -0.621346
C122  C     C_3   0.485772 0.213144 0.314777 0.061373
H70   H     H_    0.494498 0.216692 0.397231 0.123081
H71   H     H_    0.462993 0.258727 0.268585 0.157509
C123  C     C_3   0.568695 0.198940 0.342570 -0.305749
H72   H     H_    0.591987 0.153640 0.389240 0.239638
H73   H     H_    0.561038 0.194530 0.261176 0.215367
C124  C     C_3   0.631409 0.250451 0.416658 -0.938608
H74   H     H_    0.610809 0.295707 0.369714 0.260482
H75   H     H_    0.691291 0.238011 0.437299 0.256530
H76   H     H_    0.639848 0.255866 0.498401 0.271603
O21   O     O_3   0.909395 0.344199 0.215301 -0.623841
C125  C     C_3   0.965179 0.296627 0.287390 0.077531
H77   H     H_    0.941838 0.250297 0.243495 0.153990
H78   H     H_    0.975084 0.294895 0.370847 0.125977
C126  C     C_3   0.047548 0.310447 0.312689 -0.306574
H79   H     H_    0.039534 0.310655 0.230772 0.213994
H80   H     H_    0.069673 0.357580 0.353038 0.245708
C127  C     C_3   0.111880 0.261891 0.393701 -0.941178
H81   H     H_    0.121489 0.261497 0.476703 0.267503
H82   H     H_    0.170997 0.273769 0.411136 0.251783
H83   H     H_    0.092170 0.214510 0.353996 0.263323
O22   O     O_3   0.061054 0.673577 0.736316 -0.627863
C128  C     C_3   0.999934 0.703449 0.631004 0.089181
H84   H     H_    0.940175 0.681216 0.596875 0.177459
H85   H     H_    0.008151 0.696945 0.563547 0.099520
C129  C     C_3   0.995336 0.773351 0.649853 -0.377994
H86   H     H_    0.985746 0.779256 0.715876 0.230330
H87   H     H_    0.053913 0.796771 0.681335 0.234119
C130  C     C_3   0.925153 0.804601 0.538225 -0.863441
H88   H     H_    0.933984 0.799618 0.471309 0.256626
H89   H     H_    0.923514 0.855258 0.553933 0.271537
H90   H     H_    0.865539 0.783000 0.506350 0.249528
O23   O     O_3   0.086291 0.341053 0.778109 -0.623507
C131  C     C_3   0.039451 0.285036 0.731804 0.053895
H91   H     H_    0.011884 0.276265 0.775958 0.164256
H92   H     H_    0.076265 0.242584 0.746672 0.138930
C132  C     C_3   0.970159 0.292907 0.602980 -0.329700
H93   H     H_    0.932240 0.333937 0.589570 0.245860
H94   H     H_    0.996673 0.301492 0.557418 0.191082
C133  C     C_3   0.915425 0.234752 0.551713 -0.916395
H95   H     H_    0.951969 0.193083 0.563655 0.270201
H96   H     H_    0.866647 0.241671 0.458148 0.268243
H97   H     H_    0.886008 0.226260 0.593384 0.251446
O24   O     O_3   0.922587 0.659706 0.231638 -0.623656
C134  C     C_3   0.980871 0.706771 0.302341 0.066962
H98   H     H_    0.993258 0.708835 0.387426 0.123204
H99   H     H_    0.958629 0.753273 0.259536 0.151389
C135  C     C_3   0.061026 0.691503 0.322501 -0.300111
H100  H     H_    0.083258 0.644935 0.364521 0.242592
H101  H     H_    0.049873 0.689273 0.238440 0.213678
C136  C     C_3   0.127028 0.740694 0.398676 -0.946619
H102  H     H_    0.106983 0.787437 0.357071 0.259565
H103  H     H_    0.184397 0.727892 0.412074 0.261576
H104  H     H_    0.139905 0.743184 0.483784 0.271188
Br1   Br    Br    0.230767 0.976609 0.777983 -0.559468
Br2   Br    Br    0.770730 0.008521 0.222985 -0.557094
Br3   Br    Br    0.730379 0.518535 0.777826 -0.559368
Br4   Br    Br    0.267999 0.471556 0.221302 -0.564816

loop_
_geom_bond_atom_site_label_1
_geom_bond_atom_site_label_2
_ccdc_geom_bond_type
C87   C103  A    
C134  C135  S    
C118  H60   S    
C132  H94   S    
C69   H18   S    
C14   H6    S    
C29   C33   A    
C114  C115  S    
C33   C45   A    
C21   H42   S    
C73   O18   S    
C5    C56   S    
C85   C93   A    
C67   H16   S    
C6    C55   S    
C64   C72   A    
C61   H21   S    
C76   C84   A    
C88   C96   A    
C65   H14   S    
C57   C89   A    
C24   H43   S    
O20   C122  S    
C134  H98   S    
C129  H86   S    
C78   O21   S    
C99   C108  A    
C118  H61   S    
C30   C38   A    
C46   Br2   S    
C98   C105  A    
C49   C65   A    
C6    O14   A    
C106  H30   S    
C32   C36   A    
C24   N4    A    
C51   C75   A    
C1    C52   S    
C50   C74   A    
C14   C110  A    
C64   H24   S    
Cu3   N4    S    
C47   Br3   S    
C10   C94   A    
C9    C105  A    
Cu3   Cu4   S    
C20   H48   S    
C63   C95   A    
C124  H76   S    
C21   N1    A    
C127  H81   S    
C62   C70   A    
C125  C126  S    
C114  H52   S    
C128  H84   S    
C42   C46   A    
C5    O13   A    
C37   C42   A    
C116  H57   S    
C3    O11   A    
C14   C90   A    
C13   C109  A    
C86   C94   A    
C59   C67   A    
C12   H4    S    
C1    O9    A    
C58   C66   A    
C40   C43   A    
C44   H12   S    
C20   C24   A    
C129  H87   S    
C117  H58   S    
C56   C72   A    
C80   O23   S    
C87   C95   A    
C70   H17   S    
C13   H5    S    
Cu4   O6    S    
Cu4   N3    S    
C36   C48   A    
C26   H37   S    
C34   C46   A    
C116  H56   S    
C126  H79   S    
C97   C102  A    
C52   C68   A    
C76   O19   S    
Cu2   O2    S    
C17   H45   S    
C74   O17   S    
C81   C89   A    
C8    O16   A    
C130  H89   S    
Cu1   O10   S    
C132  C133  S    
C59   H27   S    
C117  C118  S    
C83   C99   A    
C136  H102  S    
C23   H44   S    
C82   C98   A    
C15   H7    S    
C17   C33   A    
C74   C82   A    
C110  H34   S    
C73   C81   A    
C88   C104  A    
C3    C50   S    
Cu1   O4    S    
C60   C92   A    
C25   C29   A    
Cu2   O3    S    
C118  H62   S    
C30   C34   A    
C127  H82   S    
C27   C31   A    
O19   C119  S    
C84   C100  A    
C115  H55   S    
C15   C111  A    
C107  H31   S    
O23   C131  S    
C80   C88   A    
C64   C96   A    
C38   C41   A    
C11   H3    S    
C2    C51   S    
C43   H11   S    
C39   C40   A    
C12   C108  A    
C28   N4    A    
C121  H67   S    
C119  H63   S    
C72   H19   S    
Cu1   O1    S    
C6    O6    A    
C75   O20   S    
C25   N1    A    
C53   C69   A    
C15   C91   A    
C135  C136  S    
C100  C103  A    
C17   C21   A    
C7    O7    A    
C103  C112  A    
C128  H85   S    
C22   N2    A    
C68   H15   S    
C19   C23   A    
C37   C38   A    
C10   H2    S    
C41   H9    S    
C122  H71   S    
C55   C79   A    
C58   H26   S    
C84   C92   A    
C120  H65   S    
C54   C70   A    
C28   C32   A    
C109  H33   S    
C125  H78   S    
Cu2   O9    S    
C105  H29   S    
Cu4   O13   S    
C50   C66   A    
C112  H36   S    
C124  H74   S    
C111  H35   S    
C19   H47   S    
C82   C90   A    
C62   H22   S    
C123  H73   S    
C126  H80   S    
C79   C87   A    
C135  H101  S    
C2    O2    A    
C131  C132  S    
C23   N3    A    
C97   C106  A    
C48   Br4   S    
C119  H64   S    
C120  H66   S    
C63   C71   A    
C26   C30   A    
Cu2   O12   S    
C116  C117  S    
C136  H103  S    
C11   C107  A    
C53   C77   A    
C49   C73   A    
C10   C106  A    
C133  H97   S    
C113  H49   S    
C39   C44   A    
C113  H50   S    
C132  H93   S    
C86   C102  A    
C9    C93   A    
C133  H96   S    
C122  H70   S    
Cu3   O14   S    
C85   C101  A    
C16   C112  A    
Cu2   N1    S    
C131  H92   S    
Cu1   Cu2   S    
C59   C91   A    
C130  H90   S    
C11   C95   A    
C27   H40   S    
C134  H99   S    
C26   N2    A    
C100  C107  A    
C4    O4    A    
Cu4   O7    S    
C13   C89   A    
C25   H38   S    
C18   C22   A    
C5    O5    A    
C101  C110  A    
C57   C65   A    
O18   C116  S    
C52   C76   A    
C121  H69   S    
C56   C80   A    
C8    C53   S    
C75   C83   A    
C104  C111  A    
Cu3   O15   S    
C130  H88   S    
C8    O8    A    
C16   C92   A    
O24   C134  S    
C22   H41   S    
C63   H23   S    
Cu3   O8    S    
C98   C101  A    
C83   C91   A    
C123  C124  S    
C77   O22   S    
C57   H25   S    
C4    C49   S    
C58   C90   A    
C128  C129  S    
C61   C69   A    
C115  H53   S    
C66   H13   S    
Cu1   O11   S    
C62   C94   A    
C133  H95   S    
C4    O12   A    
C121  H68   S    
C125  H77   S    
Cu3   O5    S    
C129  C130  S    
C19   C35   A    
C60   H28   S    
C122  C123  S    
C18   H46   S    
C113  C114  S    
C3    O3    A    
O17   C113  S    
C51   C67   A    
C81   C97   A    
C18   C34   A    
C119  C120  S    
C45   Br1   S    
Cu4   O16   S    
C1    O1    A    
O22   C128  S    
C124  H75   S    
C31   C39   A    
C99   C104  A    
C31   C35   A    
C7    O15   A    
C32   C40   A    
C16   H8    S    
C114  H51   S    
C126  C127  S    
C71   H20   S    
C135  H100  S    
C42   H10   S    
C28   H39   S    
C77   C85   A    
C20   C36   A    
C120  C121  S    
C60   C68   A    
C117  H59   S    
C78   C86   A    
Cu1   N2    S    
C136  H104  S    
C29   C37   A    
C79   O24   S    
C41   C45   A    
O21   C125  S    
C12   C96   A    
C102  C109  A    
C2    O10   A    
C7    C54   S    
C108  H32   S    
C35   C47   A    
C61   C93   A    
C43   C47   A    
C123  H72   S    
C127  H83   S    
C55   C71   A    
C9    H1    S    
C44   C48   A    
C27   N3    A    
C131  H91   S    
C54   C78   A    
C115  H54   S    
