data_mof_unit_6406.cif
_audit_creation_date              2012-12-10T20:27:09-0500
_audit_creation_method            fapswitch 2.2
_symmetry_space_group_name_H-M    P1
_symmetry_Int_Tables_number       1
_space_group_crystal_system       triclinic
_cell_length_a                    10.763452
_cell_length_b                    10.676168
_cell_length_c                    9.870271
_cell_angle_alpha                 89.900504
_cell_angle_beta                  103.753242
_cell_angle_gamma                 90.066772
_cell_volume                      1101.69519253

loop_
_atom_site_label
_atom_site_type_symbol
_atom_type_description
_atom_site_fract_x
_atom_site_fract_y
_atom_site_fract_z
_atom_type_partial_charge
C1    C     C_R   0.504554 0.259908 0.501301 0.880372
C2    C     C_R   0.527021 0.128647 0.507135 -0.127060
C3    C     C_R   0.544019 0.065018 0.388543 -0.210385
C4    C     C_R   0.543933 0.935547 0.388280 -0.222667
C5    C     C_R   0.526665 0.871312 0.506519 -0.097215
C6    C     C_R   0.535821 0.935641 0.631059 0.110163
C7    C     C_3   0.455660 0.927590 0.735538 -0.513222
C8    C     C_3   0.456226 0.070039 0.736290 -0.215053
C9    C     C_R   0.387863 0.492668 0.042291 0.216431
C10   C     C_R   0.609965 0.517925 0.100150 -0.121895
C11   C     C_R   0.609996 0.517845 0.956445 -0.121685
C12   C     C_R   0.258932 0.504364 0.441992 0.943488
C13   C     C_R   0.387692 0.493186 0.899788 0.211532
C14   C     C_3   0.291753 0.389806 0.869692 -0.502243
C15   C     C_3   0.292865 0.388754 0.023814 -0.499817
C16   C     C_R   0.504408 0.740073 0.500984 0.876978
C17   C     C_R   0.741159 0.504409 0.557993 0.943850
C18   C     C_2   0.122335 0.521204 0.409174 -0.374455
C19   C     C_2   0.068205 0.554951 0.511470 -0.159108
C20   C     C_2   0.877832 0.522051 0.590587 -0.374598
C21   C     C_2   0.931898 0.553673 0.487353 -0.146691
C22   C     C_R   0.536517 0.063618 0.631745 0.103740
H1    H     H_    0.876251 0.567304 0.381017 0.175892
H2    H     H_    0.699179 0.530648 0.176547 0.141007
H3    H     H_    0.699117 0.530386 0.925669 0.147848
H4    H     H_    0.198833 0.421090 0.802871 0.194034
H5    H     H_    0.330509 0.302988 0.833910 0.215074
H6    H     H_    0.200690 0.419303 0.045159 0.196849
H7    H     H_    0.333591 0.301460 0.078316 0.220252
H8    H     H_    0.123992 0.572424 0.616980 0.178995
H9    H     H_    0.934074 0.507916 0.696624 0.144682
H10   H     H_    0.066105 0.504066 0.303773 0.145941
H11   H     H_    0.547471 0.114003 0.293275 0.185013
H12   H     H_    0.547459 0.887045 0.292945 0.174993
H13   H     H_    0.359378 0.887197 0.690736 0.195675
H14   H     H_    0.508370 0.883033 0.834553 0.206404
H15   H     H_    0.360642 0.112960 0.694780 0.146624
N1    N     N_R   0.499160 0.499140 0.142600 -0.104896
N2    N     N_R   0.499160 0.499180 0.856960 -0.103870
O1    O     O_R   0.500020 0.316790 0.614700 -0.613361
O2    O     O_R   0.500000 0.316760 0.385350 -0.615260
O3    O     O_R   0.317820 0.500020 0.571850 -0.616509
O4    O     O_R   0.317800 0.499980 0.342510 -0.615006
O5    O     O_R   0.500000 0.683240 0.614650 -0.616914
O6    O     O_R   0.499980 0.683210 0.385300 -0.625074
O7    O     O_R   0.682200 0.500020 0.657490 -0.623183
O8    O     O_R   0.682180 0.499980 0.428150 -0.622279
Zn1   Zn    Zn3+2 0.500010 0.500020 0.653140 0.943562
Zn2   Zn    Zn3+2 0.499990 0.499980 0.346860 0.942797
C23   C     C_1   0.527389 0.123686 0.869516 0.224621
N3    N     N_1   0.583183 0.166094 0.974222 -0.224372

loop_
_geom_bond_atom_site_label_1
_geom_bond_atom_site_label_2
_ccdc_geom_bond_type
C16   O6    A    
C2    C22   A    
C1    O2    A    
C8    C22   S    
C17   O7    A    
C6    C7    S    
C14   H5    S    
C7    H14   S    
C16   O5    A    
O6    Zn2   S    
C10   N1    A    
C10   H2    S    
C2    C3    A    
C9    C15   S    
C7    C8    S    
O8    Zn2   S    
N1    Zn2   S    
O3    Zn1   S    
C13   C14   S    
C14   H4    S    
C11   N2    A    
C15   H6    S    
O2    Zn2   S    
C9    N1    A    
C19   C21   S    
C15   H7    S    
C12   O4    A    
O7    Zn1   S    
C21   H1    S    
C5    C6    A    
C4    H12   S    
C13   N2    A    
C18   H10   S    
C10   C11   A    
C3    H11   S    
C12   O3    A    
C3    C4    A    
C6    C22   A    
C8    C23   S    
C17   C20   S    
O5    Zn1   S    
C20   C21   D    
C1    C2    S    
C8    H15   S    
C12   C18   S    
O1    Zn1   S    
C11   H3    S    
C14   C15   S    
C18   C19   D    
C5    C16   S    
C9    C13   A    
C1    O1    A    
C23   N3    T    
C19   H8    S    
C7    H13   S    
O4    Zn2   S    
C17   O8    A    
C4    C5    A    
N2    Zn1   S    
C20   H9    S    
