data_mof_unit_53335.cif
_audit_creation_date              2012-12-10T18:15:29-0500
_audit_creation_method            fapswitch 2.2
_symmetry_space_group_name_H-M    P1
_symmetry_Int_Tables_number       1
_space_group_crystal_system       triclinic
_cell_length_a                    18.457239
_cell_length_b                    18.457233
_cell_length_c                    39.481516
_cell_angle_alpha                 90.015062
_cell_angle_beta                  90.015097
_cell_angle_gamma                 90.004281
_cell_volume                      13450.1497446

loop_
_atom_site_label
_atom_site_type_symbol
_atom_type_description
_atom_site_fract_x
_atom_site_fract_y
_atom_site_fract_z
_atom_type_partial_charge
C1    C     C_R   0.960421 0.553684 0.430990 0.327920
C2    C     C_R   0.538532 0.055046 0.069143 0.327655
C3    C     C_R   0.302486 0.749620 0.724603 0.266368
C4    C     C_R   0.261474 0.313178 0.268610 0.286785
C5    C     C_R   0.747961 0.696093 0.725241 0.289607
C6    C     C_R   0.311895 0.739528 0.269489 0.306714
C7    C     C_R   0.697629 0.249995 0.724368 0.295155
C8    C     C_R   0.196331 0.696175 0.249933 -0.370712
C9    C     C_R   0.803511 0.303422 0.749876 -0.363388
C10   C     C_R   0.303629 0.196369 0.250000 -0.359697
C11   C     C_R   0.696421 0.803578 0.750000 -0.352232
C12   C     C_R   0.803824 0.303670 0.250067 -0.370712
C13   C     C_R   0.944935 0.461462 0.930855 0.327652
C14   C     C_R   0.196577 0.696490 0.750122 -0.363387
C15   C     C_R   0.696322 0.803678 0.250000 -0.367321
C16   C     C_R   0.303534 0.196465 0.750000 -0.349144
C17   C     C_R   0.196322 0.303678 0.750000 -0.367318
C18   C     C_R   0.803535 0.696465 0.250000 -0.349141
C19   C     C_R   0.303823 0.803671 0.750066 -0.370713
C20   C     C_R   0.696577 0.196489 0.250123 -0.363389
C21   C     C_R   0.803629 0.696369 0.750000 -0.359693
C22   C     C_R   0.196421 0.303578 0.250000 -0.352248
C23   C     C_R   0.696330 0.196175 0.749933 -0.370714
C24   C     C_R   0.946283 0.539575 0.069014 0.327925
C25   C     C_R   0.303512 0.803422 0.249876 -0.363395
C26   C     C_R   0.000159 0.500051 0.377831 -0.376058
C27   C     C_R   0.000031 0.500089 0.622189 -0.374786
C28   C     C_R   0.499904 0.999970 0.377811 -0.374790
C29   C     C_R   0.499942 0.999842 0.622170 -0.376067
C30   C     C_R   0.500159 0.000051 0.877831 -0.376059
C31   C     C_R   0.500031 0.000089 0.122190 -0.374787
C32   C     C_R   0.999899 0.499971 0.877811 -0.374793
C33   C     C_R   0.999937 0.499841 0.122170 -0.376082
C34   C     C_R   0.540730 0.946845 0.930952 0.327930
C35   C     C_R   0.462232 0.945278 0.068971 0.327999
C36   C     C_R   0.054676 0.537799 0.931032 0.327969
C37   C     C_R   0.053131 0.459277 0.069045 0.327944
C38   C     C_R   0.968235 0.558791 0.395454 0.171651
C39   C     C_R   0.030108 0.559890 0.604658 0.178043
C40   C     C_R   0.440102 0.969889 0.395340 0.178072
C41   C     C_R   0.038539 0.555040 0.569143 0.327656
C42   C     C_R   0.441197 0.031764 0.604548 0.171638
C43   C     C_R   0.032496 0.441507 0.395436 0.171719
C44   C     C_R   0.970157 0.440343 0.604515 0.168282
C45   C     C_R   0.559641 0.029853 0.395487 0.168207
C46   C     C_R   0.558483 0.967505 0.604562 0.171753
C47   C     C_R   0.468232 0.058790 0.895454 0.171641
C48   C     C_R   0.530103 0.059893 0.104659 0.178076
C49   C     C_R   0.940096 0.469888 0.895339 0.178076
C50   C     C_R   0.941188 0.531761 0.104550 0.171649
C51   C     C_R   0.532499 0.941509 0.895436 0.171723
C52   C     C_R   0.444944 0.961463 0.430856 0.327660
C53   C     C_R   0.470161 0.940342 0.104515 0.168285
C54   C     C_R   0.059631 0.529861 0.895490 0.168178
C55   C     C_R   0.058477 0.467506 0.104560 0.171767
C56   C     C_R   0.000656 0.500300 0.448488 -0.261264
C57   C     C_R   0.000510 0.500186 0.551539 -0.261921
C58   C     C_R   0.499791 0.999499 0.448461 -0.261913
C59   C     C_R   0.499681 0.999347 0.551512 -0.261276
C60   C     C_R   0.500656 0.000300 0.948488 -0.261257
C61   C     C_R   0.500509 0.000188 0.051540 -0.261922
C62   C     C_R   0.999776 0.499505 0.948461 -0.261910
C63   C     C_R   0.446298 0.039578 0.569013 0.327929
C64   C     C_R   0.999667 0.499347 0.051512 -0.261287
C65   C     C_1   0.000738 0.500314 0.484823 0.296297
C66   C     C_1   0.000696 0.500278 0.515204 0.296414
C67   C     C_1   0.499698 0.999312 0.484796 0.296437
C68   C     C_1   0.499664 0.999269 0.515177 0.296300
C69   C     C_1   0.500737 0.000315 0.984823 0.296298
C70   C     C_1   0.500695 0.000279 0.015205 0.296402
C71   C     C_1   0.999681 0.499316 0.984796 0.296453
C72   C     C_1   0.999646 0.499271 0.015177 0.296306
C73   C     C_R   0.500002 0.000003 0.340801 1.004392
C74   C     C_R   0.040729 0.446843 0.430951 0.327933
C75   C     C_R   0.500007 0.999975 0.659192 1.003208
C76   C     C_R   0.000025 0.499993 0.340809 1.003191
C77   C     C_R   0.999997 0.499997 0.659199 1.004400
C78   C     C_R   0.000002 0.500003 0.840801 1.004381
C79   C     C_R   0.000007 0.499975 0.159191 1.003196
C80   C     C_R   0.500025 0.999993 0.840808 1.003192
C81   C     C_R   0.499997 0.999997 0.159199 1.004412
C82   C     C_R   0.359803 0.140197 0.250000 0.997275
C83   C     C_R   0.640216 0.859784 0.750000 1.007756
C84   C     C_R   0.859861 0.359835 0.250005 0.988380
C85   C     C_R   0.962227 0.445281 0.568971 0.327997
C86   C     C_R   0.140256 0.640253 0.750026 0.976884
C87   C     C_R   0.640176 0.859824 0.250000 0.992674
C88   C     C_R   0.359772 0.140228 0.750000 1.003666
C89   C     C_R   0.140165 0.640139 0.249994 0.988378
C90   C     C_R   0.859747 0.359744 0.749974 0.976915
C91   C     C_R   0.359860 0.859835 0.750005 0.988356
C92   C     C_R   0.640256 0.140253 0.250026 0.976895
C93   C     C_R   0.859803 0.640197 0.750000 0.997272
C94   C     C_R   0.140215 0.359784 0.250000 1.007752
C95   C     C_R   0.640165 0.140139 0.749994 0.988371
C96   C     C_R   0.554694 0.037788 0.431030 0.327981
C97   C     C_R   0.359748 0.859743 0.249974 0.976905
C98   C     C_R   0.140176 0.359824 0.750000 0.992674
C99   C     C_R   0.859772 0.640228 0.250000 1.003664
C100  C     C_R   0.239655 0.811598 0.230163 0.215724
C101  C     C_R   0.750384 0.197511 0.775395 0.266398
C102  C     C_R   0.186820 0.238525 0.231391 0.286768
C103  C     C_R   0.803905 0.752036 0.774760 0.289629
C104  C     C_R   0.760471 0.188107 0.230510 0.306714
C105  C     C_R   0.250003 0.802372 0.775631 0.295173
C106  C     C_R   0.812539 0.760989 0.230916 0.295142
C107  C     C_R   0.553142 0.959275 0.569047 0.327932
C108  C     C_R   0.196790 0.248805 0.775104 0.273923
C109  C     C_R   0.239011 0.187460 0.769083 0.295139
C110  C     C_R   0.751194 0.803209 0.224895 0.273914
C111  C     C_R   0.188400 0.760346 0.769836 0.215745
C112  C     C_R   0.802489 0.249617 0.224604 0.266390
C113  C     C_R   0.761475 0.813179 0.768609 0.286785
C114  C     C_R   0.247963 0.196095 0.225241 0.289610
C115  C     C_R   0.811894 0.239528 0.769489 0.306716
C116  C     C_R   0.197629 0.749995 0.224368 0.295157
C117  C     C_R   0.739655 0.311598 0.730163 0.215736
C118  C     C_R   0.460419 0.053683 0.930989 0.327918
C119  C     C_R   0.250385 0.697510 0.275395 0.266408
C120  C     C_R   0.686819 0.738524 0.731391 0.286779
C121  C     C_R   0.303903 0.252034 0.274760 0.289626
C122  C     C_R   0.260469 0.688110 0.730508 0.306725
C123  C     C_R   0.750003 0.302372 0.275631 0.295161
C124  C     C_R   0.312540 0.260989 0.730916 0.295138
C125  C     C_R   0.696791 0.748806 0.275104 0.273920
C126  C     C_R   0.739011 0.687461 0.269084 0.295138
C127  C     C_R   0.251195 0.303210 0.724896 0.273925
C128  C     C_R   0.688400 0.260346 0.269836 0.215742
H1    H     H_    0.808251 0.680519 0.443446 0.416400
H2    H     H_    0.686381 0.187040 0.057095 0.416052
H3    H     H_    0.813033 0.313523 0.942914 0.416039
H4    H     H_    0.819467 0.691765 0.056555 0.416390
H5    H     H_    0.693341 0.820473 0.943238 0.416179
H6    H     H_    0.314786 0.813031 0.056224 0.416353
H7    H     H_    0.186210 0.685900 0.943950 0.416241
H8    H     H_    0.179546 0.306705 0.056755 0.416180
H9    H     H_    0.199179 0.940213 0.268197 0.362432
H10   H     H_    0.646363 0.137845 0.849121 0.397797
H11   H     H_    0.993548 0.201257 0.243438 0.410662
H12   H     H_    0.186567 0.686842 0.557050 0.416019
H13   H     H_    0.868875 0.653172 0.849100 0.395336
H14   H     H_    0.805420 0.996505 0.241793 0.414489
H15   H     H_    0.355049 0.862005 0.849108 0.397084
H16   H     H_    0.005553 0.800673 0.242085 0.408966
H17   H     H_    0.135669 0.350575 0.849293 0.397669
H18   H     H_    0.199328 0.994447 0.757913 0.408967
H19   H     H_    0.649421 0.864323 0.150706 0.397675
H20   H     H_    0.059785 0.800822 0.731800 0.362435
H21   H     H_    0.862151 0.353638 0.150877 0.397798
H22   H     H_    0.798741 0.006451 0.756562 0.410661
H23   H     H_    0.313027 0.813541 0.442914 0.416038
H24   H     H_    0.346826 0.131126 0.150899 0.395356
H25   H     H_    0.003489 0.194563 0.758200 0.414491
H26   H     H_    0.137997 0.644948 0.150891 0.397083
H27   H     H_    0.699166 0.440219 0.768196 0.362446
H28   H     H_    0.146367 0.637837 0.349121 0.397794
H29   H     H_    0.493522 0.701368 0.743422 0.410635
H30   H     H_    0.368870 0.153166 0.349100 0.395344
H31   H     H_    0.305446 0.496517 0.741793 0.414497
H32   H     H_    0.855047 0.362008 0.349108 0.397081
H33   H     H_    0.505554 0.300671 0.742086 0.408966
H34   H     H_    0.319497 0.191780 0.556546 0.416385
H35   H     H_    0.635674 0.850579 0.349293 0.397671
H36   H     H_    0.699322 0.494449 0.257914 0.408968
H37   H     H_    0.149425 0.364329 0.650706 0.397670
H38   H     H_    0.559784 0.300823 0.231800 0.362434
H39   H     H_    0.362134 0.853654 0.650877 0.397805
H40   H     H_    0.298792 0.506439 0.256557 0.410674
H41   H     H_    0.846816 0.631121 0.650899 0.395353
H42   H     H_    0.503494 0.694573 0.258202 0.414487
H43   H     H_    0.637998 0.144947 0.650891 0.397084
H44   H     H_    0.842981 0.581049 0.362366 0.378694
H45   H     H_    0.193362 0.320495 0.443246 0.416173
H46   H     H_    0.154150 0.585968 0.638135 0.379786
H47   H     H_    0.414044 0.845840 0.361864 0.379797
H48   H     H_    0.418943 0.157018 0.637639 0.378689
H49   H     H_    0.157394 0.419730 0.361763 0.378266
H50   H     H_    0.845415 0.414362 0.637283 0.376529
H51   H     H_    0.585623 0.154594 0.362719 0.376494
H52   H     H_    0.580259 0.842610 0.638241 0.378279
H53   H     H_    0.342977 0.081042 0.862367 0.378691
H54   H     H_    0.654146 0.085970 0.138138 0.379801
H55   H     H_    0.914044 0.345837 0.861862 0.379795
H56   H     H_    0.814721 0.313099 0.556211 0.416348
H57   H     H_    0.918934 0.657015 0.137640 0.378693
H58   H     H_    0.657397 0.919739 0.861763 0.378270
H59   H     H_    0.345418 0.914358 0.137283 0.376533
H60   H     H_    0.085609 0.654601 0.862724 0.376474
H61   H     H_    0.080261 0.342624 0.138256 0.378265
H62   H     H_    0.686448 0.185686 0.443898 0.416282
H63   H     H_    0.679596 0.806736 0.556775 0.416197
H64   H     H_    0.308212 0.180474 0.943456 0.416393
O1    O     O_3   0.500000 0.000000 0.250000 -0.584370
O2    O     O_R   0.500000 0.939240 0.675070 -0.623674
O3    O     O_3   0.142024 0.331311 0.070514 -0.438778
O4    O     O_2   0.239630 0.920218 0.184774 -0.145668
O5    O     O_2   0.123842 0.892876 0.211835 -0.184987
O6    O     O_3   0.220406 0.960359 0.247173 -0.482464
O7    O     O_2   0.759062 0.080621 0.816057 -0.201521
O8    O     O_2   0.783699 0.198508 0.842023 -0.164583
O9    O     O_3   0.650541 0.166700 0.828057 -0.507804
O10   O     O_2   0.074899 0.235190 0.187735 -0.180784
O11   O     O_2   0.104149 0.121721 0.216790 -0.154392
O12   O     O_3   0.040053 0.222006 0.251356 -0.517884
O13   O     O_R   0.939240 0.500000 0.324930 -0.622470
O14   O     O_2   0.923662 0.763276 0.813354 -0.156150
O15   O     O_2   0.807904 0.790135 0.840860 -0.167847
O16   O     O_3   0.838215 0.655991 0.828543 -0.506810
O17   O     O_2   0.761692 0.077841 0.185872 -0.177654
O18   O     O_2   0.876845 0.107133 0.213438 -0.192552
O19   O     O_3   0.779569 0.040916 0.249003 -0.513660
O20   O     O_2   0.241787 0.919244 0.816395 -0.206644
O21   O     O_2   0.217808 0.801283 0.842402 -0.158971
O22   O     O_3   0.350632 0.833333 0.827993 -0.503189
O23   O     O_2   0.923636 0.763035 0.186762 -0.175284
O24   O     O_R   0.060760 0.500000 0.675070 -0.623884
O25   O     O_2   0.894353 0.877522 0.214906 -0.194540
O26   O     O_3   0.959569 0.779013 0.250117 -0.520049
O27   O     O_2   0.078805 0.239167 0.815033 -0.202812
O28   O     O_2   0.195912 0.213433 0.841509 -0.159998
O29   O     O_3   0.164864 0.347050 0.828304 -0.500804
O30   O     O_2   0.236962 0.076362 0.813237 -0.175275
O31   O     O_2   0.122477 0.105645 0.785092 -0.194550
O32   O     O_3   0.220988 0.040431 0.749881 -0.520042
O33   O     O_2   0.760829 0.921192 0.184965 -0.202821
O34   O     O_2   0.786563 0.804083 0.158490 -0.159999
O35   O     O_R   0.000000 0.439240 0.824930 -0.623878
O36   O     O_3   0.652946 0.835131 0.171696 -0.500785
O37   O     O_2   0.079778 0.760375 0.815224 -0.145684
O38   O     O_2   0.107121 0.876160 0.788162 -0.185006
O39   O     O_3   0.039639 0.779593 0.752825 -0.482469
O40   O     O_2   0.919379 0.240940 0.183942 -0.201511
O41   O     O_2   0.801492 0.216301 0.157976 -0.164589
O42   O     O_3   0.833299 0.349460 0.171943 -0.507798
O43   O     O_2   0.764810 0.925101 0.812265 -0.180759
O44   O     O_2   0.878280 0.895849 0.783209 -0.154403
O45   O     O_3   0.777995 0.959945 0.748643 -0.517895
O46   O     O_R   1.000000 0.560760 0.175070 -0.622459
O47   O     O_2   0.236723 0.076338 0.186647 -0.156121
O48   O     O_2   0.209863 0.192095 0.159140 -0.167829
O49   O     O_3   0.344007 0.161784 0.171458 -0.506807
O50   O     O_2   0.922161 0.238302 0.814127 -0.177635
O51   O     O_2   0.892867 0.123152 0.786558 -0.192582
O52   O     O_3   0.959086 0.220432 0.750996 -0.513664
O53   O     O_2   0.080757 0.758210 0.183604 -0.206618
O54   O     O_2   0.198718 0.782189 0.157597 -0.158992
O55   O     O_3   0.166667 0.649365 0.172007 -0.503226
O56   O     O_2   0.739629 0.420218 0.684774 -0.145671
O57   O     O_R   0.560760 0.000000 0.824930 -0.623676
O58   O     O_2   0.623842 0.392876 0.711834 -0.184991
O59   O     O_3   0.720406 0.460359 0.747173 -0.482467
O60   O     O_2   0.259064 0.580617 0.316055 -0.201496
O61   O     O_2   0.283705 0.698501 0.342023 -0.164589
O62   O     O_3   0.150545 0.666696 0.328057 -0.507806
O63   O     O_2   0.574891 0.735190 0.687740 -0.180830
O64   O     O_2   0.604143 0.621720 0.716794 -0.154303
O65   O     O_3   0.540057 0.722006 0.751364 -0.517863
O66   O     O_2   0.423659 0.263272 0.313356 -0.156143
O67   O     O_2   0.307900 0.290129 0.340861 -0.167846
O68   O     O_R   0.439240 0.000000 0.175070 -0.624189
O69   O     O_3   0.338212 0.155986 0.328542 -0.506811
O70   O     O_2   0.261690 0.577847 0.685869 -0.177657
O71   O     O_2   0.376844 0.607141 0.713433 -0.192530
O72   O     O_3   0.279572 0.540918 0.748998 -0.513656
O73   O     O_2   0.741786 0.419245 0.316394 -0.206636
O74   O     O_2   0.717805 0.301285 0.342402 -0.158971
O75   O     O_3   0.850630 0.333333 0.327993 -0.503190
O76   O     O_2   0.423638 0.263036 0.686762 -0.175285
O77   O     O_2   0.394355 0.377522 0.714907 -0.194544
O78   O     O_3   0.459569 0.279012 0.750118 -0.520046
O79   O     O_R   0.000000 0.560760 0.824930 -0.624201
O80   O     O_2   0.578807 0.739170 0.315034 -0.202815
O81   O     O_2   0.695916 0.713437 0.341510 -0.160000
O82   O     O_3   0.664867 0.847054 0.328304 -0.500799
O83   O     O_2   0.736965 0.576364 0.313238 -0.175274
O84   O     O_2   0.622478 0.605647 0.285094 -0.194550
O85   O     O_3   0.720987 0.540431 0.249883 -0.520043
O86   O     O_2   0.260831 0.421196 0.684967 -0.202818
O87   O     O_2   0.286568 0.304089 0.658491 -0.160000
O88   O     O_3   0.152950 0.335135 0.671696 -0.500788
O89   O     O_2   0.579778 0.260375 0.315224 -0.145679
O90   O     O_R   0.000000 0.439240 0.175070 -0.623713
O91   O     O_2   0.607120 0.376160 0.288161 -0.185009
O92   O     O_3   0.539639 0.279592 0.252824 -0.482474
O93   O     O_2   0.419367 0.740950 0.683934 -0.201575
O94   O     O_2   0.301474 0.716318 0.657973 -0.164583
O95   O     O_3   0.333287 0.849473 0.671944 -0.507784
O96   O     O_2   0.264808 0.425096 0.312268 -0.180735
O97   O     O_2   0.378278 0.395846 0.283213 -0.154445
O98   O     O_3   0.277996 0.459947 0.248647 -0.517909
O99   O     O_2   0.736718 0.576333 0.686650 -0.156124
O100  O     O_2   0.709854 0.692088 0.659142 -0.167838
O101  O     O_R   0.439240 0.000000 0.824930 -0.622469
O102  O     O_3   0.843999 0.661780 0.671457 -0.506808
O103  O     O_2   0.422162 0.738304 0.314126 -0.177638
O104  O     O_2   0.392870 0.623153 0.286558 -0.192594
O105  O     O_3   0.459087 0.720433 0.250995 -0.513663
O106  O     O_2   0.580758 0.258210 0.683604 -0.206620
O107  O     O_2   0.698719 0.282188 0.657596 -0.158988
O108  O     O_3   0.666667 0.149364 0.672007 -0.503224
O109  O     O_2   0.950647 0.704894 0.395115 -0.122779
O110  O     O_2   0.989239 0.650168 0.342188 -0.294505
O111  O     O_3   0.855707 0.632948 0.360175 -0.407168
O112  O     O_3   0.500000 0.000000 0.750000 -0.580749
O113  O     O_R   0.560760 0.000000 0.175070 -0.623881
O114  O     O_2   0.043057 0.706492 0.605169 -0.124282
O115  O     O_2   0.005661 0.650388 0.657955 -0.304312
O116  O     O_3   0.139852 0.637466 0.640266 -0.417423
O117  O     O_2   0.293500 0.956928 0.394822 -0.124387
O118  O     O_2   0.349614 0.994317 0.342037 -0.304309
O119  O     O_3   0.362544 0.860131 0.359733 -0.417442
O120  O     O_2   0.295094 0.049343 0.604895 -0.122736
O121  O     O_2   0.349834 0.010765 0.657821 -0.294527
O122  O     O_3   0.367043 0.144294 0.639827 -0.407153
O123  O     O_2   0.050615 0.295475 0.395127 -0.121448
O124  O     O_R   0.414510 0.146130 0.269710 -0.575646
O125  O     O_2   0.011566 0.349889 0.342211 -0.292872
O126  O     O_3   0.145134 0.367631 0.360073 -0.407911
O127  O     O_2   0.957281 0.293758 0.604926 -0.121075
O128  O     O_2   0.993143 0.349832 0.657975 -0.292331
O129  O     O_3   0.859523 0.362812 0.639410 -0.407637
O130  O     O_2   0.706225 0.042747 0.395087 -0.120730
O131  O     O_2   0.650172 0.006857 0.342037 -0.292369
O132  O     O_3   0.637172 0.140483 0.360588 -0.407551
O133  O     O_2   0.704515 0.949384 0.604868 -0.121563
O134  O     O_2   0.650108 0.988426 0.657785 -0.292867
O135  O     O_R   0.585490 0.853870 0.730290 -0.582171
O136  O     O_3   0.632362 0.854861 0.639921 -0.407917
O137  O     O_2   0.450636 0.204892 0.895114 -0.122747
O138  O     O_2   0.489234 0.150169 0.842188 -0.294505
O139  O     O_3   0.355702 0.132941 0.860173 -0.407161
O140  O     O_2   0.543046 0.206496 0.105173 -0.124436
O141  O     O_2   0.505666 0.150384 0.157959 -0.304300
O142  O     O_3   0.639852 0.137470 0.140263 -0.417460
O143  O     O_2   0.793495 0.456923 0.894818 -0.124378
O144  O     O_2   0.849613 0.494313 0.842035 -0.304308
O145  O     O_3   0.862544 0.360127 0.859730 -0.417436
O146  O     O_R   0.853870 0.414510 0.269710 -0.588809
O147  O     O_2   0.795084 0.549335 0.104902 -0.122755
O148  O     O_2   0.849833 0.510757 0.157825 -0.294525
O149  O     O_3   0.867035 0.644288 0.139832 -0.407165
O150  O     O_2   0.550627 0.795478 0.895127 -0.121462
O151  O     O_2   0.511572 0.849889 0.842211 -0.292858
O152  O     O_3   0.645140 0.867640 0.860072 -0.407916
O153  O     O_2   0.457290 0.793756 0.104927 -0.121123
O154  O     O_2   0.493145 0.849834 0.157977 -0.292329
O155  O     O_3   0.359527 0.862807 0.139409 -0.407648
O156  O     O_2   0.206212 0.542771 0.895096 -0.120558
O157  O     O_R   0.146130 0.585490 0.730290 -0.577814
O158  O     O_2   0.150175 0.506858 0.842045 -0.292380
O159  O     O_3   0.137157 0.640490 0.860588 -0.407513
O160  O     O_2   0.204510 0.449401 0.104861 -0.121525
O161  O     O_2   0.150106 0.488424 0.157783 -0.292899
O162  O     O_3   0.132370 0.354862 0.139911 -0.407891
O163  O     O_R   0.585490 0.853870 0.269710 -0.584758
O164  O     O_R   0.414510 0.146130 0.730290 -0.580679
O165  O     O_R   0.146130 0.585490 0.269710 -0.587007
O166  O     O_R   0.853870 0.414510 0.730290 -0.575483
O167  O     O_R   0.414510 0.853870 0.730290 -0.587104
O168  O     O_3   1.000000 0.500000 0.250000 -0.580757
O169  O     O_R   0.585490 0.146130 0.269710 -0.575480
O170  O     O_R   0.853870 0.585490 0.730290 -0.575646
O171  O     O_R   0.146130 0.414510 0.269710 -0.582089
O172  O     O_R   0.585490 0.146130 0.730290 -0.588810
O173  O     O_R   0.414510 0.853870 0.269710 -0.577810
O174  O     O_R   0.146130 0.414510 0.730290 -0.584752
O175  O     O_R   0.853870 0.585490 0.269710 -0.580673
O176  O     O_R   0.914510 0.646130 0.769710 -0.575646
O177  O     O_R   0.085490 0.353870 0.230290 -0.582144
O178  O     O_R   0.353870 0.914510 0.769710 -0.588798
O179  O     O_3   1.000000 0.500000 0.750000 -0.584372
O180  O     O_R   0.646130 0.085490 0.230290 -0.577824
O181  O     O_R   0.085490 0.353870 0.769710 -0.584758
O182  O     O_R   0.914510 0.646130 0.230290 -0.580677
O183  O     O_R   0.646130 0.085490 0.769710 -0.587037
O184  O     O_R   0.353870 0.914510 0.230290 -0.575485
O185  O     O_R   0.914510 0.353870 0.230290 -0.587032
O186  O     O_R   0.085490 0.646130 0.769710 -0.575480
O187  O     O_R   0.353870 0.085490 0.230290 -0.575647
O188  O     O_R   0.646130 0.914510 0.769710 -0.582106
O189  O     O_R   0.085490 0.646130 0.230290 -0.588816
O190  O     O_R   0.500000 0.939240 0.324930 -0.623876
O191  O     O_R   0.914510 0.353870 0.769710 -0.577807
O192  O     O_R   0.646130 0.914510 0.230290 -0.584764
O193  O     O_R   0.353870 0.085490 0.769710 -0.580673
O194  O     O_2   0.868030 0.573841 0.483655 -0.247811
O195  O     O_2   0.944222 0.676069 0.466866 -0.186359
O196  O     O_3   0.832683 0.642929 0.429657 -0.439436
O197  O     O_2   0.130543 0.578600 0.516633 -0.247764
O198  O     O_2   0.050840 0.678097 0.533456 -0.185851
O199  O     O_3   0.163176 0.648523 0.570788 -0.438695
O200  O     O_2   0.421370 0.869472 0.483370 -0.247633
O201  O     O_R   0.500000 0.060760 0.675070 -0.622469
O202  O     O_2   0.321877 0.949166 0.466533 -0.185962
O203  O     O_3   0.351472 0.836820 0.429211 -0.438692
O204  O     O_2   0.426118 0.131962 0.516346 -0.247866
O205  O     O_2   0.323901 0.055765 0.533143 -0.186299
O206  O     O_3   0.357043 0.167310 0.570347 -0.439428
O207  O     O_2   0.133504 0.426994 0.483516 -0.247577
O208  O     O_2   0.057490 0.324540 0.466807 -0.186057
O209  O     O_3   0.168698 0.357957 0.429473 -0.438867
O210  O     O_2   0.871093 0.421668 0.516091 -0.248227
O211  O     O_2   0.950705 0.322289 0.533147 -0.185824
O212  O     O_R   0.060760 0.500000 0.324930 -0.623682
O213  O     O_3   0.837680 0.351548 0.570044 -0.439227
O214  O     O_2   0.578247 0.128955 0.483900 -0.248662
O215  O     O_2   0.677665 0.049361 0.466870 -0.185462
O216  O     O_3   0.648407 0.162354 0.429955 -0.439238
O217  O     O_2   0.572996 0.866509 0.516477 -0.247462
O218  O     O_2   0.675447 0.942518 0.533192 -0.186194
O219  O     O_3   0.642023 0.831302 0.570520 -0.438833
O220  O     O_2   0.368028 0.073837 0.983655 -0.247860
O221  O     O_2   0.444212 0.176069 0.966864 -0.186313
O222  O     O_3   0.332674 0.142920 0.929657 -0.439447
O223  O     O_R   0.939240 0.500000 0.675070 -0.624191
O224  O     O_2   0.630517 0.078637 0.016625 -0.247571
O225  O     O_2   0.550808 0.178114 0.033465 -0.186019
O226  O     O_3   0.663162 0.148538 0.070785 -0.438674
O227  O     O_2   0.921366 0.369464 0.983366 -0.247631
O228  O     O_2   0.821869 0.449158 0.966533 -0.185964
O229  O     O_3   0.851463 0.336817 0.929208 -0.438683
O230  O     O_2   0.926088 0.631956 0.016347 -0.247851
O231  O     O_2   0.823877 0.555757 0.033152 -0.186311
O232  O     O_3   0.857027 0.667305 0.070352 -0.439435
O233  O     O_2   0.633504 0.926996 0.983518 -0.247546
O234  O     O_R   0.500000 0.060760 0.324930 -0.624202
O235  O     O_2   0.557496 0.824541 0.966807 -0.186076
O236  O     O_3   0.668705 0.857966 0.929474 -0.438869
O237  O     O_2   0.371106 0.921650 0.016088 -0.248182
O238  O     O_2   0.450724 0.822281 0.033150 -0.185865
O239  O     O_3   0.337690 0.851537 0.070043 -0.439226
O240  O     O_2   0.078197 0.628978 0.983898 -0.248880
O241  O     O_2   0.177635 0.549398 0.966882 -0.185260
O242  O     O_3   0.148372 0.662375 0.929956 -0.439265
O243  O     O_2   0.072979 0.366512 0.016476 -0.247523
O244  O     O_2   0.175430 0.442529 0.033184 -0.186164
S1    S     S_3+6 0.901049 0.612735 0.453992 0.134637
S2    S     S_3+6 0.596011 0.116199 0.046302 0.135232
S3    S     S_3+6 0.883791 0.403969 0.953693 0.135222
S4    S     S_3+6 0.887214 0.598938 0.046016 0.134642
S5    S     S_3+6 0.600408 0.887987 0.953889 0.134898
S6    S     S_3+6 0.405202 0.884082 0.045865 0.134662
S7    S     S_3+6 0.115827 0.594875 0.954140 0.134560
S8    S     S_3+6 0.111991 0.399609 0.046104 0.134905
S9    S     S_3+6 0.204301 0.897308 0.217309 0.174446
S10   S     S_3+6 0.737910 0.159188 0.816457 0.141584
S11   S     S_3+6 0.100078 0.202654 0.220563 0.173491
S12   S     S_3+6 0.096031 0.616182 0.546302 0.135199
S13   S     S_3+6 0.845129 0.742410 0.815397 0.160467
S14   S     S_3+6 0.796257 0.102157 0.218393 0.166767
S15   S     S_3+6 0.263066 0.840698 0.816685 0.148959
S16   S     S_3+6 0.898881 0.796789 0.219390 0.163725
S17   S     S_3+6 0.157408 0.260093 0.816031 0.149191
S18   S     S_3+6 0.203210 0.101118 0.780608 0.163724
S19   S     S_3+6 0.739904 0.842589 0.183968 0.149192
S20   S     S_3+6 0.102690 0.795701 0.782689 0.174433
S21   S     S_3+6 0.840811 0.262091 0.183542 0.141584
S22   S     S_3+6 0.797347 0.899921 0.779436 0.173491
S23   S     S_3+6 0.383799 0.903974 0.453695 0.135220
S24   S     S_3+6 0.257588 0.154870 0.184603 0.160483
S25   S     S_3+6 0.897844 0.203741 0.781605 0.166761
S26   S     S_3+6 0.159303 0.736932 0.183315 0.148943
S27   S     S_3+6 0.704300 0.397308 0.717309 0.174443
S28   S     S_3+6 0.237913 0.659184 0.316456 0.141590
S29   S     S_3+6 0.600075 0.702653 0.720568 0.173514
S30   S     S_3+6 0.345126 0.242406 0.315398 0.160472
S31   S     S_3+6 0.296256 0.602162 0.718389 0.166773
S32   S     S_3+6 0.763064 0.340699 0.316684 0.148959
S33   S     S_3+6 0.398882 0.296789 0.719391 0.163725
S34   S     S_3+6 0.387236 0.098943 0.546012 0.134640
S35   S     S_3+6 0.657411 0.760096 0.316031 0.149189
S36   S     S_3+6 0.703211 0.601120 0.280610 0.163724
S37   S     S_3+6 0.239907 0.342592 0.683969 0.149193
S38   S     S_3+6 0.602689 0.295701 0.282689 0.174433
S39   S     S_3+6 0.340800 0.762102 0.683540 0.141569
S40   S     S_3+6 0.297345 0.399919 0.279439 0.173480
S41   S     S_3+6 0.757582 0.654866 0.684604 0.160478
S42   S     S_3+6 0.397845 0.703742 0.281604 0.166756
S43   S     S_3+6 0.659304 0.236931 0.683315 0.148945
S44   S     S_3+6 0.942466 0.639278 0.372920 0.147284
S45   S     S_3+6 0.100404 0.387983 0.453888 0.134890
S46   S     S_3+6 0.053074 0.641091 0.627321 0.138007
S47   S     S_3+6 0.358907 0.946912 0.372674 0.137956
S48   S     S_3+6 0.360715 0.057533 0.627086 0.147297
S49   S     S_3+6 0.058450 0.361053 0.372898 0.148335
S50   S     S_3+6 0.946645 0.359153 0.627032 0.148243
S51   S     S_3+6 0.640836 0.053367 0.372974 0.148413
S52   S     S_3+6 0.638940 0.941546 0.627097 0.148282
S53   S     S_3+6 0.442460 0.139275 0.872919 0.147300
S54   S     S_3+6 0.553071 0.141093 0.127323 0.137931
S55   S     S_3+6 0.858904 0.446908 0.872671 0.137963
S56   S     S_3+6 0.905190 0.384091 0.545865 0.134656
S57   S     S_3+6 0.860708 0.557526 0.127091 0.147288
S58   S     S_3+6 0.558457 0.861056 0.872898 0.148334
S59   S     S_3+6 0.446650 0.859152 0.127033 0.148218
S60   S     S_3+6 0.140827 0.553377 0.872980 0.148499
S61   S     S_3+6 0.138938 0.441551 0.127092 0.148291
S62   S     S_3+6 0.615860 0.094851 0.454136 0.134586
S63   S     S_3+6 0.612002 0.899603 0.546108 0.134902
S64   S     S_3+6 0.401043 0.112731 0.953991 0.134629
Zn1   Zn    Zn3+2 0.413200 0.000000 0.222070 1.150329
Zn2   Zn    Zn3+2 0.086800 0.500000 0.277930 1.141539
Zn3   Zn    Zn3+2 0.500000 0.913200 0.722070 1.141465
Zn4   Zn    Zn3+2 0.500000 0.086800 0.277930 1.150319
Zn5   Zn    Zn3+2 0.086800 0.500000 0.722070 1.140735
Zn6   Zn    Zn3+2 0.913200 0.500000 0.277930 1.141867
Zn7   Zn    Zn3+2 0.500000 0.086800 0.722070 1.141864
Zn8   Zn    Zn3+2 0.500000 0.913200 0.277930 1.140742
Zn9   Zn    Zn3+2 0.586800 0.000000 0.777930 1.141519
Zn10  Zn    Zn3+2 0.000000 0.413200 0.222070 1.141498
Zn11  Zn    Zn3+2 0.000000 0.586800 0.777930 1.150314
Zn12  Zn    Zn3+2 0.586800 0.000000 0.222070 1.140732
Zn13  Zn    Zn3+2 0.413200 0.000000 0.777930 1.141866
Zn14  Zn    Zn3+2 1.000000 0.586800 0.222070 1.141863
Zn15  Zn    Zn3+2 0.000000 0.413200 0.777930 1.140742
Zn16  Zn    Zn3+2 0.913200 0.500000 0.722070 1.150328

loop_
_geom_bond_atom_site_label_1
_geom_bond_atom_site_label_2
_ccdc_geom_bond_type
C33   C55   A    
C34   S5    S    
O111  S44   S    
H40   O98   S    
C29   C42   A    
C35   C53   A    
C97   O173  A    
O153  S59   D    
O9    S10   S    
C30   C51   A    
O164  Zn7   S    
C99   O175  A    
C123  S32   S    
O185  Zn10  S    
C39   C41   A    
C121  S30   S    
O175  Zn6   S    
C20   C92   S    
O221  S64   D    
O226  S2    S    
O112  Zn3   S    
H51   O132  S    
O98   S40   S    
C6    C25   A    
H17   O29   S    
C28   C40   A    
O73   S32   D    
H64   O222  S    
H60   O159  S    
O168  Zn10  S    
C108  C109  A    
C127  S37   S    
O190  Zn8   S    
O198  S12   D    
C120  S29   S    
O162  S61   S    
O244  S8    D    
O25   S16   D    
C46   S52   S    
H31   O72   S    
O232  S4    S    
O125  S49   D    
C43   S49   S    
C3    C19   A    
O38   S20   D    
C17   C98   S    
H61   O162  S    
C91   O178  A    
C36   S7    S    
O88   S37   S    
O55   S26   S    
C34   C60   A    
O144  S55   D    
C36   C62   A    
C28   C73   S    
O224  S2    D    
O201  Zn7   S    
O1    Zn4   S    
C16   C109  A    
O46   Zn14  S    
C63   S34   S    
O210  S56   D    
O112  Zn13  S    
O172  Zn7   S    
C92   O169  A    
O3    S8    S    
H8    O3    S    
C3    S39   S    
C104  S14   S    
C17   C127  A    
C103  S13   S    
C13   S3    S    
C33   C50   A    
O56   S27   D    
C10   C82   S    
O47   S24   D    
O216  S62   S    
C98   O174  A    
H55   O145  S    
C85   S56   S    
O202  S23   D    
C25   C100  A    
C100  S9    S    
H43   O108  S    
O126  S49   S    
O212  Zn2   S    
H63   O219  S    
H20   O39   S    
C78   O79   A    
H3    O229  S    
C52   C58   A    
C124  C127  A    
O158  S60   D    
C31   C48   A    
C101  C115  A    
O10   S11   D    
O26   S16   S    
C104  C112  A    
C2    S2    S    
O1    Zn8   S    
C38   S44   S    
C44   S50   S    
C1    C56   A    
O6    S9    S    
C4    S40   S    
C9    C90   S    
C90   O191  A    
H33   O78   S    
C59   C63   A    
H1    O196  S    
C115  S25   S    
C16   C124  A    
H13   O16   S    
O233  S5    D    
H59   O155  S    
O215  S62   D    
O195  S1    D    
C23   C101  A    
H62   O216  S    
C112  S21   S    
C23   C95   S    
O149  S57   S    
O159  S60   S    
C69   C70   T    
C11   C113  A    
C48   S54   S    
H6    O239  S    
C8    C116  A    
C41   C57   A    
C58   C67   S    
O93   S39   D    
O179  Zn11  S    
C15   C125  A    
O155  S59   S    
O179  Zn15  S    
H49   O126  S    
C6    S42   S    
C77   O24   A    
H12   O199  S    
H58   O152  S    
O147  S57   D    
O173  Zn8   S    
O223  Zn16  S    
C7    C117  A    
O82   S35   S    
O135  Zn3   S    
C57   C66   S    
H41   O102  S    
C81   O113  A    
C113  S22   S    
O69   S30   S    
C12   C84   S    
C34   C51   A    
C88   O164  A    
C21   C93   S    
O129  S50   S    
C31   C81   S    
H57   O149  S    
H11   O12   S    
C59   C68   S    
C82   O187  A    
H18   O32   S    
O83   S36   D    
O77   S33   D    
O225  S2    D    
C55   S61   S    
C110  S19   S    
O121  S48   D    
C27   C44   A    
H29   O65   S    
H4    O232  S    
H7    O242  S    
C57   C85   A    
O30   S18   D    
O22   S15   S    
O204  S34   D    
O151  S58   D    
C22   C94   S    
O234  Zn4   S    
H14   O19   S    
C11   C120  A    
O183  Zn9   S    
O157  Zn5   S    
O134  S52   D    
C24   C50   A    
C94   O171  A    
O237  S6    D    
O66   S30   D    
O168  Zn6   S    
O235  S5    D    
C83   O135  A    
O28   S17   D    
C14   C86   S    
O90   Zn10  S    
O186  Zn11  S    
O187  Zn1   S    
O1    Zn1   S    
C122  S31   S    
O176  Zn11  S    
O243  S8    D    
C45   S51   S    
C117  S27   S    
O209  S45   S    
C59   C107  A    
O78   S33   S    
C5    S41   S    
C18   C106  A    
O169  Zn4   S    
O57   Zn9   S    
C24   S4    S    
C4    C22   A    
O61   S28   D    
H22   O45   S    
O85   S36   S    
C5    C21   A    
C35   C61   A    
O12   S11   S    
O168  Zn14  S    
O127  S50   D    
C25   C97   S    
O124  Zn4   S    
O7    S10   D    
H36   O85   S    
O18   S14   D    
C37   S8    S    
C18   C99   S    
H37   O88   S    
C44   C85   A    
O36   S19   S    
C6    C119  A    
C12   C112  A    
O122  S48   S    
O180  Zn12  S    
O97   S40   D    
C78   O35   A    
O218  S63   D    
O92   S38   S    
O177  Zn10  S    
O188  Zn9   S    
C106  S16   S    
C2    C61   A    
O182  Zn14  S    
O39   S20   S    
O48   S24   D    
C26   C38   A    
C52   S23   S    
O37   S20   D    
H24   O49   S    
O238  S6    D    
O239  S6    S    
O32   S18   S    
C12   C123  A    
C27   C39   A    
C60   C69   S    
O67   S30   D    
C7    C23   A    
H23   O203  S    
O54   S26   D    
O166  Zn16  S    
C62   C71   S    
O139  S53   S    
C87   O163  A    
O199  S12   S    
C36   C54   A    
O20   S15   D    
O59   S27   S    
C37   C55   A    
O1    Zn12  S    
C80   O101  A    
H26   O55   S    
O197  S12   D    
C49   S55   S    
O184  Zn1   S    
C1    S1    S    
O44   S22   D    
C8    C89   S    
C79   O46   A    
C95   O183  A    
O112  Zn9   S    
O81   S35   D    
O63   S29   D    
O106  S43   D    
C8    C119  A    
C61   C70   S    
O87   S37   D    
C14   C122  A    
O52   S25   S    
C100  C116  A    
C102  S11   S    
O79   Zn11  S    
C92   O180  A    
C96   S62   S    
C77   O223  A    
O102  S41   S    
O8    S10   D    
O101  Zn13  S    
O99   S41   D    
C111  S20   S    
H50   O129  S    
C32   C49   A    
C128  S38   S    
C7    S43   S    
C98   O181  A    
O53   S26   D    
O119  S47   S    
C105  S15   S    
O21   S15   D    
C41   S12   S    
H39   O95   S    
C47   C118  A    
C90   O166  A    
C13   C62   A    
H54   O142  S    
O14   S13   D    
O145  S55   S    
O103  S42   D    
C60   C118  A    
C42   S48   S    
O64   S29   D    
O72   S31   S    
O41   S21   D    
O105  S42   S    
C10   C114  A    
O132  S51   S    
O120  S48   D    
C40   S47   S    
C105  C111  A    
O131  S51   D    
C24   C64   A    
C99   O182  A    
C125  S35   S    
C15   C110  A    
O89   S38   D    
O207  S45   D    
O165  Zn2   S    
C32   C54   A    
C84   O146  A    
O51   S25   D    
O174  Zn5   S    
O213  S56   S    
C56   C74   A    
C95   O172  A    
C93   O176  A    
O227  S3    D    
C67   C68   T    
C9    C115  A    
H46   O116  S    
O230  S4    D    
C76   O212  A    
O133  S52   D    
C33   C79   S    
O70   S31   D    
C5    C120  A    
C2    C48   A    
O189  Zn14  S    
O167  Zn3   S    
O229  S3    S    
O80   S35   D    
O196  S1    S    
O231  S4    D    
O15   S13   D    
O50   S25   D    
O152  S58   S    
O40   S21   D    
O19   S14   S    
O108  S43   S    
C89   O189  A    
O42   S21   S    
O96   S40   D    
C1    C38   A    
C29   C75   S    
C19   C105  A    
O74   S32   D    
H5    O236  S    
C74   S45   S    
O168  Zn2   S    
O217  S63   D    
C125  C126  A    
O191  Zn15  S    
O208  S45   D    
C17   C108  A    
C73   O190  A    
O27   S17   D    
C37   C64   A    
C88   O193  A    
C76   O13   A    
C81   O68   A    
H27   O59   S    
O13   Zn6   S    
O136  S52   S    
H56   O213  S    
O109  S44   D    
O146  Zn6   S    
H34   O206  S    
O24   Zn5   S    
C22   C102  A    
O71   S31   D    
O179  Zn5   S    
O33   S19   D    
C29   C46   A    
O2    Zn3   S    
C11   C83   S    
H2    O226  S    
O143  S55   D    
O117  S47   D    
O128  S50   D    
O16   S13   S    
C107  S63   S    
H45   O209  S    
O58   S27   D    
O45   S22   S    
O150  S58   D    
C94   O177  A    
C118  S64   S    
C4    C121  A    
O160  S61   D    
C19   C91   S    
C71   C72   T    
H9    O6    S    
O91   S38   D    
C16   C88   S    
O140  S54   D    
C84   O185  A    
C42   C63   A    
O200  S23   D    
C18   C126  A    
O130  S51   D    
H48   O122  S    
C86   O157  A    
C93   O170  A    
C9    C117  A    
O171  Zn2   S    
O148  S57   D    
H38   O92   S    
C10   C121  A    
C109  S18   S    
O110  S44   D    
O60   S28   D    
C79   O90   A    
H16   O26   S    
C126  S36   S    
O154  S59   D    
C102  C114  A    
O84   S36   D    
C103  C113  A    
C20   C128  A    
O193  Zn13  S    
O179  Zn16  S    
C54   S60   S    
O181  Zn15  S    
H10   O9    S    
O5    S9    D    
C56   C65   S    
O43   S22   D    
C58   C96   A    
O141  S54   D    
O220  S64   D    
C89   O165  A    
C50   S57   S    
C91   O167  A    
O29   S17   S    
H44   O111  S    
O137  S53   D    
C3    C122  A    
C30   C80   S    
O211  S56   D    
C43   C74   A    
O170  Zn16  S    
O76   S33   D    
C35   S6    S    
H28   O62   S    
C26   C43   A    
C51   S58   S    
O95   S39   S    
C14   C111  A    
O68   Zn1   S    
C28   C45   A    
O65   S29   S    
C30   C47   A    
O206  S34   S    
C82   O124  A    
O113  Zn12  S    
O222  S64   S    
C119  S28   S    
C73   O234  A    
C40   C52   A    
C32   C78   S    
C116  S26   S    
O104  S42   D    
C47   S53   S    
O107  S43   D    
C75   O2    A    
H42   O105  S    
O75   S32   S    
O11   S11   D    
O214  S62   D    
O236  S5    S    
O142  S54   S    
H30   O69   S    
C46   C107  A    
C53   S59   S    
O115  S46   D    
O203  S23   S    
C31   C53   A    
O138  S53   D    
C97   O184  A    
H53   O139  S    
H15   O22   S    
C13   C49   A    
O242  S7    S    
O4    S9    D    
O116  S46   S    
C101  S10   S    
C80   O57   A    
O31   S18   D    
O49   S24   S    
C26   C76   S    
O123  S49   D    
C114  S24   S    
O240  S7    D    
C15   C87   S    
C106  C110  A    
C108  S17   S    
O156  S60   D    
C39   S46   S    
O86   S37   D    
O163  Zn8   S    
C27   C77   S    
O194  S1    D    
O205  S34   D    
C86   O186  A    
H19   O36   S    
C20   C104  A    
C83   O188  A    
H52   O136  S    
H21   O42   S    
O241  S7    D    
O35   Zn15  S    
O112  Zn7   S    
O228  S3    D    
O118  S47   D    
C123  C128  A    
O34   S19   D    
C87   O192  A    
O192  Zn12  S    
O23   S16   D    
C124  S33   S    
C64   C72   S    
O178  Zn13  S    
O114  S46   D    
O161  S61   D    
C21   C103  A    
H35   O82   S    
H32   O75   S    
H47   O119  S    
C65   C66   T    
C75   O201  A    
H25   O52   S    
O17   S14   D    
C45   C96   A    
O100  S41   D    
O62   S28   S    
O94   S39   D    
O219  S63   S    
