data_mof_unit_16817.cif
_audit_creation_date              2012-10-26T19:34:23-0400
_audit_creation_method            fapswitch 2.2
_symmetry_space_group_name_H-M    P1
_symmetry_Int_Tables_number       1
_space_group_crystal_system       triclinic
_cell_length_a                    19.535081
_cell_length_b                    18.393108
_cell_length_c                    15.089935
_cell_angle_alpha                 90.816612
_cell_angle_beta                  93.158403
_cell_angle_gamma                 90.296996
_cell_volume                      5413.09501471

loop_
_atom_site_label
_atom_site_type_symbol
_atom_type_description
_atom_site_fract_x
_atom_site_fract_y
_atom_site_fract_z
_atom_type_partial_charge
C1    C     C_R   0.368057 0.500543 0.499441 0.507267
C2    C     C_R   0.192691 0.531155 0.586630 -0.114071
C3    C     C_R   0.178649 0.491921 0.433645 -0.122329
C4    C     C_R   0.817124 0.567120 0.473044 -0.116240
C5    C     C_R   0.853905 0.505307 0.497656 -0.010802
C6    C     C_R   0.149816 0.510998 0.513339 -0.004783
C7    C     C_R   0.708622 0.501037 0.484062 0.038350
C8    C     C_R   0.293081 0.503991 0.503644 0.029258
C9    C     C_R   0.965685 0.562611 0.555825 0.021477
C10   C     C_R   0.037959 0.446481 0.485688 0.030334
C11   C     C_R   0.037079 0.570974 0.545583 0.035991
C12   C     C_R   0.632347 0.500199 0.493798 0.546480
C13   C     C_R   0.967849 0.453502 0.460979 0.032206
C14   C     C_R   0.074278 0.509206 0.517698 0.015756
C15   C     C_R   0.929943 0.507161 0.505156 0.009617
C16   C     C_R   0.474155 0.720133 0.425102 0.153964
C17   C     C_R   0.549905 0.279004 0.550001 0.152633
C18   C     C_R   0.524701 0.726594 0.571500 0.154836
C19   C     C_R   0.453937 0.274915 0.447137 0.161932
C20   C     C_R   0.486614 0.795652 0.416113 -0.148550
C21   C     C_R   0.559439 0.203746 0.536203 -0.127978
C22   C     C_R   0.520181 0.802926 0.569029 -0.141492
C23   C     C_R   0.396135 0.431512 0.043167 0.288354
C24   C     C_R   0.452859 0.198355 0.453342 -0.137923
C25   C     C_R   0.505866 0.839254 0.490033 -0.026123
C26   C     C_R   0.508305 0.160995 0.493046 -0.016253
C27   C     C_R   0.503752 0.499749 0.329546 0.564133
C28   C     C_R   0.499442 0.499790 0.671201 0.534499
C29   C     C_R   0.555002 0.962481 0.546043 0.020035
C30   C     C_R   0.482341 0.037595 0.416494 0.033088
C31   C     C_R   0.464847 0.963594 0.429584 0.036973
C32   C     C_R   0.540739 0.037075 0.562204 0.038771
C33   C     C_R   0.511626 0.078424 0.490242 0.022306
C34   C     C_R   0.611707 0.565371 0.958599 0.280989
C35   C     C_R   0.508922 0.921964 0.487356 0.012051
C36   C     C_R   0.550422 0.535623 0.817167 -0.167458
C37   C     C_R   0.454277 0.464339 0.184057 -0.183273
C38   C     C_R   0.498975 0.497937 0.768190 -0.032054
C39   C     C_R   0.506788 0.499359 0.233385 -0.021801
C40   C     C_R   0.452951 0.452824 0.811749 0.264750
C41   C     C_R   0.559391 0.535615 0.191288 0.281490
C42   C     C_R   0.450826 0.457383 0.905249 0.005384
C43   C     C_R   0.560343 0.532983 0.097162 0.001331
C44   C     C_R   0.502171 0.498886 0.954212 -0.098979
C45   C     C_R   0.747833 0.435644 0.491943 -0.003597
C46   C     C_R   0.504100 0.500212 0.047562 -0.101027
C47   C     C_R   0.554393 0.534687 0.909963 -0.019240
C48   C     C_R   0.450947 0.466077 0.091629 -0.022830
C49   C     C_R   0.398695 0.421624 0.950754 0.312545
C50   C     C_R   0.616630 0.560683 0.052351 0.306252
C51   C     C_3   0.621858 0.930272 0.584515 -0.282601
C52   C     C_3   0.683829 0.977169 0.564434 -0.444502
C53   C     C_3   0.474620 0.068499 0.323484 -0.281157
C54   C     C_3   0.516349 0.024975 0.258544 -0.443030
C55   C     C_3   0.395884 0.935364 0.391063 -0.279635
C56   C     C_R   0.263745 0.535087 0.579621 -0.016983
C57   C     C_3   0.336759 0.980921 0.423844 -0.442919
C58   C     C_3   0.548594 0.065828 0.657620 -0.271757
C59   C     C_3   0.480570 0.093075 0.690666 -0.435788
C60   C     C_3   0.358635 0.420167 0.722511 -0.077444
C61   C     C_3   0.600117 0.645415 0.245069 -0.113884
C62   C     C_3   0.286692 0.391425 0.904872 -0.088419
C63   C     C_3   0.708368 0.638684 0.090215 -0.069755
C64   C     C_3   0.296490 0.459659 0.105748 -0.172157
C65   C     C_3   0.657763 0.662744 0.888115 -0.158304
C66   C     C_3   0.719259 0.359975 0.471790 -0.269327
C67   C     C_R   0.249507 0.484293 0.428879 -0.003997
C68   C     C_3   0.693243 0.351837 0.374713 -0.397405
C69   C     C_3   0.304584 0.579577 0.649790 -0.279659
C70   C     C_3   0.300816 0.660391 0.628355 -0.416774
C71   C     C_3   0.275691 0.459924 0.340944 -0.279813
C72   C     C_3   0.248246 0.384236 0.314148 -0.453271
C73   C     C_3   0.712378 0.638979 0.443714 -0.246790
C74   C     C_3   0.709498 0.689694 0.524310 -0.437244
C75   C     C_3   0.929030 0.610279 0.621959 -0.279470
C76   C     C_3   0.961956 0.604480 0.715929 -0.443778
C77   C     C_3   0.072171 0.372185 0.480067 -0.277846
C78   C     C_R   0.745311 0.567211 0.468952 0.016469
C79   C     C_3   0.042622 0.319729 0.545905 -0.446526
C80   C     C_3   0.071094 0.645792 0.557831 -0.268154
C81   C     C_3   0.093699 0.675388 0.469846 -0.441745
C82   C     C_3   0.937067 0.408870 0.382254 -0.277171
C83   C     C_3   0.968432 0.431413 0.296075 -0.440803
C84   C     C_3   0.416846 0.689356 0.362690 -0.230843
C85   C     C_3   0.430347 0.691042 0.263524 -0.468163
C86   C     C_3   0.590198 0.311349 0.629903 -0.251029
C87   C     C_3   0.555694 0.292998 0.715211 -0.403505
C88   C     C_3   0.556385 0.698227 0.657301 -0.227625
C89   C     C_R   0.818767 0.440411 0.509331 -0.123266
C90   C     C_3   0.504142 0.700132 0.729591 -0.427747
C91   C     C_3   0.404650 0.306102 0.377546 -0.251920
C92   C     C_3   0.423418 0.283134 0.284106 -0.455406
Cu1   Cu    Cu3+1 0.500000 0.573360 0.500000 0.892617
Cu2   Cu    Cu3+1 0.500000 0.426640 0.500000 0.910752
H1    H     H_    0.589565 0.562327 0.781377 0.148389
H2    H     H_    0.410840 0.167974 0.420618 0.096471
H3    H     H_    0.526956 0.678475 0.792345 0.124130
H4    H     H_    0.488362 0.756935 0.743152 0.120151
H5    H     H_    0.581956 0.645573 0.649210 0.180475
H6    H     H_    0.599918 0.734404 0.680011 0.076075
H7    H     H_    0.476753 0.300246 0.272369 0.173960
H8    H     H_    0.418482 0.223413 0.274469 0.132918
H9    H     H_    0.388212 0.309033 0.233946 0.171534
H10   H     H_    0.352305 0.286133 0.389196 0.108458
H11   H     H_    0.403192 0.365137 0.378927 0.213190
H12   H     H_    0.685109 0.985907 0.491833 0.151439
H13   H     H_    0.682206 0.030630 0.599257 0.144321
H14   H     H_    0.731685 0.949249 0.587524 0.127960
H15   H     H_    0.620293 0.923350 0.657286 0.120822
H16   H     H_    0.631376 0.876106 0.554563 0.146314
H17   H     H_    0.571280 0.024626 0.281957 0.150515
H18   H     H_    0.497504 0.968073 0.251428 0.141463
H19   H     H_    0.511911 0.050467 0.192221 0.135287
H20   H     H_    0.419994 0.068937 0.299196 0.134967
H21   H     H_    0.415172 0.436516 0.219010 0.147523
H22   H     H_    0.494589 0.124863 0.321733 0.149408
H23   H     H_    0.337865 0.981032 0.497553 0.152033
H24   H     H_    0.339589 0.037838 0.401008 0.142559
H25   H     H_    0.287169 0.957160 0.397737 0.128869
H26   H     H_    0.394373 0.935319 0.317453 0.134045
H27   H     H_    0.385011 0.879455 0.412489 0.145474
H28   H     H_    0.463382 0.142935 0.655809 0.168762
H29   H     H_    0.440385 0.050328 0.680623 0.149277
H30   H     H_    0.486964 0.106399 0.762666 0.136561
H31   H     H_    0.565288 0.021746 0.703114 0.136480
H32   H     H_    0.848036 0.391713 0.524099 0.103820
H33   H     H_    0.588700 0.107970 0.667493 0.124786
H34   H     H_    0.331898 0.462178 0.761028 0.079354
H35   H     H_    0.323384 0.373095 0.711369 0.143425
H36   H     H_    0.369525 0.440314 0.656810 0.147636
H37   H     H_    0.575340 0.667201 0.182706 0.080368
H38   H     H_    0.650124 0.673625 0.256377 0.113361
H39   H     H_    0.569544 0.660151 0.302106 0.150440
H40   H     H_    0.279673 0.451345 0.900397 0.062457
H41   H     H_    0.261088 0.369055 0.962359 0.168213
H42   H     H_    0.259776 0.366712 0.845153 0.109166
H43   H     H_    0.170794 0.546581 0.648478 0.099723
H44   H     H_    0.669598 0.681803 0.076065 0.068163
H45   H     H_    0.746937 0.636926 0.039049 0.159395
H46   H     H_    0.736868 0.653997 0.153356 0.116506
H47   H     H_    0.282088 0.492662 0.046493 0.090141
H48   H     H_    0.318683 0.496429 0.158831 0.110656
H49   H     H_    0.248533 0.435810 0.128906 0.134980
H50   H     H_    0.613863 0.690841 0.918020 0.080126
H51   H     H_    0.651295 0.664943 0.814829 0.120564
H52   H     H_    0.704782 0.694566 0.907139 0.117156
H53   H     H_    0.652060 0.391349 0.357602 0.195806
H54   H     H_    0.145108 0.480125 0.375540 0.113373
H55   H     H_    0.736089 0.360592 0.330526 0.147780
H56   H     H_    0.672353 0.296101 0.362557 0.128955
H57   H     H_    0.759202 0.317844 0.483843 0.114179
H58   H     H_    0.679181 0.345856 0.516244 0.164939
H59   H     H_    0.330157 0.692315 0.680774 0.122128
H60   H     H_    0.323122 0.670908 0.563591 0.176077
H61   H     H_    0.246753 0.679026 0.625585 0.139211
H62   H     H_    0.283474 0.571461 0.715846 0.109866
H63   H     H_    0.359178 0.563801 0.655899 0.158898
H64   H     H_    0.251196 0.347365 0.371771 0.150043
H65   H     H_    0.844936 0.616534 0.459345 0.108360
H66   H     H_    0.193924 0.387338 0.288758 0.131240
H67   H     H_    0.278481 0.360946 0.260698 0.162441
H68   H     H_    0.258018 0.499349 0.289687 0.122646
H69   H     H_    0.332335 0.459824 0.341602 0.135623
H70   H     H_    0.678748 0.738482 0.506436 0.131863
H71   H     H_    0.685860 0.661621 0.579568 0.158881
H72   H     H_    0.762059 0.707442 0.547148 0.130493
H73   H     H_    0.742668 0.666196 0.393266 0.117696
H74   H     H_    0.661244 0.631939 0.410278 0.199446
H75   H     H_    0.962085 0.546880 0.737142 0.156053
H76   H     H_    0.473472 0.821684 0.353830 0.097706
H77   H     H_    0.015351 0.625472 0.719972 0.139667
H78   H     H_    0.931980 0.636908 0.762672 0.134443
H79   H     H_    0.927541 0.667722 0.600588 0.121921
H80   H     H_    0.874948 0.593515 0.627483 0.158486
H81   H     H_    0.051684 0.341334 0.614712 0.150815
H82   H     H_    0.986727 0.311465 0.532204 0.142819
H83   H     H_    0.068278 0.266207 0.540929 0.130756
H84   H     H_    0.066135 0.348822 0.411955 0.135976
H85   H     H_    0.127990 0.374758 0.497180 0.153336
H86   H     H_    0.136003 0.642895 0.443922 0.163588
H87   H     H_    0.605641 0.178777 0.563330 0.091267
H88   H     H_    0.049786 0.675258 0.419819 0.146000
H89   H     H_    0.112428 0.732175 0.479931 0.125069
H90   H     H_    0.035904 0.686733 0.583856 0.137901
H91   H     H_    0.114995 0.645080 0.607112 0.128858
H92   H     H_    0.957854 0.489734 0.283256 0.155749
H93   H     H_    0.024687 0.423031 0.299023 0.136465
H94   H     H_    0.945259 0.398489 0.239790 0.137611
H95   H     H_    0.944671 0.349867 0.392769 0.133391
H96   H     H_    0.881260 0.416787 0.370733 0.158751
H97   H     H_    0.457118 0.641399 0.242993 0.159825
H98   H     H_    0.531351 0.834190 0.629419 0.100701
H99   H     H_    0.380574 0.691841 0.224242 0.123848
H100  H     H_    0.460476 0.739234 0.245311 0.124701
H101  H     H_    0.400890 0.634234 0.378798 0.203592
H102  H     H_    0.370708 0.723058 0.372716 0.099196
H103  H     H_    0.499944 0.303750 0.707890 0.229849
H104  H     H_    0.563066 0.234676 0.730866 0.127228
H105  H     H_    0.578549 0.326344 0.771338 0.153056
H106  H     H_    0.642606 0.287944 0.635119 0.083019
H107  H     H_    0.598149 0.370164 0.626930 0.204495
H108  H     H_    0.457450 0.668176 0.709429 0.179886
N1    N     N_R   0.500000 0.683620 0.500000 -0.215572
N2    N     N_R   0.500000 0.316380 0.500000 -0.206554
O1    O     O_R   0.400190 0.561980 0.499990 -0.521662
O2    O     O_3   0.611476 0.569516 0.242819 -0.527132
O3    O     O_3   0.356216 0.370291 0.906679 -0.504050
O4    O     O_3   0.679496 0.568906 0.099700 -0.501734
O5    O     O_3   0.341936 0.402547 0.086586 -0.576990
O6    O     O_3   0.667696 0.589722 0.914501 -0.561210
O7    O     O_R   0.599810 0.438020 0.500010 -0.526439
O8    O     O_R   0.599810 0.561980 0.500010 -0.507058
O9    O     O_R   0.400190 0.438020 0.499990 -0.524946
O10   O     O_R   0.499980 0.561960 0.370260 -0.507807
O11   O     O_R   0.500020 0.438040 0.629740 -0.477554
O12   O     O_R   0.500020 0.561960 0.629740 -0.524648
O13   O     O_R   0.499980 0.438040 0.370260 -0.521585
O14   O     O_3   0.419523 0.395914 0.766047 -0.529770

loop_
_geom_bond_atom_site_label_1
_geom_bond_atom_site_label_2
_ccdc_geom_bond_type
C28   O12   A    
C66   C68   S    
C21   C26   A    
C55   H27   S    
Cu1   Cu2   S    
C71   H68   S    
C75   H79   S    
C1    C8    S    
C63   H46   S    
C91   H11   S    
C20   H76   S    
C87   H105  S    
C91   H10   S    
C73   H73   S    
C3    C6    A    
Cu1   O1    S    
C8    C56   A    
C61   H39   S    
C76   H75   S    
C39   C41   A    
C53   C54   S    
C21   H87   S    
Cu2   O11   S    
C77   H85   S    
C81   H86   S    
C71   H69   S    
C7    C45   A    
C24   C26   A    
C29   C32   A    
C24   H2    S    
C30   C31   A    
C11   C14   A    
C85   H100  S    
C23   C49   A    
C4    H65   S    
C20   C25   A    
C84   H101  S    
C70   H59   S    
C54   H19   S    
C16   C84   S    
C72   H64   S    
C36   C47   A    
C4    C78   A    
C73   C74   S    
C62   H42   S    
C41   O2    S    
C76   H78   S    
C68   H55   S    
C34   O6    S    
C92   H9    S    
C17   C86   S    
C49   O3    S    
C52   H13   S    
C27   C39   S    
C22   C25   A    
C27   O10   A    
C69   H63   S    
C80   H91   S    
C79   H83   S    
C83   H92   S    
C18   N1    A    
C32   C58   S    
C16   N1    A    
C1    O1    A    
C90   H3    S    
C61   H38   S    
C53   H22   S    
C92   H8    S    
C61   O2    S    
C89   H32   S    
C59   H28   S    
C40   C42   A    
C52   H12   S    
C58   H33   S    
C51   H15   S    
C18   C22   A    
C82   H96   S    
Cu1   O12   S    
C41   C43   A    
C83   H93   S    
C2    C6    A    
C42   C44   A    
C81   H88   S    
C73   H74   S    
Cu1   N1    S    
C10   C77   S    
C44   C46   A    
C55   H26   S    
C77   C79   S    
C59   H29   S    
C7    C12   S    
C30   C53   S    
C46   C48   A    
C34   C50   A    
C69   H62   S    
C51   C52   S    
C79   H81   S    
C60   H34   S    
C19   C91   S    
C84   C85   S    
C12   O8    A    
C10   C14   A    
C60   H36   S    
C91   C92   S    
C65   H50   S    
C86   C87   S    
C4    C5    A    
C23   O5    S    
C58   C59   S    
C73   C78   S    
C13   C82   S    
C82   C83   S    
Cu2   O13   S    
C18   C88   S    
C70   H61   S    
C62   H41   S    
C76   H77   S    
C75   C76   S    
C66   H58   S    
C60   O14   S    
C6    C14   S    
C26   C33   S    
C90   H108  S    
C28   C38   S    
C16   C20   A    
Cu1   O8    S    
C54   H18   S    
C37   C48   A    
C9    C11   A    
C86   H107  S    
C65   O6    S    
C88   H6    S    
C68   H53   S    
C92   H7    S    
C25   C35   S    
C7    C78   A    
C88   C90   S    
C27   O13   A    
C51   H16   S    
C63   O4    S    
C55   C57   S    
C82   H95   S    
C1    O9    A    
C58   H31   S    
C63   H44   S    
C31   C35   A    
C64   O5    S    
Cu2   N2    S    
C87   H103  S    
C22   H98   S    
C62   O3    S    
C74   H72   S    
C45   C89   A    
C53   H20   S    
C57   H23   S    
C29   C51   S    
C59   H30   S    
Cu2   O9    S    
C23   C48   A    
C30   C33   A    
C40   O14   S    
Cu1   O10   S    
C70   H60   S    
C2    H43   S    
C63   H45   S    
C79   H82   S    
C3    C67   A    
C12   O7    A    
C80   C81   S    
C10   C13   A    
C60   H35   S    
C44   C47   A    
C43   C50   A    
Cu2   O7    S    
C37   H21   S    
C64   H49   S    
C85   H97   S    
C29   C35   A    
C77   H84   S    
C72   H66   S    
C57   H25   S    
C32   C33   A    
C62   H40   S    
C13   C15   A    
C19   C24   A    
C9    C15   A    
C66   H57   S    
C37   C39   A    
C2    C56   A    
C38   C40   A    
C36   H1    S    
C85   H99   S    
C64   H48   S    
C84   H102  S    
C36   C38   A    
C19   N2    A    
C54   H17   S    
C72   H67   S    
C67   C71   S    
C80   H90   S    
C69   C70   S    
C83   H94   S    
C43   C46   A    
C17   C21   A    
C5    C15   S    
C88   H5    S    
C68   H56   S    
C11   C80   S    
C61   H37   S    
C42   C49   A    
C3    H54   S    
C71   C72   S    
C52   H14   S    
C8    C67   A    
C56   C69   S    
C64   H47   S    
C45   C66   S    
C81   H89   S    
C57   H24   S    
C34   C47   A    
C9    C75   S    
C87   H104  S    
C31   C55   S    
C65   H52   S    
C65   H51   S    
C90   H4    S    
C74   H71   S    
C5    C89   A    
C17   N2    A    
C86   H106  S    
C74   H70   S    
C75   H80   S    
C28   O11   A    
C50   O4    S    
