data_mof_unit_17724.cif
_audit_creation_date              2012-12-10T17:04:58-0500
_audit_creation_method            fapswitch 2.2
_symmetry_space_group_name_H-M    P1
_symmetry_Int_Tables_number       1
_space_group_crystal_system       triclinic
_cell_length_a                    30.165068
_cell_length_b                    30.599987
_cell_length_c                    21.417271
_cell_angle_alpha                 89.186944
_cell_angle_beta                  134.468112
_cell_angle_gamma                 91.170157
_cell_volume                      14105.1771279

loop_
_atom_site_label
_atom_site_type_symbol
_atom_type_description
_atom_site_fract_x
_atom_site_fract_y
_atom_site_fract_z
_atom_type_partial_charge
C1    C     C_R   0.310102 0.809806 0.120036 0.925728
C2    C     C_R   0.691463 0.809987 0.879389 0.908796
C3    C     C_R   0.808773 0.309909 0.120137 0.899568
C4    C     C_R   0.191450 0.310332 0.879786 0.931087
C5    C     C_R   0.568867 0.784637 0.045233 -0.193130
C6    C     C_R   0.469025 0.788886 0.030605 -0.156725
C7    C     C_R   0.020760 0.282884 0.944450 -0.181674
C8    C     C_R   0.923178 0.279953 0.935763 -0.151075
C9    C     C_R   0.479480 0.683307 0.916932 -0.210726
C10   C     C_R   0.435336 0.682311 0.920753 -0.203506
C11   C     C_R   0.055407 0.179411 0.066221 -0.205149
C12   C     C_R   0.009604 0.179604 0.066633 -0.206051
C13   C     C_R   0.515610 0.821849 0.077407 0.374848
C14   C     C_R   0.564264 0.820771 0.081476 0.352776
C15   C     C_R   0.928201 0.315664 0.898122 0.374498
C16   C     C_R   0.973852 0.314971 0.895838 0.337160
C17   C     C_R   0.277263 0.823402 0.215579 -0.152330
C18   C     C_R   0.672421 0.803091 0.725676 -0.103809
C19   C     C_R   0.806682 0.307079 0.253499 -0.161489
C20   C     C_R   0.254692 0.393569 0.906689 -0.128070
C21   C     C_R   0.266910 0.825842 0.269345 -0.126628
C22   C     C_R   0.656355 0.796902 0.647437 -0.142271
C23   C     C_R   0.810866 0.303648 0.322383 -0.135460
C24   C     C_R   0.281175 0.434968 0.923155 -0.161392
C25   C     C_R   0.306710 0.850706 0.345356 -0.159300
C26   C     C_R   0.615418 0.825104 0.577640 -0.154886
C27   C     C_R   0.850230 0.331598 0.393667 -0.160925
C28   C     C_R   0.245263 0.468942 0.864874 -0.149023
C29   C     C_R   0.355338 0.874700 0.365863 -0.146509
C30   C     C_R   0.591863 0.860292 0.586789 -0.149796
C31   C     C_R   0.884428 0.363809 0.395416 -0.153077
C32   C     C_R   0.183280 0.461251 0.788466 -0.123172
C33   C     C_R   0.364080 0.875213 0.308827 0.108218
C34   C     C_R   0.608901 0.867587 0.666571 0.099554
C35   C     C_R   0.878465 0.369320 0.324015 0.110459
C36   C     C_R   0.155959 0.419213 0.769865 0.094370
C37   C     C_R   0.326889 0.847028 0.235966 0.024161
C38   C     C_R   0.646841 0.837371 0.735197 0.030105
C39   C     C_R   0.841540 0.339263 0.254324 0.024976
C40   C     C_R   0.190743 0.385383 0.831447 0.016990
C41   C     C_R   0.341972 0.841813 0.187415 -0.222190
C42   C     C_R   0.657607 0.842351 0.810835 -0.244026
C43   C     C_R   0.840268 0.342478 0.187108 -0.233212
C44   C     C_R   0.160577 0.344362 0.814183 -0.259559
C45   C     C_R   0.336386 0.750509 0.999367 0.923853
C46   C     C_R   0.664061 0.748913 0.002191 0.874025
C47   C     C_R   0.835201 0.249120 0.996344 0.884434
C48   C     C_R   0.163429 0.249635 0.000053 0.954604
C49   C     C_R   0.394003 0.862420 0.211953 0.459843
C50   C     C_R   0.630072 0.876372 0.816782 0.489943
C51   C     C_R   0.873404 0.375284 0.187282 0.467408
C52   C     C_R   0.098702 0.336579 0.734520 0.490624
C53   C     C_R   0.424591 0.894468 0.274927 -0.305503
C54   C     C_R   0.597963 0.908032 0.752736 -0.290365
C55   C     C_R   0.905703 0.406458 0.252320 -0.324785
C56   C     C_R   0.065934 0.369995 0.674328 -0.327477
C57   C     C_R   0.409738 0.901693 0.322755 -0.202768
C58   C     C_R   0.588350 0.904057 0.679315 -0.185434
C59   C     C_R   0.908707 0.403633 0.320177 -0.187307
C60   C     C_R   0.094454 0.410183 0.691019 -0.161120
C61   C     C_R   0.876286 0.765836 0.935252 0.345524
C62   C     C_R   0.123935 0.724959 0.066955 0.369766
C63   C     C_R   0.392168 0.286809 0.968709 0.340350
C64   C     C_R   0.603569 0.211242 0.024788 0.343378
C65   C     C_R   0.887218 0.748653 0.005892 -0.293620
C66   C     C_R   0.119442 0.753398 0.009796 -0.353205
C67   C     C_R   0.384114 0.250105 0.999971 -0.291577
C68   C     C_R   0.616718 0.249917 0.003370 -0.313674
C69   C     C_R   0.945750 0.732598 0.080615 0.332246
C70   C     C_R   0.072057 0.785071 0.960381 0.377857
C71   C     C_R   0.419894 0.212614 0.028536 0.342617
C72   C     C_R   0.584561 0.288708 0.983396 0.351692
C73   C     C_R   0.992921 0.732486 0.081986 0.020367
C74   C     C_R   0.023972 0.782616 0.956373 0.014711
C75   C     C_R   0.464487 0.211640 0.025050 0.009622
C76   C     C_R   0.535971 0.288121 0.978548 0.013316
C77   C     C_R   0.983989 0.755339 0.016199 -0.021660
C78   C     C_R   0.030972 0.756537 0.017476 -0.027740
C79   C     C_R   0.476093 0.249650 0.999868 -0.022421
C80   C     C_R   0.523055 0.249659 0.000843 -0.019223
C81   C     C_R   0.926550 0.774629 0.945683 0.029552
C82   C     C_R   0.083517 0.730254 0.077397 0.014822
C83   C     C_R   0.440500 0.287561 0.973057 0.032611
C84   C     C_R   0.557489 0.211403 0.025261 0.014617
C85   C     C_R   0.048164 0.709653 0.146490 -0.193387
C86   C     C_R   0.968818 0.805575 0.891950 -0.201594
C87   C     C_R   0.498278 0.173664 0.047597 -0.194706
C88   C     C_R   0.500774 0.325691 0.953139 -0.193725
C89   C     C_R   0.191483 0.690042 0.880022 0.888379
C90   C     C_R   0.806227 0.689619 0.119968 0.917600
C91   C     C_R   0.690152 0.190113 0.880236 0.878238
C92   C     C_R   0.307506 0.189846 0.120140 0.899373
C93   C     C_R   0.092471 0.707768 0.143070 -0.207413
C94   C     C_R   0.919693 0.800467 0.884959 -0.206225
C95   C     C_R   0.544659 0.173668 0.048533 -0.192412
C96   C     C_R   0.453154 0.325290 0.949706 -0.189027
C97   C     C_R   0.191153 0.693828 0.743993 -0.162011
C98   C     C_R   0.754598 0.597909 0.082740 -0.142430
C99   C     C_R   0.742112 0.158408 0.817697 -0.176786
C100  C     C_R   0.242215 0.109941 0.100425 -0.154390
C101  C     C_R   0.185701 0.697485 0.673988 -0.161819
C102  C     C_R   0.739298 0.553724 0.061388 -0.157226
C103  C     C_R   0.762243 0.149142 0.777555 -0.135070
C104  C     C_R   0.214631 0.069225 0.085617 -0.151258
C105  C     C_R   0.147089 0.668796 0.603883 -0.160496
C106  C     C_R   0.781275 0.521946 0.121078 -0.133888
C107  C     C_R   0.722148 0.128322 0.696827 -0.168780
C108  C     C_R   0.250627 0.034621 0.142012 -0.139271
C109  C     C_R   0.114870 0.635750 0.604405 -0.110614
C110  C     C_R   0.837062 0.534178 0.204152 -0.134082
C111  C     C_R   0.663389 0.114305 0.658870 -0.127665
C112  C     C_R   0.313893 0.041072 0.215337 -0.137296
C113  C     C_R   0.121407 0.630346 0.676411 0.018782
C114  C     C_R   0.852909 0.578846 0.227335 0.028046
C115  C     C_R   0.644160 0.119485 0.702784 0.046345
C116  C     C_R   0.342360 0.082584 0.233119 0.028582
C117  C     C_R   0.157824 0.660996 0.744945 0.102815
C118  C     C_R   0.813527 0.611212 0.164068 0.109981
C119  C     C_R   0.682183 0.145179 0.778993 0.093082
C120  C     C_R   0.306966 0.116626 0.172305 0.099261
C121  C     C_R   0.161167 0.657242 0.813815 -0.161971
C122  C     C_R   0.834409 0.655586 0.185817 -0.197885
C123  C     C_R   0.658800 0.157815 0.813750 -0.140175
C124  C     C_R   0.337502 0.156514 0.186498 -0.189280
C125  C     C_R   0.133791 0.622326 0.819315 -0.325583
C126  C     C_R   0.886887 0.667454 0.272184 -0.314614
C127  C     C_R   0.600253 0.145258 0.776537 -0.360669
C128  C     C_R   0.399527 0.164095 0.263675 -0.322357
C129  C     C_R   0.099042 0.591338 0.753587 0.456088
C130  C     C_R   0.922111 0.635973 0.336183 0.446422
C131  C     C_R   0.563381 0.117256 0.705233 0.513730
C132  C     C_R   0.433154 0.132011 0.326943 0.455939
C133  C     C_R   0.164054 0.750644 0.002332 0.913196
C134  C     C_R   0.837831 0.749068 0.002422 1.026968
C135  C     C_R   0.663692 0.249993 0.001153 0.913739
C136  C     C_R   0.336544 0.250217 0.999903 0.994738
C137  C     C_R   0.092826 0.595335 0.682373 -0.240223
C138  C     C_R   0.906750 0.591959 0.312847 -0.195813
C139  C     C_R   0.588076 0.101000 0.673128 -0.267854
C140  C     C_R   0.405289 0.091041 0.310297 -0.207381
C141  C     C_R   0.941018 0.560418 0.381368 0.917893
C142  C     C_R   0.059325 0.561120 0.617859 0.916074
C143  C     C_R   0.439795 0.059382 0.379041 0.904797
C144  C     C_R   0.557797 0.062980 0.614736 0.913890
C145  C     C_R   0.441449 0.937843 0.383910 0.871152
C146  C     C_R   0.558765 0.939349 0.618356 0.901337
C147  C     C_R   0.941209 0.438426 0.383190 0.886116
C148  C     C_R   0.060318 0.440993 0.621381 0.904354
C149  C     C_R   0.621103 0.778576 0.058722 0.456877
C150  C     C_R   0.416615 0.790723 0.017399 0.457739
C151  C     C_R   0.074231 0.285651 0.959022 0.424273
C152  C     C_R   0.873879 0.276715 0.930064 0.507024
C153  C     C_R   0.617409 0.748331 0.005658 -0.220934
C154  C     C_R   0.382649 0.751928 0.996447 -0.204419
C155  C     C_R   0.114374 0.250107 0.996942 -0.157442
C156  C     C_R   0.878025 0.247049 0.985562 -0.229495
C157  C     C_R   0.569041 0.717530 0.956267 -0.329335
C158  C     C_R   0.389821 0.715338 0.966533 -0.342567
C159  C     C_R   0.107023 0.214252 0.029592 -0.356784
C160  C     C_R   0.923057 0.214726 0.030047 -0.346959
C161  C     C_R   0.523404 0.717467 0.956973 0.175153
C162  C     C_R   0.432563 0.716763 0.960112 0.179839
C163  C     C_R   0.059473 0.213584 0.026280 0.187029
C164  C     C_R   0.966293 0.213230 0.024706 0.165122
C165  C     C_R   0.521811 0.752020 0.998523 -0.038682
C166  C     C_R   0.474230 0.752835 0.995776 -0.044048
C167  C     C_R   0.015748 0.247696 0.983016 -0.034084
C168  C     C_R   0.967866 0.246717 0.980009 -0.058025
H1    H     H_    0.056203 0.691691 0.197507 0.177044
H2    H     H_    0.962277 0.825730 0.844110 0.187116
H3    H     H_    0.489357 0.143796 0.065156 0.177539
H4    H     H_    0.509654 0.355527 0.935374 0.179927
H5    H     H_    0.211369 0.722758 0.674042 0.139481
H6    H     H_    0.694599 0.544127 0.998336 0.134687
H7    H     H_    0.808009 0.159763 0.807362 0.141611
H8    H     H_    0.165170 0.064490 0.030023 0.135918
H9    H     H_    0.084496 0.615232 0.547135 0.196559
H10   H     H_    0.867592 0.508459 0.249860 0.131923
H11   H     H_    0.632861 0.101859 0.593070 0.178793
H12   H     H_    0.340077 0.013279 0.257565 0.148797
H13   H     H_    0.480571 0.656685 0.885205 0.138753
H14   H     H_    0.403066 0.654861 0.892343 0.142326
H15   H     H_    0.088698 0.153174 0.099181 0.141754
H16   H     H_    0.008326 0.153642 0.100325 0.141269
H17   H     H_    0.300312 0.851065 0.389169 0.135169
H18   H     H_    0.602107 0.819827 0.516429 0.142828
H19   H     H_    0.854426 0.328215 0.447979 0.138848
H20   H     H_    0.265737 0.501167 0.878130 0.142590
O1    O     O_R   0.321630 0.769940 0.143350 -0.637313
O2    O     O_R   0.678370 0.769940 0.856650 -0.649514
O3    O     O_R   0.821630 0.269940 0.143350 -0.639122
O4    O     O_R   0.178370 0.269940 0.856650 -0.599361
O5    O     O_R   0.916920 0.545810 0.408440 -0.636297
O6    O     O_R   0.083080 0.545810 0.591560 -0.645334
O7    O     O_R   0.416920 0.045810 0.408440 -0.648973
O8    O     O_R   0.583080 0.045810 0.591560 -0.634667
O9    O     O_R   0.491480 0.954180 0.408380 -0.635469
O10   O     O_R   0.508520 0.954180 0.591620 -0.630546
O11   O     O_R   0.991480 0.454180 0.408380 -0.622039
O12   O     O_R   0.008520 0.454180 0.591620 -0.625899
O13   O     O_R   0.416890 0.954190 0.408420 -0.640715
O14   O     O_R   0.583110 0.954190 0.591580 -0.618422
O15   O     O_R   0.916890 0.454190 0.408420 -0.630656
O16   O     O_R   0.083110 0.454190 0.591580 -0.626030
O17   O     O_R   0.269950 0.821660 0.039930 -0.622145
O18   O     O_R   0.730050 0.821660 0.960070 -0.572982
O19   O     O_R   0.769950 0.321660 0.039930 -0.579320
O20   O     O_R   0.230050 0.321660 0.960070 -0.646213
O21   O     O_R   0.341900 0.724110 0.051720 -0.626436
O22   O     O_R   0.658100 0.724110 0.948280 -0.636202
O23   O     O_R   0.841900 0.224110 0.051720 -0.629953
O24   O     O_R   0.158100 0.224110 0.948280 -0.623375
O25   O     O_R   0.290220 0.775830 0.948290 -0.641792
O26   O     O_R   0.709780 0.775830 0.051710 -0.591933
O27   O     O_R   0.790220 0.275830 0.948290 -0.591075
O28   O     O_R   0.209780 0.275830 0.051710 -0.632848
O29   O     O_R   0.230030 0.678320 0.960120 -0.629248
O30   O     O_R   0.769970 0.678320 0.039880 -0.630725
O31   O     O_R   0.730030 0.178320 0.960120 -0.624081
O32   O     O_R   0.269970 0.178320 0.039880 -0.619381
O33   O     O_R   0.178350 0.730040 0.856700 -0.626816
O34   O     O_R   0.821650 0.730040 0.143300 -0.643321
O35   O     O_R   0.678350 0.230040 0.856700 -0.636359
O36   O     O_R   0.321650 0.230040 0.143300 -0.635093
O37   O     O_R   0.209770 0.724150 0.051760 -0.596138
O38   O     O_R   0.790230 0.724150 0.948240 -0.627369
O39   O     O_R   0.709770 0.224150 0.051760 -0.592635
O40   O     O_R   0.290230 0.224150 0.948240 -0.613333
O41   O     O_R   0.158090 0.775870 0.948330 -0.588003
O42   O     O_R   0.841910 0.775870 0.051670 -0.647279
O43   O     O_R   0.658090 0.275870 0.948330 -0.585725
O44   O     O_R   0.341910 0.275870 0.051670 -0.628361
O45   O     O_R   0.991500 0.545800 0.408400 -0.617510
O46   O     O_R   0.008500 0.545800 0.591600 -0.605361
O47   O     O_R   0.491500 0.045800 0.408400 -0.594432
O48   O     O_R   0.508500 0.045800 0.591600 -0.559248
Zn1   Zn    Zn3+2 0.284500 0.715460 0.069080 0.952570
Zn2   Zn    Zn3+2 0.715500 0.715460 0.930920 0.929121
Zn3   Zn    Zn3+2 0.784500 0.215460 0.069080 0.955235
Zn4   Zn    Zn3+2 0.215500 0.215460 0.930920 0.966996
Zn5   Zn    Zn3+2 0.215490 0.784530 0.930970 0.944922
Zn6   Zn    Zn3+2 0.784510 0.784530 0.069030 0.960774
Zn7   Zn    Zn3+2 0.715490 0.284530 0.930970 0.988867
Zn8   Zn    Zn3+2 0.284510 0.284530 0.069030 0.937411
Zn9   Zn    Zn3+2 0.549790 0.999990 0.499990 0.948943
Zn10  Zn    Zn3+2 0.450210 0.999990 0.500010 0.951690
Zn11  Zn    Zn3+2 0.049790 0.499990 0.499990 0.943910
Zn12  Zn    Zn3+2 0.950210 0.499990 0.500010 0.929122
O49   O     O_3   0.675168 0.802524 0.122871 -0.611055
C169  C     C_3   0.719086 0.776042 0.197700 0.148418
H21   H     H_    0.766109 0.787856 0.229849 0.157563
H22   H     H_    0.716255 0.740869 0.181824 0.101228
C170  C     C_3   0.713130 0.780446 0.262720 -0.321930
H23   H     H_    0.717105 0.815489 0.279220 0.254511
H24   H     H_    0.666996 0.767706 0.232744 0.224763
C171  C     C_3   0.763634 0.755003 0.346630 -1.003257
H25   H     H_    0.760034 0.719718 0.331880 0.266211
H26   H     H_    0.758043 0.758701 0.392297 0.275282
H27   H     H_    0.810383 0.767670 0.379054 0.265827
O50   O     O_3   0.397109 0.830500 0.020783 -0.613690
C172  C     C_3   0.347464 0.846312 0.934207 0.145219
H28   H     H_    0.314490 0.863154 0.932803 0.175864
H29   H     H_    0.320127 0.819969 0.883712 0.134286
C173  C     C_3   0.370544 0.879187 0.907282 -0.425135
H30   H     H_    0.388824 0.908966 0.948338 0.214806
H31   H     H_    0.408007 0.864507 0.916125 0.211732
C174  C     C_3   0.318166 0.892658 0.811683 -0.951673
H32   H     H_    0.299807 0.863816 0.768178 0.262679
H33   H     H_    0.336135 0.916986 0.794676 0.266846
H34   H     H_    0.279904 0.907629 0.800644 0.263517
O51   O     O_3   0.086282 0.321495 0.932308 -0.630973
C175  C     C_3   0.117293 0.354118 0.997635 0.142104
H35   H     H_    0.161118 0.341497 0.061548 0.133644
H36   H     H_    0.087118 0.365898 0.006182 0.162127
C176  C     C_3   0.133308 0.392591 0.969793 -0.303161
H37   H     H_    0.164567 0.381493 0.962947 0.242645
H38   H     H_    0.090129 0.404879 0.905320 0.226033
C177  C     C_3   0.164987 0.429869 0.035948 -0.986599
H39   H     H_    0.133742 0.442278 0.041933 0.268093
H40   H     H_    0.176051 0.457070 0.013634 0.275379
H41   H     H_    0.208866 0.418552 0.100968 0.265008
O52   O     O_3   0.822510 0.302959 0.870463 -0.619846
C178  C     C_3   0.772122 0.278130 0.795972 0.115828
H42   H     H_    0.730377 0.298993 0.756559 0.166294
H43   H     H_    0.761154 0.248648 0.814126 0.140568
C179  C     C_3   0.782565 0.264525 0.738243 -0.431161
H44   H     H_    0.799014 0.292813 0.726112 0.212044
H45   H     H_    0.818296 0.238741 0.771814 0.206679
C180  C     C_3   0.722719 0.247023 0.649971 -0.954124
H46   H     H_    0.702534 0.220149 0.659161 0.284842
H47   H     H_    0.732669 0.234350 0.612567 0.264151
H48   H     H_    0.688285 0.273556 0.611470 0.261013
H49   H     H_    0.461236 0.912942 0.287552 0.187624
H50   H     H_    0.580186 0.935773 0.760209 0.177286
H51   H     H_    0.928756 0.432991 0.249686 0.181565
H52   H     H_    0.018231 0.364261 0.613124 0.153006
O53   O     O_3   0.816285 0.770350 0.854026 -0.661713
C181  C     C_3   0.796640 0.730155 0.807693 0.109605
H53   H     H_    0.747603 0.723807 0.772805 0.152977
H54   H     H_    0.822364 0.700916 0.850477 0.133376
C182  C     C_3   0.800938 0.732701 0.740531 -0.378175
H55   H     H_    0.780745 0.763811 0.703315 0.231883
H56   H     H_    0.850404 0.731877 0.774862 0.228448
C183  C     C_3   0.766706 0.694400 0.676638 -0.969694
H57   H     H_    0.786652 0.662946 0.712536 0.267261
H58   H     H_    0.771553 0.696880 0.629871 0.269530
H59   H     H_    0.716511 0.694878 0.639058 0.259846
O54   O     O_3   0.167971 0.692336 0.113680 -0.625645
C184  C     C_3   0.146767 0.655213 0.059337 0.150227
H60   H     H_    0.188176 0.639793 0.079355 0.172046
H61   H     H_    0.115242 0.663348 0.988421 0.103384
C185  C     C_3   0.114972 0.621759 0.071725 -0.390823
H62   H     H_    0.146440 0.613936 0.142393 0.231130
H63   H     H_    0.071563 0.635633 0.047726 0.228473
C186  C     C_3   0.098427 0.579735 0.021208 -0.972746
H64   H     H_    0.065276 0.586689 0.950038 0.256574
H65   H     H_    0.076221 0.555982 0.032342 0.272448
H66   H     H_    0.140843 0.564814 0.043564 0.267011
O55   O     O_3   0.351485 0.321404 0.930959 -0.659396
C187  C     C_3   0.297728 0.311462 0.842119 0.071268
H67   H     H_    0.258565 0.305162 0.836114 0.145164
H68   H     H_    0.301775 0.281913 0.816265 0.125632
C188  C     C_3   0.282431 0.350326 0.784275 -0.335791
H69   H     H_    0.284096 0.381100 0.812636 0.247627
H70   H     H_    0.317691 0.353011 0.781272 0.208671
C189  C     C_3   0.218106 0.345080 0.691615 -0.947786
H71   H     H_    0.215700 0.314937 0.661003 0.257900
H72   H     H_    0.208614 0.373652 0.651359 0.270549
H73   H     H_    0.181832 0.343269 0.692684 0.261669
O56   O     O_3   0.638739 0.174138 0.051599 -0.616769
C190  C     C_3   0.610326 0.147443 0.978173 0.091202
H74   H     H_    0.617296 0.162449 0.938080 0.138140
H75   H     H_    0.559536 0.142800 0.936825 0.118419
C191  C     C_3   0.640847 0.102652 0.010154 -0.320135
H76   H     H_    0.691380 0.106599 0.050372 0.236162
H77   H     H_    0.635055 0.087899 0.051858 0.214939
C192  C     C_3   0.612257 0.071803 0.934129 -0.940067
H78   H     H_    0.561419 0.068085 0.891709 0.263544
H79   H     H_    0.633751 0.039153 0.960028 0.269866
H80   H     H_    0.620922 0.084468 0.894646 0.282026
O57   O     O_3   0.953415 0.711042 0.144883 -0.641083
C193  C     C_3   0.983661 0.739247 0.217130 0.068709
H81   H     H_    0.948869 0.761100 0.203833 0.182399
H82   H     H_    0.020915 0.759851 0.231493 0.122078
C194  C     C_3   0.013594 0.711666 0.298235 -0.307322
H83   H     H_    0.979999 0.686339 0.281889 0.254796
H84   H     H_    0.054522 0.694678 0.319408 0.204321
C195  C     C_3   0.034147 0.739625 0.373445 -0.968546
H85   H     H_    0.069668 0.764174 0.393118 0.258788
H86   H     H_    0.054472 0.718449 0.430421 0.281715
H87   H     H_    0.993775 0.756672 0.353793 0.257887
O58   O     O_3   0.069695 0.816559 0.910856 -0.626368
C196  C     C_3   0.111111 0.851601 0.965658 0.151057
H88   H     H_    0.125094 0.867334 0.934439 0.170091
H89   H     H_    0.154886 0.840660 0.031625 0.112032
C197  C     C_3   0.079688 0.885864 0.974963 -0.396471
H90   H     H_    0.036548 0.897059 0.909015 0.229459
H91   H     H_    0.067154 0.871243 0.008740 0.224993
C198  C     C_3   0.122804 0.925136 0.028001 -0.963345
H92   H     H_    0.165959 0.914680 0.094644 0.270255
H93   H     H_    0.099074 0.949287 0.034166 0.268018
H94   H     H_    0.135172 0.941136 0.994916 0.261358
O59   O     O_3   0.408677 0.176266 0.055404 -0.624596
C199  C     C_3   0.454061 0.174725 0.147925 0.062114
H95   H     H_    0.439922 0.196151 0.172837 0.139248
H96   H     H_    0.501024 0.185845 0.177868 0.138552
C200  C     C_3   0.458922 0.127643 0.177045 -0.330087
H97   H     H_    0.417435 0.119235 0.164938 0.232452
H98   H     H_    0.459905 0.104835 0.138100 0.226669
C201  C     C_3   0.517796 0.121290 0.273730 -0.912148
H99   H     H_    0.559226 0.122470 0.283678 0.248446
H100  H     H_    0.515801 0.089000 0.296065 0.281128
H101  H     H_    0.522739 0.147386 0.313746 0.293508
O60   O     O_3   0.600796 0.327581 0.969177 -0.620602
C202  C     C_3   0.649010 0.348272 0.050753 0.099853
H102  H     H_    0.694143 0.333628 0.082868 0.137212
H103  H     H_    0.642050 0.345229 0.095494 0.125272
C203  C     C_3   0.651250 0.396857 0.035760 -0.325420
H104  H     H_    0.659939 0.400977 0.993407 0.234238
H105  H     H_    0.605702 0.411545 0.001904 0.213379
C204  C     C_3   0.702220 0.420813 0.122129 -0.953850
H106  H     H_    0.696733 0.414993 0.167745 0.268259
H107  H     H_    0.699038 0.456460 0.109672 0.261374
H108  H     H_    0.748692 0.409616 0.153113 0.273833
H109  H     H_    0.133473 0.688386 0.191538 0.182893
H110  H     H_    0.876386 0.816706 0.832078 0.184799
H111  H     H_    0.570297 0.143873 0.067491 0.177160
H112  H     H_    0.426944 0.354860 0.929948 0.179171
H113  H     H_    0.139551 0.619199 0.875151 0.157346
H114  H     H_    0.901937 0.701273 0.290474 0.188878
H115  H     H_    0.584803 0.156410 0.806121 0.128861
H116  H     H_    0.422682 0.194791 0.274581 0.173908
H117  H     H_    0.222641 0.716395 0.797756 0.144691
H118  H     H_    0.718679 0.620887 0.035840 0.153380
H119  H     H_    0.773596 0.176123 0.878881 0.120141
H120  H     H_    0.211936 0.136058 0.056139 0.144149
H121  H     H_    0.142276 0.671986 0.548984 0.143425
H122  H     H_    0.770020 0.487709 0.103784 0.150305
H123  H     H_    0.736235 0.123562 0.662812 0.139200
H124  H     H_    0.229319 0.002845 0.129663 0.142837
H125  H     H_    0.568058 0.692657 0.919723 0.177655
H126  H     H_    0.360173 0.686733 0.944645 0.157884
H127  H     H_    0.139614 0.187559 0.059908 0.144657
H128  H     H_    0.924349 0.190444 0.068663 0.186046
O61   O     O_3   0.077077 0.554177 0.763063 -0.609277
C205  C     C_3   0.029940 0.565502 0.759075 0.134652
H129  H     H_    0.050284 0.581655 0.820736 0.112557
H130  H     H_    0.995695 0.587931 0.703113 0.089446
C206  C     C_3   0.994504 0.524228 0.745460 -0.332039
H131  H     H_    0.956129 0.533634 0.739187 0.157953
H132  H     H_    0.973699 0.507899 0.683696 0.231282
C207  C     C_3   0.036368 0.492096 0.821342 -0.796841
H133  H     H_    0.073078 0.480082 0.825926 0.286495
H134  H     H_    0.008103 0.463670 0.810311 0.225228
H135  H     H_    0.058438 0.507919 0.884033 0.251518
O62   O     O_3   0.973987 0.648280 0.421244 -0.671466
C208  C     C_3   0.956144 0.661999 0.463877 0.067784
H136  H     H_    0.904822 0.662600 0.421390 0.126989
H137  H     H_    0.975673 0.638674 0.517883 0.156221
C209  C     C_3   0.983180 0.707642 0.502218 -0.335502
H138  H     H_    0.033786 0.708172 0.542134 0.249828
H139  H     H_    0.960603 0.731569 0.448048 0.210092
C210  C     C_3   0.973147 0.721276 0.559776 -0.947056
H140  H     H_    0.922741 0.721556 0.521135 0.261883
H141  H     H_    0.992768 0.754632 0.585900 0.270058
H142  H     H_    0.996946 0.698364 0.615756 0.266122
O63   O     O_3   0.506972 0.101130 0.673152 -0.600393
C211  C     C_3   0.466306 0.134362 0.652921 0.135654
H143  H     H_    0.426296 0.118008 0.637328 0.155826
H144  H     H_    0.486854 0.155710 0.709283 0.074779
C212  C     C_3   0.440963 0.162184 0.573602 -0.437193
H145  H     H_    0.412910 0.188958 0.565448 0.190172
H146  H     H_    0.479754 0.177541 0.584984 0.210448
C213  C     C_3   0.399687 0.135382 0.489470 -0.797970
H147  H     H_    0.427067 0.109443 0.494507 0.291705
H148  H     H_    0.380677 0.156874 0.433385 0.223805
H149  H     H_    0.360271 0.120222 0.476879 0.247630
O64   O     O_3   0.494915 0.139746 0.402775 -0.652352
C214  C     C_3   0.499313 0.166738 0.460099 0.052200
H150  H     H_    0.456272 0.185314 0.427873 0.135035
H151  H     H_    0.509457 0.145642 0.511246 0.153336
C215  C     C_3   0.552587 0.199738 0.503388 -0.327616
H152  H     H_    0.595751 0.182383 0.533765 0.234064
H153  H     H_    0.541078 0.222296 0.452718 0.215380
C216  C     C_3   0.563854 0.226282 0.573388 -0.968362
H154  H     H_    0.520948 0.243525 0.544553 0.261356
H155  H     H_    0.601164 0.251012 0.601522 0.266305
H156  H     H_    0.578457 0.204582 0.626915 0.271838
O65   O     O_3   0.522612 0.846924 0.137609 -0.607696
C217  C     C_3   0.510308 0.891582 0.113867 0.198396
H157  H     H_    0.468698 0.900252 0.100354 0.188293
H158  H     H_    0.500026 0.899655 0.054135 0.084105
C218  C     C_3   0.564479 0.919926 0.190615 -0.343268
H159  H     H_    0.567503 0.917266 0.245247 0.206352
H160  H     H_    0.608941 0.908358 0.215078 0.259250
C219  C     C_3   0.556109 0.967851 0.163991 -1.001643
H161  H     H_    0.554619 0.971679 0.110882 0.267367
H162  H     H_    0.595747 0.987578 0.221112 0.271075
H163  H     H_    0.512401 0.980341 0.141087 0.269154
O66   O     O_3   0.609848 0.853198 0.128117 -0.614109
C220  C     C_3   0.602523 0.882153 0.069269 0.129104
H164  H     H_    0.557721 0.899511 0.027481 0.099890
H165  H     H_    0.603611 0.864631 0.025486 0.166395
C221  C     C_3   0.655717 0.915789 0.121342 -0.309772
H166  H     H_    0.654873 0.934749 0.164299 0.215905
H167  H     H_    0.700771 0.898597 0.163366 0.245932
C222  C     C_3   0.650860 0.947369 0.061008 -0.971554
H168  H     H_    0.654573 0.929390 0.020178 0.299615
H169  H     H_    0.689255 0.971939 0.100837 0.267513
H170  H     H_    0.605939 0.964757 0.017852 0.257945
O67   O     O_3   0.902277 0.355208 0.889475 -0.608645
C223  C     C_3   0.859666 0.371597 0.802996 0.193417
H171  H     H_    0.812589 0.370197 0.777798 0.165333
H172  H     H_    0.856925 0.352928 0.756517 0.098092
C224  C     C_3   0.876007 0.419403 0.804033 -0.322835
H173  H     H_    0.876056 0.438465 0.847883 0.224919
H174  H     H_    0.923266 0.421775 0.829968 0.250335
C225  C     C_3   0.829527 0.439346 0.712563 -1.008476
H175  H     H_    0.828395 0.420768 0.667280 0.265414
H176  H     H_    0.843395 0.473712 0.715374 0.270182
H177  H     H_    0.782298 0.439023 0.686871 0.269385
O68   O     O_3   0.974986 0.347900 0.851922 -0.629075
C226  C     C_3   0.952556 0.330963 0.772597 0.129313
H178  H     H_    0.904563 0.317422 0.730393 0.086950
H179  H     H_    0.982133 0.304176 0.784566 0.185184
C227  C     C_3   0.952698 0.367610 0.723470 -0.287536
H180  H     H_    0.926504 0.395890 0.715257 0.214290
H181  H     H_    0.001281 0.378496 0.762000 0.236157
C228  C     C_3   0.923385 0.352484 0.633616 -0.997803
H182  H     H_    0.948525 0.323903 0.640399 0.286396
H183  H     H_    0.926045 0.379354 0.600895 0.268210
H184  H     H_    0.873807 0.343310 0.592204 0.255389
O69   O     O_3   0.415445 0.851256 0.174630 -0.622403
C229  C     C_3   0.456850 0.815765 0.221845 0.159559
H185  H     H_    0.455877 0.797518 0.176627 0.199576
H186  H     H_    0.442717 0.791664 0.245029 0.109100
C230  C     C_3   0.523561 0.831912 0.299342 -0.371524
H187  H     H_    0.535336 0.858698 0.277487 0.257045
H188  H     H_    0.527617 0.844753 0.351423 0.195892
C231  C     C_3   0.570064 0.795196 0.337767 -0.931348
H189  H     H_    0.559288 0.768006 0.360496 0.253753
H190  H     H_    0.617673 0.807801 0.394441 0.261214
H191  H     H_    0.568728 0.782697 0.287999 0.284696
O70   O     O_3   0.635023 0.879348 0.885913 -0.636249
C232  C     C_3   0.590365 0.851184 0.870777 0.099185
H192  H     H_    0.612006 0.837210 0.934710 0.173061
H193  H     H_    0.576111 0.822639 0.827767 0.116147
C233  C     C_3   0.532908 0.876836 0.832894 -0.389116
H194  H     H_    0.547030 0.904432 0.877101 0.228352
H195  H     H_    0.510290 0.890486 0.768117 0.227408
C234  C     C_3   0.485964 0.847718 0.821587 -0.968454
H196  H     H_    0.469931 0.820537 0.775651 0.274408
H197  H     H_    0.445149 0.867299 0.794650 0.267507
H198  H     H_    0.506955 0.833875 0.885408 0.251935
O71   O     O_3   0.873099 0.377650 0.122391 -0.622675
C235  C     C_3   0.927328 0.357603 0.153528 0.045810
H199  H     H_    0.924501 0.321651 0.159567 0.140193
H200  H     H_    0.969953 0.371100 0.218390 0.138335
C236  C     C_3   0.932963 0.366105 0.088867 -0.265769
H201  H     H_    0.891254 0.352662 0.023806 0.270080
H202  H     H_    0.935308 0.401927 0.081934 0.225746
C237  C     C_3   0.991134 0.345179 0.119865 -0.949471
H203  H     H_    0.033343 0.358298 0.184940 0.254496
H204  H     H_    0.994853 0.352702 0.072831 0.288804
H205  H     H_    0.988872 0.309139 0.124429 0.266492
O72   O     O_3   0.068832 0.297025 0.717900 -0.623275
C238  C     C_3   0.057656 0.273976 0.650847 0.100294
H206  H     H_    0.081425 0.242061 0.678089 0.166512
H207  H     H_    0.076079 0.290608 0.625858 0.112896
C239  C     C_3   0.987906 0.265412 0.574660 -0.372155
H208  H     H_    0.970377 0.246027 0.598138 0.227679
H209  H     H_    0.963400 0.296991 0.549042 0.219620
C240  C     C_3   0.973330 0.240843 0.500421 -0.931443
H210  H     H_    0.988648 0.260443 0.474119 0.267017
H211  H     H_    0.922432 0.234943 0.446737 0.273253
H212  H     H_    0.997042 0.208847 0.524014 0.256760
H213  H     H_    0.246845 0.802299 0.159023 0.123794
H214  H     H_    0.704782 0.780798 0.778180 0.184704
H215  H     H_    0.775422 0.284553 0.199616 0.141013
H216  H     H_    0.286031 0.368248 0.952156 0.197718
H217  H     H_    0.229089 0.807313 0.253373 0.141485
H218  H     H_    0.674958 0.769819 0.640325 0.139334
H219  H     H_    0.784035 0.278848 0.320910 0.136074
H220  H     H_    0.329941 0.440581 0.981126 0.145455
H221  H     H_    0.386851 0.890996 0.428422 0.160441
H222  H     H_    0.559370 0.881014 0.530300 0.140512
H223  H     H_    0.915884 0.383646 0.453710 0.144528
H224  H     H_    0.156994 0.488536 0.744552 0.152895

loop_
_geom_bond_atom_site_label_1
_geom_bond_atom_site_label_2
_ccdc_geom_bond_type
C236  C237  S    
C99   C103  A    
O63   C211  S    
C129  O61   S    
C55   C59   A    
O37   Zn1   S    
O1    Zn1   S    
O12   Zn12  S    
C6    C166  A    
C192  H78   S    
O34   Zn6   S    
C182  H55   S    
O52   C178  S    
C32   H224  S    
C92   O36   A    
C209  H138  S    
C133  O37   A    
C158  H126  S    
C57   C145  S    
C20   C40   A    
C110  H10   S    
C169  H22   S    
O51   C175  S    
C171  H27   S    
C29   C33   A    
C100  C104  A    
C5    C149  A    
C239  H208  S    
O31   Zn3   S    
C46   C153  S    
C149  C153  A    
C64   C84   A    
C8    C168  A    
O38   Zn2   S    
C183  H59   S    
O15   Zn12  S    
C152  C156  A    
O35   Zn7   S    
C221  H166  S    
C70   C74   A    
C45   O25   A    
C189  H71   S    
C151  C155  A    
C19   H215  S    
C169  C170  S    
C202  H103  S    
C136  O40   A    
C10   C162  A    
C111  H11   S    
C41   C49   A    
C196  H89   S    
C4    O20   A    
C210  H142  S    
C23   C27   A    
C25   C29   A    
O56   C190  S    
C30   H222  S    
C27   C31   A    
C188  H69   S    
C187  C188  S    
O48   Zn10  S    
C28   C32   A    
C62   C66   A    
C193  H81   S    
C148  O12   A    
C46   O22   A    
C138  C141  S    
C197  C198  S    
C17   C21   A    
C218  C219  S    
C19   C23   A    
C71   O59   S    
C224  H174  S    
C78   C82   A    
C49   O69   S    
C68   C72   A    
C87   H3    S    
O58   C196  S    
C189  H73   S    
C142  O6    A    
C27   H19   S    
C194  C195  S    
C25   H17   S    
C1    C41   S    
C222  H169  S    
C48   C155  S    
C115  C139  A    
C240  H211  S    
C204  H106  S    
C10   H14   S    
O23   Zn3   S    
C205  H130  S    
C181  H53   S    
O30   Zn2   S    
C130  C138  A    
O22   Zn2   S    
C210  H140  S    
C192  H80   S    
O70   C232  S    
C172  H29   S    
C182  C183  S    
C53   H49   S    
O14   Zn9   S    
C100  H120  S    
C179  C180  S    
C209  C210  S    
C2    O2    A    
C235  H199  S    
C193  C194  S    
C202  H102  S    
C154  C158  A    
C119  C123  A    
O26   Zn6   S    
C3    O19   A    
O62   C208  S    
C147  O15   A    
C67   C136  S    
C18   C38   A    
C13   O65   S    
O61   C205  S    
C179  H45   S    
C145  O13   A    
C191  C192  S    
C66   C70   A    
C221  C222  S    
C49   C53   A    
O9    Zn9   S    
C195  H85   S    
C28   H20   S    
C200  C201  S    
C51   C55   A    
C97   C117  A    
C227  H180  S    
C127  C131  A    
C99   C119  A    
C231  H190  S    
C61   C65   A    
C226  C227  S    
C129  C137  A    
C141  O45   A    
C198  H92   S    
C34   C58   A    
C109  H9    S    
C73   C77   A    
O32   Zn4   S    
C103  C107  A    
C45   C154  S    
C60   C148  S    
C188  H70   S    
C203  H104  S    
C75   C79   A    
C161  C165  A    
C59   C147  S    
C238  C239  S    
C217  H158  S    
C137  C142  S    
C47   O23   A    
C101  H5    S    
O25   Zn5   S    
C18   H214  S    
C140  C143  S    
C201  H99   S    
C212  H146  S    
O33   Zn5   S    
C220  H164  S    
O49   C169  S    
C135  O39   A    
O42   Zn6   S    
C64   C68   A    
C207  H133  S    
C8    C152  A    
O21   Zn1   S    
O40   Zn4   S    
O19   Zn7   S    
C214  H151  S    
C89   O33   A    
C170  H23   S    
C174  H34   S    
O4    Zn4   S    
C217  C218  S    
C29   H221  S    
C199  H95   S    
C227  C228  S    
C118  C122  A    
C7    C167  A    
C125  H113  S    
O60   C202  S    
C51   O71   S    
C85   C93   A    
C212  H145  S    
C185  H63   S    
C219  H161  S    
C87   C95   A    
C204  H108  S    
C151  O51   S    
C2    O18   A    
C9    C10   A    
C110  C114  A    
C55   H51   S    
C112  H12   S    
C56   H52   S    
C183  H58   S    
C234  H198  S    
C91   C123  S    
C13   C14   A    
C178  C179  S    
C157  H125  S    
C216  H154  S    
C235  C236  S    
O17   Zn5   S    
C197  H91   S    
C208  H137  S    
C152  O52   S    
C98   C118  A    
C184  H61   S    
C229  H186  S    
C232  H193  S    
C101  C105  A    
C61   O53   S    
C30   C34   A    
C155  C159  A    
C48   O24   A    
C156  C160  A    
C176  C177  S    
C223  H171  S    
C64   O56   S    
C191  H76   S    
O45   Zn11  S    
C20   H216  S    
C195  H87   S    
C45   O21   A    
C116  C120  A    
C230  H188  S    
C84   C95   A    
C187  H68   S    
C146  O10   A    
C216  H156  S    
C24   H220  S    
C121  C125  A    
C160  H128  S    
C125  C129  A    
C123  C127  A    
C226  H178  S    
C73   C85   A    
C11   C163  A    
C180  H46   S    
C141  O5    A    
C206  C207  S    
C9    C161  A    
C228  H183  S    
C131  O63   S    
C19   C39   A    
C54   H50   S    
C113  C117  A    
C75   C87   A    
C42   C50   A    
C26   C30   A    
C115  C119  A    
C105  H121  S    
O71   C235  S    
O29   Zn1   S    
C112  C116  A    
C211  H143  S    
C148  O16   A    
C220  C221  S    
C236  H202  S    
C105  C109  A    
C186  H66   S    
C86   H2    S    
C107  C111  A    
C207  H135  S    
C52   O72   S    
C76   C80   A    
O50   C172  S    
C170  C171  S    
C174  H32   S    
C144  O8    A    
C70   O58   S    
C185  C186  S    
C96   H112  S    
C17   H213  S    
C209  H139  S    
C206  H131  S    
C146  O14   A    
C61   C81   A    
C81   C94   A    
C26   H18   S    
C2    C42   S    
C219  H163  S    
C50   O70   S    
C83   C96   A    
O5    Zn12  S    
C198  H94   S    
C159  C163  A    
C134  O42   A    
C37   C41   A    
C225  H175  S    
C190  C191  S    
C90   O30   A    
O16   Zn11  S    
C9    H13   S    
C237  H203  S    
C40   C44   A    
C221  H167  S    
O65   C217  S    
C178  H42   S    
C177  H39   S    
C189  H72   S    
C215  H152  S    
O69   C229  S    
C234  H196  S    
C233  H194  S    
C1    O1    A    
O28   Zn8   S    
C88   C96   A    
O8    Zn9   S    
C239  C240  S    
C4    O4    A    
C147  O11   A    
C176  H37   S    
O2    Zn2   S    
C223  C224  S    
C80   C84   A    
C234  H197  S    
C213  H147  S    
C210  H141  S    
C196  H88   S    
C77   C78   A    
C50   C54   A    
C63   O55   S    
C160  C164  A    
C233  H195  S    
C114  C118  A    
C92   C124  S    
C54   C58   A    
C193  H82   S    
C202  C203  S    
C47   C156  S    
C126  C130  A    
C180  H48   S    
C35   C59   A    
C218  H160  S    
C175  C176  S    
O64   C214  S    
C21   C25   A    
O46   Zn12  S    
C162  C166  A    
C177  H41   S    
C47   O27   A    
O59   C199  S    
C69   C73   A    
C194  H84   S    
C65   C134  S    
C211  C212  S    
C72   C76   A    
C124  C128  A    
C182  H56   S    
C62   C82   A    
C159  H127  S    
C186  H64   S    
C82   C93   A    
C18   C22   A    
C240  H210  S    
C62   O54   S    
C181  H54   S    
C192  H79   S    
C68   C135  S    
C149  O49   S    
C144  O48   A    
C24   C28   A    
C126  H114  S    
C104  H8    S    
C167  C168  A    
C131  C139  A    
C53   C57   A    
C4    C44   S    
C169  H21   S    
C184  H60   S    
C33   C37   A    
C108  C112  A    
C63   C83   A    
C181  C182  S    
C35   C39   A    
C214  H150  S    
C172  C173  S    
O41   Zn5   S    
C173  H31   S    
C164  C168  A    
C143  O7    A    
C195  H86   S    
C185  H62   S    
C200  H98   S    
C227  H181  S    
C5    C14   A    
C94   H110  S    
C98   H118  S    
C233  C234  S    
C7    C151  A    
C235  H200  S    
C7    C16   A    
C226  H179  S    
C8    C15   A    
O6    Zn11  S    
C31   C35   A    
C203  H105  S    
C32   C36   A    
C104  C108  A    
C196  C197  S    
C238  H207  S    
O13   Zn10  S    
C22   H218  S    
O44   Zn8   S    
O20   Zn8   S    
C201  H100  S    
C231  H191  S    
C38   C42   A    
C132  C140  A    
O27   Zn7   S    
C230  C231  S    
C203  C204  S    
C207  H134  S    
C190  H74   S    
C98   C102  A    
C224  C225  S    
C79   C83   A    
C174  H33   S    
C43   C51   A    
C172  H28   S    
C89   C121  S    
O10   Zn10  S    
C65   C69   A    
C199  H96   S    
C106  H122  S    
C67   C71   A    
C153  C157  A    
C133  O41   A    
C201  H101  S    
O55   C187  S    
C6    C150  A    
C56   C60   A    
C222  H170  S    
O66   C220  S    
C15   O67   S    
O68   C226  S    
C22   C26   A    
C240  H212  S    
C204  H107  S    
C205  H129  S    
C15   C16   A    
C95   H111  S    
C48   O28   A    
C165  C166  A    
C88   H4    S    
C177  H40   S    
C178  H43   S    
O53   C181  S    
C200  H97   S    
O67   C223  S    
C99   H119  S    
C208  H136  S    
C236  H201  S    
O57   C193  S    
C231  H189  S    
C85   H1    S    
C136  O44   A    
C229  C230  S    
C3    C43   S    
C232  H192  S    
C134  O38   A    
C176  H38   S    
C223  H172  S    
C90   O34   A    
C173  C174  S    
C179  H44   S    
C191  H77   S    
C12   C164  A    
C107  H123  S    
C238  H206  S    
C108  H124  S    
C69   O57   S    
C92   O32   A    
C230  H187  S    
C16   O68   S    
C143  O47   A    
C216  H155  S    
C117  C121  A    
C86   C94   A    
C150  O50   S    
C20   C24   A    
C46   O26   A    
C205  C206  S    
C100  C120  A    
C77   C81   A    
C206  H132  S    
C1    O17   A    
C228  H182  S    
C76   C88   A    
C74   C78   A    
C109  C113  A    
C114  C138  A    
C217  H157  S    
O39   Zn3   S    
C90   C122  S    
O18   Zn6   S    
C128  C132  A    
C103  H7    S    
C239  H209  S    
C211  H144  S    
C212  C213  S    
C220  H165  S    
O3    Zn3   S    
O7    Zn10  S    
C63   C67   A    
C186  H65   S    
C36   C40   A    
C11   H15   S    
C214  C215  S    
C72   O60   S    
C224  H173  S    
C170  H24   S    
O36   Zn8   S    
C39   C43   A    
C225  H177  S    
C21   H217  S    
C199  C200  S    
C171  H26   S    
C23   H219  S    
C122  C126  A    
C163  C167  A    
C145  O9    A    
C3    O3    A    
C66   C133  S    
C139  C144  S    
C222  H168  S    
C171  H25   S    
C198  H93   S    
C17   C37   A    
C74   C86   A    
C225  H176  S    
C190  H75   S    
C12   H16   S    
C237  H204  S    
C175  H36   S    
C183  H57   S    
C173  H30   S    
C127  H115  S    
C5    C165  A    
C128  H116  S    
C31   H223  S    
C175  H35   S    
C215  H153  S    
C208  C209  S    
O54   C184  S    
C130  O62   S    
C106  C110  A    
C184  C185  S    
C229  H185  S    
C232  C233  S    
C33   C57   A    
C132  O64   S    
C34   C38   A    
C157  C161  A    
C36   C60   A    
C237  H205  S    
C14   O66   S    
C213  H148  S    
C11   C12   A    
C58   C146  S    
O11   Zn11  S    
C102  H6    S    
C219  H162  S    
C188  C189  S    
C187  H67   S    
C215  C216  S    
C6    C13   A    
C71   C75   A    
C44   C52   A    
C93   H109  S    
C97   H117  S    
C197  H90   S    
C180  H47   S    
C102  C106  A    
C113  C137  A    
C91   O31   A    
C218  H159  S    
C228  H184  S    
C213  H149  S    
C158  C162  A    
C89   O29   A    
C79   C80   A    
C120  C124  A    
O43   Zn7   S    
C142  O46   A    
C150  C154  A    
O72   C238  S    
C111  C115  A    
O24   Zn4   S    
C116  C140  A    
C194  H83   S    
C91   O35   A    
O47   Zn9   S    
C97   C101  A    
C52   C56   A    
C135  O43   A    
