data_mof_unit_32846.cif
_audit_creation_date              2012-12-11T14:28:30-0500
_audit_creation_method            fapswitch 2.2
_symmetry_space_group_name_H-M    P1
_symmetry_Int_Tables_number       1
_space_group_crystal_system       triclinic
_cell_length_a                    10.945367
_cell_length_b                    19.153725
_cell_length_c                    18.472591
_cell_angle_alpha                 89.880665
_cell_angle_beta                  90.815045
_cell_angle_gamma                 89.862841
_cell_volume                      3872.26642121

loop_
_atom_site_label
_atom_site_type_symbol
_atom_type_description
_atom_site_fract_x
_atom_site_fract_y
_atom_site_fract_z
_atom_type_partial_charge
C1    C     C_R   0.319176 0.969044 0.645590 0.563754
C2    C     C_R   0.321944 0.970667 0.852704 0.561541
C3    C     C_R   0.321850 0.029046 0.352739 0.564156
C4    C     C_R   0.319584 0.031286 0.145304 0.567481
C5    C     C_R   0.819176 0.469045 0.645590 0.563735
C6    C     C_R   0.821943 0.470667 0.852704 0.561525
C7    C     C_R   0.821852 0.529046 0.352738 0.564055
C8    C     C_R   0.819585 0.531286 0.145305 0.567471
C9    C     C_3   0.026619 0.671798 0.493304 -0.129614
C10   C     C_3   0.183664 0.734276 0.035065 -0.127232
C11   C     C_3   0.970109 0.313567 0.496532 -0.133101
C12   C     C_3   0.067464 0.319985 0.981813 -0.118313
C13   C     C_3   0.526500 0.171807 0.493322 -0.129535
C14   C     C_3   0.683664 0.234278 0.035065 -0.127240
C15   C     C_3   0.470291 0.813651 0.496553 -0.133050
C16   C     C_3   0.567458 0.819985 0.981814 -0.118312
C17   C     C_3   0.022238 0.729850 0.437390 0.055909
C18   C     C_3   0.057338 0.741173 0.067192 0.072966
C19   C     C_3   0.021792 0.272388 0.561353 0.057530
C20   C     C_3   0.062984 0.256518 0.931636 0.058475
C21   C     C_3   0.522228 0.229842 0.437391 0.055881
C22   C     C_3   0.557339 0.241174 0.067193 0.072971
C23   C     C_3   0.521796 0.772377 0.561358 0.057550
C24   C     C_3   0.562983 0.756518 0.931636 0.058481
C25   C     C_R   0.334259 0.988756 0.421113 0.000260
C26   C     C_R   0.325451 0.000088 0.071905 0.007994
C27   C     C_R   0.324225 0.000501 0.572408 -0.009177
C28   C     C_R   0.335360 0.010551 0.920783 -0.059707
C29   C     C_R   0.834272 0.488761 0.421115 0.000269
C30   C     C_R   0.825454 0.500084 0.071909 0.008000
C31   C     C_R   0.824228 0.500505 0.572410 -0.009174
C32   C     C_R   0.835354 0.510548 0.920786 -0.059713
C33   C     C_R   0.559846 0.993697 0.429181 -0.094158
C34   C     C_R   0.545914 0.977848 0.076919 -0.073058
C35   C     C_R   0.545187 0.020182 0.577206 -0.072087
C36   C     C_R   0.561010 0.007472 0.929315 -0.099051
C37   C     C_R   0.059856 0.493729 0.429185 -0.094277
C38   C     C_R   0.045913 0.477847 0.076921 -0.073055
C39   C     C_R   0.045191 0.520189 0.577215 -0.072114
C40   C     C_R   0.061008 0.507472 0.929317 -0.099053
C41   C     C_R   0.664865 0.009914 0.469324 -0.148425
C42   C     C_R   0.658129 0.975762 0.043108 -0.133896
C43   C     C_R   0.656790 0.024135 0.543025 -0.135177
C44   C     C_R   0.666530 0.992498 0.969816 -0.155390
C45   C     C_R   0.164875 0.509926 0.469337 -0.148496
C46   C     C_R   0.158127 0.475760 0.043109 -0.133896
C47   C     C_R   0.156798 0.524139 0.543039 -0.135226
C48   C     C_R   0.166527 0.492497 0.969817 -0.155390
C49   C     C_R   0.438052 0.003050 0.537961 -0.017226
C50   C     C_R   0.445221 0.004845 0.961807 -0.013961
C51   C     C_R   0.444149 0.993603 0.462089 -0.024995
C52   C     C_R   0.439057 0.995268 0.037585 -0.005588
C53   C     C_R   0.938059 0.503059 0.537965 -0.017151
C54   C     C_R   0.945218 0.504844 0.961809 -0.013960
C55   C     C_R   0.944161 0.493619 0.462093 -0.024933
C56   C     C_R   0.939057 0.495267 0.037587 -0.005582
C57   C     C_R   0.215646 0.999417 0.529310 -0.048050
C58   C     C_R   0.225904 0.025405 0.956429 -0.068309
C59   C     C_R   0.224118 0.976009 0.457315 -0.045124
C60   C     C_R   0.217498 0.002358 0.028549 -0.023726
C61   C     C_R   0.715652 0.499420 0.529308 -0.048107
C62   C     C_R   0.725896 0.525395 0.956435 -0.068301
C63   C     C_R   0.724134 0.476009 0.457316 -0.045138
C64   C     C_R   0.717499 0.502347 0.028556 -0.023726
C65   C     C_R   0.097887 0.016306 0.556173 0.068074
C66   C     C_R   0.119485 0.051174 0.919540 0.025918
C67   C     C_R   0.117721 0.950361 0.420905 0.079971
C68   C     C_R   0.101030 0.984576 0.055335 0.079233
C69   C     C_R   0.597888 0.516315 0.556161 0.068084
C70   C     C_R   0.619469 0.551160 0.919551 0.025918
C71   C     C_R   0.617745 0.450364 0.420899 0.079985
C72   C     C_R   0.601037 0.484560 0.055349 0.079187
C73   C     C_R   0.994449 0.993555 0.518055 -0.177900
C74   C     C_R   0.005660 0.041131 0.951550 -0.156324
C75   C     C_R   0.003916 0.959626 0.452434 -0.163650
C76   C     C_R   0.996760 0.006450 0.017234 -0.176978
C77   C     C_R   0.494453 0.493573 0.518031 -0.177810
C78   C     C_R   0.505649 0.541117 0.951569 -0.156323
C79   C     C_R   0.503933 0.459638 0.452412 -0.163619
C80   C     C_R   0.496760 0.506433 0.017253 -0.176977
C81   C     C_R   0.130060 0.756982 0.644915 0.538704
C82   C     C_R   0.135255 0.757970 0.856342 0.545618
C83   C     C_R   0.134012 0.242141 0.356261 0.540057
C84   C     C_R   0.129999 0.243294 0.145259 0.544064
C85   C     C_R   0.630072 0.256986 0.644910 0.538708
C86   C     C_R   0.635255 0.257970 0.856342 0.545625
C87   C     C_R   0.634029 0.742139 0.356269 0.540029
C88   C     C_R   0.629999 0.743294 0.145259 0.544060
C89   C     C_R   0.495913 0.787445 0.637013 0.569905
C90   C     C_R   0.541791 0.769571 0.855638 0.596186
C91   C     C_R   0.496315 0.212714 0.362417 0.559503
C92   C     C_R   0.536484 0.228597 0.142796 0.556293
C93   C     C_R   0.995911 0.287447 0.637012 0.569913
C94   C     C_R   0.041792 0.269571 0.855638 0.596190
C95   C     C_R   0.996319 0.712716 0.362418 0.559489
C96   C     C_R   0.036484 0.728596 0.142796 0.556312
C97   C     C_3   0.144436 0.759190 0.463231 -0.117536
C98   C     C_3   0.027188 0.805703 0.021162 -0.096407
C99   C     C_3   0.152427 0.279676 0.534088 -0.105892
C100  C     C_3   0.174114 0.223937 0.968378 -0.141079
C101  C     C_3   0.644478 0.259114 0.463222 -0.117614
C102  C     C_3   0.527186 0.305703 0.021162 -0.096419
C103  C     C_3   0.652479 0.779543 0.534135 -0.105887
C104  C     C_3   0.674116 0.723940 0.968378 -0.141077
C105  C     C_3   0.150793 0.700172 0.519463 -0.099432
C106  C     C_3   0.155317 0.799328 0.988118 -0.093666
C107  C     C_3   0.101875 0.321138 0.468924 -0.109614
C108  C     C_3   0.180358 0.287625 0.018735 -0.100943
C109  C     C_3   0.650732 0.200114 0.519475 -0.099485
C110  C     C_3   0.655316 0.299330 0.988118 -0.093684
C111  C     C_3   0.602108 0.821105 0.468987 -0.109612
C112  C     C_3   0.680355 0.787627 0.018735 -0.100943
C113  C     C_3   0.081232 0.747014 0.572409 0.058083
C114  C     C_3   0.100242 0.750820 0.930430 0.051240
C115  C     C_3   0.086211 0.252139 0.428234 0.050089
C116  C     C_3   0.093578 0.250409 0.070659 0.061791
C117  C     C_3   0.581260 0.247024 0.572400 0.058082
C118  C     C_3   0.600242 0.250821 0.930430 0.051243
C119  C     C_3   0.586239 0.752143 0.428245 0.050055
C120  C     C_3   0.593578 0.750408 0.070658 0.061791
C121  C     C_3   0.075822 0.806112 0.516674 -0.121121
C122  C     C_3   0.973669 0.757715 0.961805 -0.162469
C123  C     C_3   0.136951 0.210407 0.492800 -0.106185
C124  C     C_3   0.087732 0.186826 0.021048 -0.122662
C125  C     C_3   0.575966 0.306104 0.516646 -0.121082
C126  C     C_3   0.473668 0.257714 0.961805 -0.162461
C127  C     C_3   0.636801 0.710314 0.492797 -0.106167
C128  C     C_3   0.587737 0.686825 0.021047 -0.122665
C129  C     C_3   0.951698 0.777491 0.488956 -0.125847
C130  C     C_3   0.001400 0.692773 0.009358 -0.116575
C131  C     C_3   0.005492 0.202953 0.520797 -0.097489
C132  C     C_3   0.974885 0.219437 0.982942 -0.123392
C133  C     C_3   0.451785 0.277554 0.488938 -0.125820
C134  C     C_3   0.501403 0.192773 0.009359 -0.116570
C135  C     C_3   0.505293 0.702982 0.520755 -0.097563
C136  C     C_3   0.474888 0.719433 0.982942 -0.123392
C137  C     C_3   0.957561 0.718813 0.546755 -0.152836
C138  C     C_3   0.129105 0.686023 0.976445 -0.112285
C139  C     C_3   0.955709 0.243939 0.454429 -0.141523
C140  C     C_3   0.981402 0.283018 0.034527 -0.156224
C141  C     C_3   0.457531 0.218893 0.546756 -0.152814
C142  C     C_3   0.629107 0.186025 0.976446 -0.112285
C143  C     C_3   0.455688 0.744065 0.454401 -0.141512
C144  C     C_3   0.481400 0.783015 0.034527 -0.156224
Cr1   Cr    Cr6+3 0.488160 0.884660 0.750000 1.018553
Cr2   Cr    Cr6+3 0.488160 0.115340 0.250000 1.015578
Cr3   Cr    Cr6+3 0.988160 0.384660 0.750000 1.018549
Cr4   Cr    Cr6+3 0.988160 0.615340 0.250000 1.015570
Cr5   Cr    Cr6+3 0.173480 0.883120 0.750000 1.071903
Cr6   Cr    Cr6+3 0.173480 0.116880 0.250000 1.067058
Cr7   Cr    Cr6+3 0.673480 0.383120 0.750000 1.071915
Cr8   Cr    Cr6+3 0.673480 0.616880 0.250000 1.067110
Cr9   Cr    Cr6+3 0.333410 0.727260 0.750000 1.054687
Cr10  Cr    Cr6+3 0.333410 0.272740 0.250000 1.050551
Cr11  Cr    Cr6+3 0.833410 0.227260 0.750000 1.054686
Cr12  Cr    Cr6+3 0.833410 0.772740 0.250000 1.050616
H1    H     H_    0.232821 0.668140 0.532304 0.130318
H2    H     H_    0.218779 0.843183 0.977284 0.133567
H3    H     H_    0.146797 0.367519 0.445827 0.140259
H4    H     H_    0.262957 0.317754 0.034219 0.136276
H5    H     H_    0.732793 0.168155 0.532287 0.130359
H6    H     H_    0.718776 0.343186 0.977284 0.133564
H7    H     H_    0.647157 0.867487 0.445943 0.140202
H8    H     H_    0.762951 0.817758 0.034219 0.136275
H9    H     H_    0.905361 0.001043 0.539626 0.146527
H10   H     H_    0.922886 0.059999 0.925375 0.138932
H11   H     H_    0.921628 0.940040 0.426507 0.151887
H12   H     H_    0.908162 0.997379 0.038879 0.133603
H13   H     H_    0.405358 0.501080 0.539585 0.146493
H14   H     H_    0.422871 0.559986 0.925399 0.138916
H15   H     H_    0.421654 0.440062 0.426468 0.151814
H16   H     H_    0.408166 0.497359 0.038903 0.133592
H17   H     H_    0.212964 0.779626 0.425545 0.154414
H18   H     H_    0.975989 0.852417 0.037966 0.137851
H19   H     H_    0.231299 0.295314 0.568695 0.141580
H20   H     H_    0.248789 0.195995 0.941659 0.101941
H21   H     H_    0.713045 0.279475 0.425513 0.154549
H22   H     H_    0.475989 0.352419 0.037966 0.137833
H23   H     H_    0.731351 0.795056 0.568794 0.141630
H24   H     H_    0.748794 0.696000 0.941658 0.101946
H25   H     H_    0.100530 0.859711 0.532906 0.141045
H26   H     H_    0.895441 0.771568 0.925996 0.121039
H27   H     H_    0.205642 0.167794 0.489393 0.121198
H28   H     H_    0.098245 0.133669 0.043322 0.152181
H29   H     H_    0.600797 0.359698 0.532849 0.140970
H30   H     H_    0.395439 0.271565 0.925997 0.121041
H31   H     H_    0.705367 0.667634 0.489379 0.121266
H32   H     H_    0.598253 0.633667 0.043319 0.152177
H33   H     H_    0.873205 0.810449 0.471722 0.126675
H34   H     H_    0.936936 0.649576 0.020575 0.120517
H35   H     H_    0.959885 0.155805 0.541767 0.139641
H36   H     H_    0.893479 0.189673 0.964699 0.131615
H37   H     H_    0.373337 0.310535 0.471696 0.126679
H38   H     H_    0.436940 0.149576 0.020577 0.120519
H39   H     H_    0.459569 0.655860 0.541710 0.139574
H40   H     H_    0.393483 0.689668 0.964699 0.131614
H41   H     H_    0.883823 0.701167 0.583066 0.144354
H42   H     H_    0.172441 0.637706 0.956137 0.135659
H43   H     H_    0.883805 0.224675 0.416938 0.127649
H44   H     H_    0.907392 0.310067 0.063854 0.134555
H45   H     H_    0.383759 0.201325 0.583083 0.144362
H46   H     H_    0.672444 0.137708 0.956139 0.135657
H47   H     H_    0.383764 0.724911 0.416855 0.127698
H48   H     H_    0.407388 0.810062 0.063855 0.134551
H49   H     H_    0.998910 0.619950 0.476062 0.145253
H50   H     H_    0.264492 0.722297 0.069642 0.124863
H51   H     H_    0.898961 0.354595 0.500333 0.119447
H52   H     H_    0.053866 0.373266 0.961489 0.165520
H53   H     H_    0.498657 0.119965 0.476108 0.145150
H54   H     H_    0.764493 0.222301 0.069643 0.124863
H55   H     H_    0.399238 0.854731 0.500374 0.119464
H56   H     H_    0.553856 0.873265 0.961491 0.165518
H57   H     H_    0.751540 0.013691 0.442473 0.117689
H58   H     H_    0.736812 0.958754 0.074198 0.138569
H59   H     H_    0.734976 0.041477 0.574115 0.141949
H60   H     H_    0.753532 0.990456 0.943235 0.115849
H61   H     H_    0.251550 0.513697 0.442489 0.117709
H62   H     H_    0.236805 0.458750 0.074200 0.138550
H63   H     H_    0.234985 0.541468 0.574134 0.141984
H64   H     H_    0.253529 0.490454 0.943237 0.115856
H65   H     H_    0.569995 0.981251 0.372484 0.148034
H66   H     H_    0.542552 0.962351 0.133243 0.143654
H67   H     H_    0.542175 0.035693 0.633463 0.144617
H68   H     H_    0.570571 0.020581 0.872674 0.141719
H69   H     H_    0.070013 0.481291 0.372487 0.148036
H70   H     H_    0.042552 0.462349 0.133244 0.143651
H71   H     H_    0.042175 0.535694 0.633474 0.144609
H72   H     H_    0.070568 0.520581 0.872676 0.141719
O1    O     O_R   0.575450 0.828820 0.667950 -0.503989
O2    O     O_R   0.575450 0.828820 0.832050 -0.522325
O3    O     O_R   0.575450 0.171180 0.332050 -0.511098
O4    O     O_R   0.575450 0.171180 0.167950 -0.511561
O5    O     O_R   0.075450 0.328820 0.667950 -0.503986
O6    O     O_R   0.075450 0.328820 0.832050 -0.522324
O7    O     O_R   0.075450 0.671180 0.332050 -0.511118
O8    O     O_R   0.075450 0.671180 0.167950 -0.511561
O9    O     O_R   0.416860 0.942890 0.674680 -0.530927
O10   O     O_R   0.416860 0.942890 0.825320 -0.516740
O11   O     O_R   0.416860 0.057110 0.325320 -0.534286
O12   O     O_R   0.416860 0.057110 0.174680 -0.515446
O13   O     O_R   0.916860 0.442890 0.674680 -0.530927
O14   O     O_R   0.916860 0.442890 0.825320 -0.516741
O15   O     O_R   0.916860 0.557110 0.325320 -0.534304
O16   O     O_R   0.916860 0.557110 0.174680 -0.515454
O17   O     O_R   0.213790 0.953680 0.668330 -0.484493
O18   O     O_R   0.213790 0.953680 0.831670 -0.483554
O19   O     O_R   0.213790 0.046320 0.331670 -0.488933
O20   O     O_R   0.213790 0.046320 0.168330 -0.487687
O21   O     O_R   0.713790 0.453680 0.668330 -0.484489
O22   O     O_R   0.713790 0.453680 0.831670 -0.483549
O23   O     O_R   0.713790 0.546320 0.331670 -0.488913
O24   O     O_R   0.713790 0.546320 0.168330 -0.487675
O25   O     O_R   0.121360 0.817890 0.672660 -0.510246
O26   O     O_R   0.121360 0.817890 0.827340 -0.502372
O27   O     O_R   0.121360 0.182110 0.327340 -0.505893
O28   O     O_R   0.121360 0.182110 0.172660 -0.511181
O29   O     O_R   0.621360 0.317890 0.672660 -0.510232
O30   O     O_R   0.621360 0.317890 0.827340 -0.502367
O31   O     O_R   0.621360 0.682110 0.327340 -0.505887
O32   O     O_R   0.621360 0.682110 0.172660 -0.511178
O33   O     O_R   0.206850 0.711370 0.665820 -0.536955
O34   O     O_R   0.206850 0.711370 0.834180 -0.532929
O35   O     O_R   0.206850 0.288630 0.334180 -0.531079
O36   O     O_R   0.206850 0.288630 0.165820 -0.516661
O37   O     O_R   0.706850 0.211370 0.665820 -0.536949
O38   O     O_R   0.706850 0.211370 0.834180 -0.532928
O39   O     O_R   0.706850 0.788630 0.334180 -0.531036
O40   O     O_R   0.706850 0.788630 0.165820 -0.516666
O41   O     O_R   0.457710 0.733190 0.672630 -0.487676
O42   O     O_R   0.457710 0.733190 0.827370 -0.470239
O43   O     O_R   0.457710 0.266810 0.327370 -0.492189
O44   O     O_R   0.457710 0.266810 0.172630 -0.502545
O45   O     O_R   0.957710 0.233190 0.672630 -0.487672
O46   O     O_R   0.957710 0.233190 0.827370 -0.470221
O47   O     O_R   0.957710 0.766810 0.327370 -0.491927
O48   O     O_R   0.957710 0.766810 0.172630 -0.502525
O49   O     O_3   0.331690 0.831680 0.750000 -0.299531
O50   O     O_3   0.331690 0.168320 0.250000 -0.296092
O51   O     O_3   0.831690 0.331680 0.750000 -0.299538
O52   O     O_3   0.831690 0.668320 0.250000 -0.296108
C145  C     C_2   0.121501 0.911519 0.351582 0.593994
O53   O     O_2   0.215753 0.883522 0.331695 -0.550674
O54   O     O_R   0.015079 0.906488 0.309381 -0.664050
H73   H     H_    0.025151 0.874613 0.266536 0.374606
C146  C     C_2   0.087098 0.937731 0.118870 0.583777
O55   O     O_2   0.990677 0.936296 0.151428 -0.536141
O56   O     O_R   0.183282 0.893196 0.139271 -0.718771
H74   H     H_    0.162660 0.860719 0.180475 0.346158
C147  C     C_2   0.077794 0.062137 0.619849 0.605634
O57   O     O_2   0.159175 0.100231 0.642616 -0.478339
O58   O     O_R   0.962430 0.063943 0.651429 -0.719549
H75   H     H_    0.953770 0.102547 0.688118 0.388887
C148  C     C_2   0.121492 0.087634 0.847627 0.621137
O59   O     O_2   0.028164 0.089044 0.810885 -0.476138
O60   O     O_R   0.225221 0.120358 0.819917 -0.647949
H76   H     H_    0.297544 0.122709 0.854260 0.273617
C149  C     C_2   0.621553 0.411503 0.351589 0.593988
O61   O     O_2   0.715778 0.383409 0.331783 -0.550755
O62   O     O_R   0.515194 0.406564 0.309311 -0.663755
H77   H     H_    0.525221 0.374497 0.266571 0.374480
C150  C     C_2   0.587125 0.437714 0.118886 0.583846
O63   O     O_2   0.490705 0.436263 0.151447 -0.535922
O64   O     O_R   0.683329 0.393193 0.139286 -0.718794
H78   H     H_    0.662716 0.360706 0.180481 0.346150
C151  C     C_2   0.577788 0.562156 0.619827 0.605682
O65   O     O_2   0.659174 0.600246 0.642596 -0.478393
O66   O     O_R   0.462419 0.563968 0.651401 -0.719547
H79   H     H_    0.453767 0.602564 0.688100 0.388895
C152  C     C_2   0.621459 0.587616 0.847636 0.621131
O67   O     O_2   0.528130 0.589001 0.810887 -0.476134
O68   O     O_R   0.725174 0.620358 0.819927 -0.647977
H80   H     H_    0.797502 0.622706 0.854266 0.273625

loop_
_geom_bond_atom_site_label_1
_geom_bond_atom_site_label_2
_ccdc_geom_bond_type
C6    C32   S    
Cr1   O2    S    
C7    C29   S    
C119  C143  S    
O58   H75   S    
C120  C144  S    
C110  C118  S    
C24   C104  S    
C150  O63   D    
C15   C111  S    
C11   H51   S    
C121  H25   S    
C16   C144  S    
C21   C91   S    
C57   C59   A    
C8    O16   A    
C58   C60   A    
C62   C70   A    
C61   C63   A    
C62   C64   A    
Cr10  O35   S    
C144  H48   S    
C23   C103  S    
C49   C51   A    
C34   C42   A    
C84   O28   A    
Cr4   O15   S    
C50   C52   A    
C23   C89   S    
C36   H68   S    
C38   H70   S    
C97   C105  S    
C73   C75   A    
C87   C119  S    
C90   O42   A    
C42   C44   A    
C20   C132  S    
Cr10  O44   S    
C21   C133  S    
C45   C47   A    
C112  H8    S    
C46   C48   A    
C115  C123  S    
C6    O22   A    
C27   C57   A    
C87   O31   A    
C112  C120  S    
C19   C99   S    
C88   O40   A    
C29   C55   A    
C30   C56   A    
C100  C124  S    
C13   H53   S    
C41   H57   S    
O64   H78   S    
C104  C128  S    
C16   H56   S    
C12   C20   S    
C13   C21   S    
C85   C117  S    
Cr11  O37   S    
C137  H41   S    
C113  C137  S    
C36   C44   A    
C33   C51   A    
C80   H16   S    
C37   C45   A    
C130  C138  S    
C36   C50   A    
C39   C47   A    
C40   C48   A    
C20   C94   S    
C44   H60   S    
C133  C141  S    
Cr1   O49   S    
C18   C96   S    
C24   C90   S    
C136  H40   S    
C28   C58   A    
C66   C148  S    
C140  H44   S    
C121  C129  S    
C8    C30   S    
C146  O56   S    
C1    O17   A    
C10   C18   S    
C76   H12   S    
Cr12  O48   S    
C2    C28   S    
C32   C62   A    
C68   C146  S    
C134  H38   S    
C129  C137  S    
C126  C134  S    
C7    O23   A    
C92   O4    A    
C84   O36   A    
C10   C138  S    
C81   O25   A    
C130  H34   S    
C143  H47   S    
C14   C142  S    
C81   O33   A    
Cr5   O18   S    
C83   O35   A    
C67   C145  S    
C71   C79   A    
C110  H6    S    
Cr6   O20   S    
C74   C76   A    
C105  C113  S    
C124  H28   S    
C35   H67   S    
C78   C80   A    
Cr3   O13   S    
Cr5   O25   S    
C66   C74   A    
C78   H14   S    
C124  C132  S    
C125  H29   S    
C97   C121  S    
C59   C67   A    
C151  O66   S    
C129  H33   S    
C35   C49   A    
C101  C125  S    
Cr5   O49   S    
C35   C43   A    
C132  H36   S    
C70   C152  S    
C24   C136  S    
C135  C143  S    
C84   C116  S    
C149  O62   S    
C9    C137  S    
Cr11  O46   S    
Cr7   O22   S    
Cr2   O3    S    
C152  O68   S    
C100  C108  S    
C83   C115  S    
C103  C127  S    
C73   H9    S    
C104  C112  S    
C1    O9    A    
C91   O3    A    
C40   H72   S    
C71   C149  S    
C93   O45   A    
C148  O59   D    
C127  H31   S    
Cr12  O40   S    
Cr1   O10   S    
C147  O57   D    
C15   C143  S    
C40   C54   A    
C96   O48   A    
C10   C106  S    
C67   C75   A    
Cr3   O5    S    
Cr8   O24   S    
Cr7   O29   S    
C14   C110  S    
Cr1   O1    S    
C8    O24   A    
C102  C126  S    
C103  C111  S    
C145  O54   S    
C113  C121  S    
Cr4   O7    S    
C85   O29   A    
C14   C22   S    
C10   H50   S    
C72   C80   A    
Cr8   O31   S    
Cr6   O27   S    
C102  H22   S    
C37   H69   S    
C114  C138  S    
C38   C46   A    
Cr10  O36   S    
C37   C55   A    
Cr3   O6    S    
C99   H19   S    
C133  H37   S    
O54   H73   S    
Cr4   O16   S    
C22   C92   S    
C90   O2    A    
C25   C59   A    
Cr2   O50   S    
C17   C97   S    
C27   C49   A    
C87   O39   A    
C119  C127  S    
C29   C63   A    
C46   H62   S    
C30   C64   A    
C41   C43   A    
C31   C61   A    
Cr9   O42   S    
C109  C117  S    
C11   C19   S    
C142  H46   S    
C127  C135  S    
Cr12  O52   S    
C128  C136  S    
C92   O44   A    
C101  C109  S    
C95   O47   A    
Cr9   O49   S    
C79   H15   S    
C11   C139  S    
C86   O30   A    
C69   C77   A    
C105  H1    S    
C82   O34   A    
C12   C140  S    
C17   C95   S    
C13   C141  S    
C88   C120  S    
C39   H71   S    
C19   C93   S    
C77   C79   A    
C3    O19   A    
C32   C54   A    
C150  O64   S    
C123  H27   S    
O66   H79   S    
C5    O21   A    
C126  H30   S    
C97   H17   S    
O60   H76   S    
C131  C139  S    
C93   O5    A    
Cr4   O52   S    
C83   O27   A    
C117  C141  S    
O62   H77   S    
C146  O55   D    
C134  C142  S    
C107  H3    S    
O56   H74   S    
C20   C100  S    
C3    C25   S    
Cr5   O26   S    
C4    O12   A    
C86   C118  S    
C63   C71   A    
C22   C134  S    
C102  C110  S    
C68   C76   A    
Cr10  O43   S    
C74   H10   S    
C16   C112  S    
C12   C108  S    
C48   H64   S    
C65   C147  S    
Cr5   O17   S    
C116  C124  S    
C123  C131  S    
C128  H32   S    
C94   O6    A    
C57   C65   A    
C94   O46   A    
C4    C26   S    
C120  C128  S    
C100  H20   S    
C132  C140  S    
C99   C107  S    
Cr2   O12   S    
C34   C52   A    
C23   C135  S    
C33   C41   A    
C108  C116  S    
C2    O18   A    
C136  C144  S    
C39   C53   A    
C103  H23   S    
Cr11  O38   S    
C101  H21   S    
C88   O32   A    
C135  H39   S    
Cr2   O11   S    
C60   C68   A    
C151  O65   D    
C81   C113  S    
C82   O26   A    
C9    H49   S    
C69   C151  S    
C9    C105  S    
C3    O11   A    
O68   H80   S    
C70   C78   A    
C45   H61   S    
C149  O61   D    
Cr11  O45   S    
C43   H59   S    
Cr7   O21   S    
Cr2   O4    S    
C152  O67   D    
C106  C114  S    
C89   O41   A    
C12   H52   S    
C111  C119  S    
C141  H45   S    
C91   O43   A    
C98   H18   S    
C139  H43   S    
C5    C31   S    
C65   C73   A    
Cr7   O51   S    
C4    O20   A    
Cr12  O47   S    
C15   H55   S    
Cr8   O52   S    
C28   C50   A    
C58   C66   A    
Cr1   O9    S    
Cr11  O51   S    
C98   C106  S    
C21   C101  S    
C15   C23   S    
C13   C109  S    
C16   C24   S    
C95   O7    A    
C53   C55   A    
C19   C131  S    
Cr6   O19   S    
C54   C56   A    
C14   H54   S    
C17   C129  S    
C85   O37   A    
Cr10  O50   S    
C111  H7    S    
C82   C114  S    
C2    O10   A    
Cr3   O14   S    
C145  O53   D    
C106  H2    S    
C47   H63   S    
Cr4   O8    S    
Cr6   O50   S    
C42   H58   S    
C26   C52   A    
Cr8   O32   S    
Cr6   O28   S    
C125  C133  S    
C96   O8    A    
C38   C56   A    
C31   C53   A    
Cr9   O34   S    
C107  C115  S    
C98   C122  S    
C138  H42   S    
C9    C17   S    
C11   C107  S    
Cr9   O33   S    
C99   C123  S    
C61   C69   A    
Cr9   O41   S    
C115  C139  S    
C118  C142  S    
Cr3   O51   S    
C108  H4    S    
C131  H35   S    
C18   C98   S    
C25   C51   A    
C22   C102  S    
C5    O13   A    
C148  O60   S    
C109  H5    S    
C72   C150  S    
C104  H24   S    
Cr12  O39   S    
C26   C60   A    
C147  O58   S    
C64   C72   A    
C18   C130  S    
C114  C122  S    
C122  H26   S    
C77   H13   S    
C7    O15   A    
C1    C27   S    
C86   O38   A    
C6    O14   A    
C75   H11   S    
C118  C126  S    
C89   O1    A    
C117  C125  S    
C122  C130  S    
Cr8   O23   S    
C34   H66   S    
Cr7   O30   S    
C33   H65   S    
C116  C140  S    
