data_mof_unit_51702.cif
_audit_creation_date              2012-12-10T16:59:18-0500
_audit_creation_method            fapswitch 2.2
_symmetry_space_group_name_H-M    P1
_symmetry_Int_Tables_number       1
_space_group_crystal_system       triclinic
_cell_length_a                    7.787163
_cell_length_b                    8.530579
_cell_length_c                    27.592527
_cell_angle_alpha                 90.092598
_cell_angle_beta                  86.803166
_cell_angle_gamma                 94.159687
_cell_volume                      1825.2655571

loop_
_atom_site_label
_atom_site_type_symbol
_atom_type_description
_atom_site_fract_x
_atom_site_fract_y
_atom_site_fract_z
_atom_type_partial_charge
C1    C     C_R   0.546062 0.794657 0.498697 0.967313
C2    C     C_R   0.453939 0.205342 0.501304 0.964755
C3    C     C_R   0.561594 0.447293 0.896757 -0.096630
C4    C     C_R   0.486662 0.510132 0.100545 -0.102930
C5    C     C_R   0.651892 0.570663 0.868717 -0.076790
C6    C     C_R   0.413150 0.382600 0.128867 -0.055237
C7    C     C_R   0.734196 0.701947 0.892441 0.175474
C8    C     C_R   0.318770 0.257281 0.106735 0.210191
C9    C     C_R   0.480009 0.315019 0.873532 -0.072336
C10   C     C_R   0.540485 0.653856 0.123292 -0.077688
C11   C     C_R   0.512006 0.482550 0.646164 -0.081131
C12   C     C_R   0.486445 0.511052 0.353941 -0.066472
C13   C     C_R   0.591249 0.614438 0.021431 0.012840
C14   C     C_R   0.459485 0.336479 0.976052 0.016223
C15   C     C_R   0.435414 0.354559 0.027169 0.016296
C16   C     C_R   0.623687 0.592246 0.970977 0.007495
C17   C     C_R   0.505224 0.492776 0.049623 0.080989
C18   C     C_R   0.548491 0.458412 0.947997 0.084849
C19   C     C_R   0.632767 0.759802 0.043694 -0.222191
C20   C     C_R   0.403559 0.196972 0.952476 -0.234865
C21   C     C_R   0.611419 0.783105 0.093923 0.148099
C22   C     C_R   0.411731 0.182845 0.901804 0.170021
C23   C     C_R   0.503432 0.496999 0.593786 0.874311
C24   C     C_R   0.496300 0.501594 0.406268 0.875323
C25   C     C_R   0.730802 0.701072 0.943001 -0.235015
C26   C     C_R   0.331532 0.244843 0.056277 -0.268890
C27   C     C_2   0.569949 0.958728 0.497990 -0.375079
C28   C     C_2   0.430055 0.041273 0.502018 -0.374000
C29   C     C_R   0.654860 0.556977 0.817840 0.485540
C30   C     C_R   0.434018 0.387170 0.178642 0.471983
C31   C     C_R   0.468233 0.322637 0.822767 0.488121
C32   C     C_R   0.515678 0.661303 0.174584 0.488855
C33   C     C_R   0.648636 0.380267 0.714509 -0.123054
C34   C     C_R   0.610278 0.597179 0.275868 -0.139594
C35   C     C_R   0.639608 0.396157 0.664833 -0.227016
C36   C     C_R   0.621048 0.587316 0.325749 -0.237081
C37   C     C_R   0.393349 0.553505 0.677529 -0.206859
C38   C     C_R   0.337495 0.450802 0.332443 -0.210190
C39   C     C_R   0.403943 0.542406 0.728065 0.196790
C40   C     C_R   0.320904 0.465822 0.282441 0.229286
C41   C     C_R   0.532543 0.452772 0.745999 0.285873
C42   C     C_R   0.463935 0.533186 0.253368 0.262533
H1    H     H_    0.296340 0.619408 0.662017 0.165699
H2    H     H_    0.234533 0.391233 0.354924 0.154495
H3    H     H_    0.012934 0.383831 0.463577 0.190121
H4    H     H_    0.987074 0.616225 0.536403 0.193845
H5    H     H_    0.734960 0.638311 0.342304 0.171068
H6    H     H_    0.731409 0.339570 0.640980 0.169329
H7    H     H_    0.719230 0.650914 0.254338 0.172424
H8    H     H_    0.747878 0.313675 0.728777 0.151365
H9    H     H_    0.675690 0.858947 0.021320 0.162667
H10   H     H_    0.355529 0.096178 0.973516 0.162384
H11   H     H_    0.813207 0.787554 0.960507 0.163061
H12   H     H_    0.250236 0.152678 0.040633 0.149796
H13   H     H_    0.701680 0.010908 0.494176 0.179972
H14   H     H_    0.298324 0.989094 0.505833 0.180168
N1    N     N_R   0.553080 0.442889 0.796925 -0.340430
N2    N     N_R   0.468735 0.527709 0.201083 -0.340918
N3    N     N_2   0.950320 0.457960 0.486880 -0.176879
N4    N     N_2   0.049680 0.542040 0.513120 -0.175611
O1    O     O_R   0.389250 0.738570 0.503220 -0.610673
O2    O     O_R   0.610750 0.261430 0.496780 -0.612025
O3    O     O_R   0.678390 0.711630 0.494810 -0.629147
O4    O     O_R   0.321610 0.288370 0.505190 -0.629495
O5    O     O_R   0.355440 0.513440 0.575450 -0.617653
O6    O     O_R   0.644560 0.486560 0.424550 -0.616002
O7    O     O_R   0.644590 0.486500 0.567040 -0.626564
O8    O     O_R   0.355410 0.513500 0.432960 -0.626569
O9    O     O_2   0.756914 0.655583 0.788793 -0.610169
O10   O     O_2   0.423213 0.252068 0.204368 -0.565737
O11   O     O_2   0.538444 0.798851 0.198192 -0.595952
O12   O     O_2   0.369371 0.214957 0.799035 -0.599534
Zn1   Zn    Zn3+2 0.306940 0.517990 0.505620 0.945847
Zn2   Zn    Zn3+2 0.693060 0.482010 0.494380 0.943949
C43   C     C_3   0.284468 0.625021 0.763725 -0.433479
C44   C     C_3   0.160446 0.730972 0.740982 -0.777679
H15   H     H_    0.232922 0.822455 0.717807 0.254286
H16   H     H_    0.066913 0.660227 0.719363 0.272652
H17   H     H_    0.087298 0.791707 0.770084 0.273279
H18   H     H_    0.207503 0.535042 0.786468 0.228511
H19   H     H_    0.364195 0.699780 0.788168 0.213846
C45   C     C_3   0.153772 0.403737 0.261248 -0.388356
C46   C     C_3   0.995640 0.467926 0.286683 -0.907672
H20   H     H_    0.977501 0.428302 0.325000 0.265327
H21   H     H_    0.006038 0.598403 0.285145 0.266676
H22   H     H_    0.880929 0.421539 0.267697 0.269807
H23   H     H_    0.149799 0.437139 0.222586 0.201810
H24   H     H_    0.141770 0.273422 0.264051 0.240719
C47   C     C_3   0.816416 0.846924 0.864891 -0.315468
C48   C     C_3   0.847249 0.997611 0.894620 -0.951471
H25   H     H_    0.728467 0.024163 0.916240 0.276607
H26   H     H_    0.954096 0.987835 0.919044 0.260593
H27   H     H_    0.883922 0.098025 0.869661 0.268981
H28   H     H_    0.941073 0.817748 0.846934 0.231603
H29   H     H_    0.727942 0.879595 0.837019 0.245155
C49   C     C_3   0.173127 0.159351 0.133846 -0.381080
C50   C     C_3   0.207125 0.986339 0.138515 -0.798284
H30   H     H_    0.265044 0.940463 0.104130 0.246887
H31   H     H_    0.292138 0.970691 0.168710 0.310786
H32   H     H_    0.083903 0.916246 0.147543 0.236182
H33   H     H_    0.140167 0.207116 0.170260 0.222280
H34   H     H_    0.055348 0.167618 0.113709 0.195356
C51   C     C_3   0.670354 0.942772 0.115490 -0.299885
C52   C     C_3   0.737641 0.073318 0.079742 -0.952452
H35   H     H_    0.638991 0.096187 0.053681 0.274543
H36   H     H_    0.858049 0.041637 0.059792 0.257170
H37   H     H_    0.764969 0.184159 0.099965 0.264555
H38   H     H_    0.561110 0.991059 0.136156 0.274687
H39   H     H_    0.773418 0.925218 0.140746 0.229832
C53   C     C_3   0.352898 0.026514 0.878221 -0.325679
C54   C     C_3   0.329029 0.881493 0.911322 -0.950136
H40   H     H_    0.445431 0.869762 0.931947 0.278368
H41   H     H_    0.215218 0.888225 0.937046 0.256040
H42   H     H_    0.307684 0.774270 0.888908 0.263000
H43   H     H_    0.228706 0.039276 0.861245 0.250947
H44   H     H_    0.451578 0.998782 0.849470 0.238214

loop_
_geom_bond_atom_site_label_1
_geom_bond_atom_site_label_2
_ccdc_geom_bond_type
C37   H1    S    
C49   H34   S    
C8    C26   A    
C14   C18   A    
C54   H40   S    
C34   C42   A    
C44   H17   S    
C32   N2    A    
C42   N2    S    
C52   H36   S    
C50   H30   S    
C28   H14   S    
C39   C41   A    
C36   H5    S    
C19   C21   A    
C44   H16   S    
C27   H13   S    
C9    C22   A    
C45   H23   S    
O6    Zn2   S    
C26   H12   S    
N4    Zn1   S    
O5    Zn1   S    
C3    C18   A    
C23   O7    A    
C47   H28   S    
C11   C37   A    
C53   C54   S    
C50   H31   S    
C22   C53   S    
C8    C49   S    
O4    Zn1   S    
C51   H38   S    
C39   C43   S    
C12   C36   A    
C43   H18   S    
C5    C29   A    
C24   O6    A    
H4    N4    S    
C40   C42   A    
N3    N4    D    
C49   H33   S    
C25   H11   S    
C35   H6    S    
C1    O3    A    
C52   H35   S    
C30   O10   S    
C2    O4    A    
C32   O11   S    
C29   O9    S    
C10   C21   A    
C13   C19   A    
C40   C45   S    
C44   H15   S    
C4    C6    A    
C5    C7    A    
C9    C31   A    
C43   H19   S    
C15   C26   A    
C6    C8    A    
O1    Zn1   S    
C33   H8    S    
C47   H29   S    
C43   C44   S    
C38   H2    S    
C3    C9    A    
C14   C20   A    
C48   H26   S    
C46   H20   S    
C49   C50   S    
C54   H41   S    
O7    Zn2   S    
N3    Zn2   S    
C4    C17   A    
C16   C18   A    
C31   O12   S    
C46   H21   S    
C20   C22   A    
C4    C10   A    
C53   H44   S    
C51   C52   S    
C50   H32   S    
C48   H27   S    
C16   C25   A    
C15   C17   A    
H3    N3    S    
C34   H7    S    
C6    C30   A    
C29   N1    A    
C3    C5    A    
C1    O1    A    
O3    Zn2   S    
C12   C24   S    
C7    C25   A    
C13   C17   A    
C51   H39   S    
C33   C41   A    
C23   O5    A    
C11   C35   A    
O8    Zn1   S    
C41   N1    S    
C20   H10   S    
C38   C40   A    
C31   N1    A    
C48   H25   S    
C19   H9    S    
C45   H24   S    
C30   N2    A    
C11   C23   S    
C33   C35   A    
C54   H42   S    
C34   C36   A    
C12   C38   A    
C24   O8    A    
C21   C51   S    
C10   C32   A    
C46   H22   S    
C37   C39   A    
C45   C46   S    
C13   C16   A    
C27   C28   D    
C1    C27   S    
C14   C15   A    
O2    Zn2   S    
C2    C28   S    
C47   C48   S    
C53   H43   S    
C52   H37   S    
C2    O2    A    
C7    C47   S    
