data_mof_unit_60391.cif
_audit_creation_date              2012-10-26T20:59:57-0400
_audit_creation_method            fapswitch 2.2
_symmetry_space_group_name_H-M    P1
_symmetry_Int_Tables_number       1
_space_group_crystal_system       triclinic
_cell_length_a                    14.42838
_cell_length_b                    13.148825
_cell_length_c                    10.750467
_cell_angle_alpha                 89.466234
_cell_angle_beta                  90.003217
_cell_angle_gamma                 89.972002
_cell_volume                      2039.44946706

loop_
_atom_site_label
_atom_site_type_symbol
_atom_type_description
_atom_site_fract_x
_atom_site_fract_y
_atom_site_fract_z
_atom_type_partial_charge
C1    C     C_R   0.328728 0.500017 0.499975 0.554515
C2    C     C_3   0.500110 0.403797 0.963419 0.133311
C3    C     C_3   0.575859 0.546180 0.959045 0.138430
C4    C     C_3   0.424141 0.453820 0.040955 0.138430
C5    C     C_3   0.423053 0.549003 0.955403 -0.133317
C6    C     C_3   0.576947 0.450997 0.044597 -0.133317
C7    C     C_3   0.500701 0.498038 0.877671 0.000417
C8    C     C_3   0.499299 0.501962 0.122329 0.000418
C9    C     C_1   0.499998 0.173638 0.500002 0.111815
C10   C     C_1   0.500001 0.826362 0.499998 0.111815
C11   C     C_1   0.227150 0.500036 0.499965 -0.047160
C12   C     C_R   0.671271 0.499983 0.500024 0.554514
C13   C     C_1   0.772849 0.499964 0.500035 -0.047161
C14   C     C_1   0.142328 0.500025 0.499969 -0.045248
C15   C     C_1   0.857672 0.499975 0.500031 -0.045248
C16   C     C_3   0.492653 0.777480 0.984825 -0.307688
C17   C     C_3   0.507348 0.222519 0.015175 -0.307688
C18   C     C_3   0.722666 0.631687 0.001198 -0.293725
C19   C     C_3   0.277333 0.368315 0.998802 -0.293729
C20   C     C_1   0.042412 0.500007 0.499990 -0.003895
C21   C     C_1   0.957588 0.499993 0.500010 -0.003895
C22   C     C_1   0.499999 0.050681 0.500001 -0.055800
C23   C     C_1   0.500001 0.949319 0.499999 -0.055800
C24   C     C_R   0.498664 0.500640 0.256812 0.568851
C25   C     C_R   0.501336 0.499360 0.743188 0.568850
C26   C     C_3   0.499890 0.596203 0.036581 0.133311
Cu1   Cu    Cu3+1 0.500000 0.592680 0.500000 0.967677
Cu2   Cu    Cu3+1 0.500000 0.407320 0.500000 0.967676
H1    H     H_    0.360966 0.588292 0.917355 0.108649
H2    H     H_    0.574314 0.228956 0.065507 0.139625
H3    H     H_    0.645558 0.644981 0.837719 0.255730
H4    H     H_    0.786219 0.659820 0.953968 0.139114
H5    H     H_    0.742831 0.569749 0.066742 0.152993
H6    H     H_    0.691231 0.695257 0.053818 0.172460
H7    H     H_    0.354444 0.355017 0.162279 0.255730
H8    H     H_    0.213784 0.340174 0.046033 0.139112
H9    H     H_    0.308769 0.304751 0.946173 0.172463
H10   H     H_    0.257161 0.430256 0.933268 0.152992
H11   H     H_    0.639034 0.411708 0.082645 0.108649
H12   H     H_    0.451654 0.711123 0.150715 0.267495
H13   H     H_    0.496445 0.853761 0.027965 0.138032
H14   H     H_    0.425688 0.771043 0.934490 0.139626
H15   H     H_    0.550711 0.770988 0.917963 0.160687
H16   H     H_    0.548345 0.288877 0.849283 0.267495
H17   H     H_    0.503555 0.146239 0.972035 0.138033
H18   H     H_    0.449292 0.229011 0.082038 0.160687
N1    N     N_1   0.500000 0.268070 0.500000 -0.172100
N2    N     N_1   0.500000 0.731930 0.500000 -0.172100
N3    N     N_2   0.499283 0.699999 0.080714 -0.503717
N4    N     N_2   0.500716 0.300000 0.919286 -0.503716
N5    N     N_2   0.658313 0.594310 0.909351 -0.512821
N6    N     N_2   0.341688 0.405689 0.090649 -0.512820
O1    O     O_R   0.376050 0.578280 0.500000 -0.474948
O2    O     O_R   0.623950 0.421720 0.500000 -0.474948
O3    O     O_R   0.623950 0.578280 0.500000 -0.473148
O4    O     O_R   0.376050 0.421720 0.500000 -0.473148
O5    O     O_R   0.499980 0.578250 0.316850 -0.484891
O6    O     O_R   0.500020 0.421750 0.683150 -0.484892
O7    O     O_R   0.500020 0.578250 0.683150 -0.501342
O8    O     O_R   0.499980 0.421750 0.316850 -0.501343

loop_
_geom_bond_atom_site_label_1
_geom_bond_atom_site_label_2
_ccdc_geom_bond_type
C17   N4    S    
Cu1   N2    S    
C2    C4    S    
C17   H18   S    
Cu1   O1    S    
Cu2   N1    S    
C8    C24   S    
C19   H10   S    
Cu2   O6    S    
C10   C23   S    
C8    C26   S    
C19   H9    S    
C3    C7    S    
C2    C7    S    
C7    C25   S    
C24   O8    A    
C4    C8    S    
C3    C6    S    
Cu2   O8    S    
Cu2   O4    S    
Cu1   O7    S    
C20   C21   T    
C17   H2    S    
C18   H6    S    
C16   H15   S    
C2    C6    S    
C4    N6    S    
C6    C8    S    
C16   H13   S    
C11   C14   T    
C1    O4    A    
C17   H17   S    
C18   N5    S    
C9    N1    T    
C5    H1    S    
C19   H8    S    
C13   C15   T    
C2    N4    S    
C10   N2    T    
Cu2   O2    S    
C18   H5    S    
Cu1   O3    S    
C9    C22   S    
C12   O3    A    
C18   H4    S    
C25   O6    A    
H12   N3    S    
C14   C20   S    
C15   C21   S    
C16   N3    S    
Cu1   O5    S    
C26   N3    S    
H16   N4    S    
H7    N6    S    
C5    C7    S    
C1    O1    A    
C22   C23   T    
C4    C5    S    
C3    N5    S    
C25   O7    A    
C12   C13   S    
C6    H11   S    
C16   H14   S    
C19   N6    S    
C3    C26   S    
C12   O2    A    
C5    C26   S    
H3    N5    S    
C24   O5    A    
Cu1   Cu2   S    
C1    C11   S    
