data_mof_unit_30122.cif
_audit_creation_date              2012-12-10T17:12:02-0500
_audit_creation_method            fapswitch 2.2
_symmetry_space_group_name_H-M    P1
_symmetry_Int_Tables_number       1
_space_group_crystal_system       triclinic
_cell_length_a                    11.775285
_cell_length_b                    13.100469
_cell_length_c                    15.768072
_cell_angle_alpha                 94.601374
_cell_angle_beta                  76.303598
_cell_angle_gamma                 99.996787
_cell_volume                      2325.41640566

loop_
_atom_site_label
_atom_site_type_symbol
_atom_type_description
_atom_site_fract_x
_atom_site_fract_y
_atom_site_fract_z
_atom_type_partial_charge
C1    C     C_R   0.521003 0.700777 0.499601 0.827316
C2    C     C_R   0.477124 0.299992 0.504992 0.839140
C3    C     C_R   0.342989 0.411908 0.083525 -0.195404
C4    C     C_R   0.606238 0.380796 0.919946 -0.167126
C5    C     C_R   0.261991 0.392381 0.030337 0.182734
C6    C     C_R   0.678101 0.360761 0.973410 0.139958
C7    C     C_R   0.461356 0.187746 0.516739 -0.153110
C8    C     C_R   0.528263 0.814453 0.505072 -0.130926
C9    C     C_R   0.621074 0.978493 0.558373 0.263269
C10   C     C_R   0.343786 0.020306 0.498529 0.280693
C11   C     C_R   0.620447 0.873814 0.536196 -0.340848
C12   C     C_R   0.357545 0.127527 0.503196 -0.338489
C13   C     C_R   0.437129 0.861970 0.488673 0.219601
C14   C     C_R   0.548102 0.140325 0.540405 0.221038
C15   C     C_R   0.437475 0.969924 0.507816 -0.019920
C16   C     C_R   0.535826 0.030252 0.536926 -0.022249
C17   C     C_R   0.940586 0.581839 0.594939 0.178577
C18   C     C_R   0.058923 0.409490 0.409486 0.122057
C19   C     C_R   0.825877 0.584135 0.580247 0.392980
C20   C     C_R   0.178488 0.419467 0.418079 0.382821
C21   C     C_R   0.858920 0.461572 0.460914 -0.003723
C22   C     C_R   0.138158 0.529148 0.543912 -0.027199
C23   C     C_R   0.428447 0.490192 0.668115 0.821654
C24   C     C_R   0.571073 0.505994 0.331403 0.816599
C25   C     C_R   0.978599 0.465152 0.468265 -0.057128
C26   C     C_R   0.019111 0.525356 0.536458 -0.118875
C27   C     C_R   0.384635 0.467038 0.762875 -0.184395
C28   C     C_R   0.609734 0.492399 0.234277 -0.251776
C29   C     C_R   0.219161 0.425769 0.889853 0.231690
C30   C     C_R   0.736953 0.402550 0.117816 0.212745
C31   C     C_R   0.260812 0.441595 0.799417 0.141182
C32   C     C_R   0.721182 0.462009 0.197814 0.199594
C33   C     C_R   0.464336 0.467377 0.817865 0.141466
C34   C     C_R   0.530769 0.493552 0.179688 0.179980
C35   C     C_R   0.421841 0.432643 0.903579 -0.034169
C36   C     C_R   0.550558 0.441202 0.096724 -0.002167
C37   C     C_R   0.299302 0.416783 0.941334 -0.005916
C38   C     C_R   0.657011 0.399743 0.062509 -0.052149
C39   C     C_R   0.500541 0.418764 0.955330 0.059927
C40   C     C_R   0.464707 0.429358 0.046078 0.059693
Cu1   Cu    Cu3+1 0.386820 0.492450 0.493500 0.958313
Cu2   Cu    Cu3+1 0.613180 0.507550 0.506500 0.927451
H1    H     H_    0.311939 0.397391 0.152111 0.160788
H2    H     H_    0.626610 0.356032 0.851579 0.171782
H3    H     H_    0.285645 0.163764 0.494564 0.181025
H4    H     H_    0.690175 0.837290 0.547741 0.183228
H5    H     H_    0.170550 0.570946 0.596964 0.182250
H6    H     H_    0.825975 0.413760 0.410120 0.202982
N1    N     N_R   0.216750 0.481110 0.483710 -0.207452
N2    N     N_R   0.783250 0.518890 0.516290 -0.252435
O1    O     O_R   0.419950 0.645670 0.495380 -0.558459
O2    O     O_R   0.580050 0.354330 0.504620 -0.558471
O3    O     O_R   0.611110 0.658410 0.506370 -0.607516
O4    O     O_R   0.388890 0.341590 0.493630 -0.567479
O5    O     O_R   0.350820 0.490050 0.621260 -0.550491
O6    O     O_R   0.649180 0.509950 0.378740 -0.565987
O7    O     O_R   0.541970 0.502800 0.632250 -0.625379
O8    O     O_R   0.458030 0.497200 0.367750 -0.570874
I1    I     I_    0.106502 0.288622 0.080687 -0.488048
I2    I     I_    0.805661 0.268693 0.903628 -0.527142
N3    N     N_2   0.261298 0.368550 0.356355 -0.376574
H7    H     H_    0.285807 0.400572 0.296071 0.229717
C41   C     C_3   0.242103 0.256263 0.352948 -0.671057
H8    H     H_    0.327135 0.229237 0.350137 0.232483
H9    H     H_    0.212258 0.225692 0.292757 0.217568
H10   H     H_    0.175204 0.224358 0.410864 0.219784
N4    N     N_2   0.753703 0.651605 0.635876 -0.420369
H11   H     H_    0.668824 0.647379 0.630910 0.311095
C42   C     C_3   0.804974 0.757448 0.654473 -0.715295
H12   H     H_    0.736179 0.807991 0.668116 0.199687
H13   H     H_    0.877149 0.788007 0.599043 0.234006
H14   H     H_    0.834910 0.762093 0.716139 0.263351
N5    N     N_2   0.970711 0.628564 0.673556 -0.415215
H15   H     H_    0.977553 0.575992 0.716657 0.249568
C43   C     C_3   0.061926 0.719893 0.665991 -0.736837
H16   H     H_    0.027924 0.784568 0.708434 0.237566
H17   H     H_    0.091990 0.744938 0.597592 0.236473
H18   H     H_    0.139066 0.704410 0.689205 0.212973
N6    N     N_2   0.021121 0.346216 0.340373 -0.443477
H19   H     H_    0.082857 0.343993 0.282106 0.275719
C44   C     C_3   0.947091 0.247550 0.364107 -0.688876
H20   H     H_    0.993321 0.182715 0.332268 0.230154
H21   H     H_    0.864029 0.242174 0.341191 0.235829
H22   H     H_    0.924425 0.238248 0.435903 0.219508
N7    N     N_2   0.445480 0.562969 0.199254 -0.437145
H23   H     H_    0.408475 0.578636 0.263643 0.277156
C45   C     C_3   0.480643 0.657104 0.150872 -0.702053
H24   H     H_    0.406668 0.702716 0.165385 0.223791
H25   H     H_    0.502299 0.639271 0.079390 0.241771
H26   H     H_    0.558968 0.704875 0.170049 0.220134
N8    N     N_2   0.584293 0.516988 0.794621 -0.424796
H27   H     H_    0.640703 0.492591 0.739446 0.278488
C46   C     C_3   0.607370 0.623560 0.826141 -0.620605
H28   H     H_    0.703935 0.647433 0.819892 0.240462
H29   H     H_    0.563496 0.632196 0.896356 0.218461
H30   H     H_    0.574071 0.674768 0.788031 0.218848
N9    N     N_2   0.816139 0.499223 0.241111 -0.411890
H31   H     H_    0.816537 0.575045 0.264796 0.257400
C47   C     C_3   0.934548 0.476461 0.208298 -0.611929
H32   H     H_    0.969807 0.501543 0.140422 0.238226
H33   H     H_    0.934381 0.392868 0.213365 0.297285
H34   H     H_    0.993596 0.518994 0.249371 0.211698
N10   N     N_2   0.177441 0.435748 0.745974 -0.414125
H35   H     H_    0.106865 0.474444 0.770645 0.248136
C48   C     C_3   0.143420 0.332827 0.710139 -0.618708
H36   H     H_    0.094223 0.280254 0.763169 0.229455
H37   H     H_    0.222938 0.300486 0.673196 0.231892
H38   H     H_    0.085571 0.336847 0.664572 0.221733
N11   N     N_2   0.097902 0.427426 0.930055 -0.401079
H39   H     H_    0.039824 0.386630 0.895482 0.292331
C49   C     C_3   0.070988 0.529950 0.959003 -0.708026
H40   H     H_    0.122232 0.564161 0.008044 0.241477
H41   H     H_    0.092715 0.581620 0.902919 0.218199
H42   H     H_    0.975072 0.524869 0.989380 0.233840
N12   N     N_2   0.821057 0.334331 0.102003 -0.409329
H43   H     H_    0.886915 0.344596 0.046386 0.315072
C50   C     C_3   0.774146 0.229307 0.128922 -0.587657
H44   H     H_    0.846254 0.181848 0.115241 0.256063
H45   H     H_    0.705645 0.193113 0.093157 0.237890
H46   H     H_    0.734336 0.229615 0.200248 0.213390
N13   N     N_2   0.652356 0.203444 0.558207 -0.395039
H47   H     H_    0.733638 0.183848 0.527823 0.256664
C51   C     C_3   0.643233 0.260210 0.641849 -0.592504
H48   H     H_    0.697063 0.231264 0.680770 0.232322
H49   H     H_    0.549911 0.253723 0.679780 0.202530
H50   H     H_    0.679502 0.343223 0.630975 0.234160
N14   N     N_2   0.352642 0.801259 0.446047 -0.392439
H51   H     H_    0.265426 0.789722 0.479525 0.281570
C52   C     C_3   0.375902 0.809831 0.352492 -0.663855
H52   H     H_    0.370059 0.889274 0.336041 0.222772
H53   H     H_    0.309782 0.753482 0.325901 0.219712
H54   H     H_    0.465603 0.791752 0.321573 0.223356
N15   N     N_2   0.700124 0.027084 0.610650 -0.433741
H55   H     H_    0.782068 0.003562 0.593990 0.243345
C53   C     C_3   0.649023 0.022017 0.703590 -0.664581
H56   H     H_    0.713986 0.063688 0.740334 0.243065
H57   H     H_    0.625277 0.940195 0.723343 0.212690
H58   H     H_    0.568023 0.058970 0.721218 0.244455
N16   N     N_2   0.233611 0.965205 0.485877 -0.433969
H59   H     H_    0.210051 0.988470 0.432308 0.251542
C54   C     C_3   0.138260 0.963746 0.563080 -0.742645
H60   H     H_    0.058421 0.912319 0.549984 0.223577
H61   H     H_    0.116051 0.042930 0.580777 0.231092
H62   H     H_    0.163830 0.934115 0.618803 0.245053

loop_
_geom_bond_atom_site_label_1
_geom_bond_atom_site_label_2
_ccdc_geom_bond_type
C53   H58   S    
C45   H24   S    
C41   H9    S    
C46   H28   S    
C5    C37   A    
C1    C8    S    
Cu1   Cu2   S    
C49   H40   S    
C50   H45   S    
C44   H20   S    
C51   H48   S    
C49   H41   S    
N7    H23   S    
C27   C33   A    
C48   H37   S    
C3    H1    S    
C8    C13   A    
C17   C26   A    
C29   N11   S    
C35   C37   A    
C9    C16   A    
Cu1   O8    S    
C10   C15   A    
C54   H61   S    
Cu2   O3    S    
C51   H49   S    
C15   C16   A    
C32   N9    S    
C30   C38   A    
N3    C41   S    
N5    H15   S    
C20   N3    S    
C42   H13   S    
C1    O3    A    
Cu1   O5    S    
Cu2   O6    S    
C7    C14   A    
C2    C7    S    
C18   N6    S    
N12   C50   S    
C6    C38   A    
C19   N4    S    
C23   C27   S    
C18   C20   A    
C21   H6    S    
C53   H56   S    
C22   H5    S    
C41   H10   S    
C28   C34   A    
C46   H29   S    
C14   N13   S    
C17   N5    S    
N5    C43   S    
C42   H12   S    
C18   C25   A    
C10   C12   A    
Cu2   O7    S    
Cu1   N1    S    
C21   N2    A    
C44   H21   S    
N9    H31   S    
C30   N12   S    
N7    C45   S    
C7    C12   A    
C48   H38   S    
C5    I1    S    
C27   C31   A    
N4    H11   S    
C6    I2    S    
C36   C40   A    
C4    C6    A    
N9    C47   S    
C50   H46   S    
N8    H27   S    
N6    C44   S    
C17   C19   A    
C51   H50   S    
C4    H2    S    
C25   C26   A    
N6    H19   S    
N4    C42   S    
C34   N7    S    
C31   N10   S    
C42   H14   S    
C35   C39   A    
C43   H16   S    
N14   C52   S    
C20   N1    A    
N8    C46   S    
C1    O1    A    
C47   H32   S    
C4    C39   A    
C28   C32   A    
N10   C48   S    
C43   H17   S    
N13   H47   S    
C2    O2    A    
Cu2   N2    S    
C22   N1    A    
C23   O7    A    
C47   H33   S    
C3    C40   A    
C46   H30   S    
C9    C11   A    
C13   C15   A    
C2    O4    A    
N15   H55   S    
C14   C16   A    
C54   H62   S    
C10   N16   S    
N14   H51   S    
C39   C40   A    
C44   H22   S    
C52   H52   S    
C53   H57   S    
C21   C25   A    
C24   C28   S    
C12   H3    S    
C3    C5    A    
N16   H59   S    
C23   O5    A    
C24   O6    A    
C48   H36   S    
C50   H44   S    
C52   H54   S    
N11   C49   S    
C29   C31   A    
C54   H60   S    
C30   C32   A    
N16   C54   S    
C19   N2    A    
C8    C11   A    
C36   C38   A    
C33   C35   A    
C49   H42   S    
C34   C36   A    
N3    H7    S    
C43   H18   S    
Cu1   O4    S    
N13   C51   S    
C41   H8    S    
C13   N14   S    
C47   H34   S    
C24   O8    A    
C22   C26   A    
C45   H26   S    
C29   C37   A    
N10   H35   S    
N15   C53   S    
C45   H25   S    
C11   H4    S    
N11   H39   S    
Cu1   O1    S    
N12   H43   S    
Cu2   O2    S    
C52   H53   S    
C33   N8    S    
C9    N15   S    
