data_mof_unit_49610.cif
_audit_creation_date              2012-10-26T19:40:42-0400
_audit_creation_method            fapswitch 2.2
_symmetry_space_group_name_H-M    P1
_symmetry_Int_Tables_number       1
_space_group_crystal_system       triclinic
_cell_length_a                    9.711959
_cell_length_b                    10.918564
_cell_length_c                    13.525262
_cell_angle_alpha                 89.683245
_cell_angle_beta                  72.845596
_cell_angle_gamma                 88.783227
_cell_volume                      1370.11416754

loop_
_atom_site_label
_atom_site_type_symbol
_atom_type_description
_atom_site_fract_x
_atom_site_fract_y
_atom_site_fract_z
_atom_type_partial_charge
Br1   Br    Br    0.088249 0.682108 0.657043 -0.468371
C1    C     C_R   0.497458 0.734700 0.502506 0.574194
C2    C     C_R   0.386975 0.461119 0.811660 0.032587
C3    C     C_2   0.581927 0.062562 0.548207 0.245112
C4    C     C_R   0.424988 0.488121 0.699225 0.575968
C5    C     C_2   0.506995 0.132596 0.498462 -0.097143
C6    C     C_2   0.593767 0.929881 0.531451 -0.122853
C7    C     C_2   0.487467 0.866677 0.513035 -0.146515
C8    C     C_2   0.049546 0.568355 0.561677 0.255939
C9    C     C_2   0.893571 0.563833 0.564518 0.006410
C10   C     C_R   0.500637 0.265226 0.502569 0.585105
C11   C     C_R   0.576834 0.500906 0.300516 0.537724
C12   C     C_R   0.448052 0.452102 0.975895 0.036458
C13   C     C_R   0.803955 0.501921 0.022543 -0.120749
C14   C     C_R   0.620708 0.497917 0.187468 0.004351
C15   C     C_R   0.241475 0.446166 0.866728 -0.107560
C16   C     C_R   0.200526 0.427041 0.972954 -0.130148
C17   C     C_R   0.300573 0.434293 0.027626 -0.107346
C18   C     C_R   0.493383 0.451052 0.866002 0.049643
C19   C     C_R   0.552751 0.468717 0.029383 0.031486
C20   C     C_R   0.700451 0.476826 0.972712 0.055201
C21   C     C_R   0.744442 0.455715 0.867106 -0.132685
C22   C     C_R   0.643334 0.437443 0.815543 -0.080239
C23   C     C_R   0.515438 0.480913 0.137194 -0.125225
C24   C     C_R   0.764993 0.510639 0.129647 -0.130839
Cu1   Cu    Cu3+1 0.361370 0.499980 0.499980 1.024891
Cu2   Cu    Cu3+1 0.638630 0.500020 0.500020 1.006309
H1    H     H_    0.847370 0.527176 0.166980 0.132506
H2    H     H_    0.404820 0.477864 0.183947 0.125326
H3    H     H_    0.159098 0.447147 0.827419 0.146217
H4    H     H_    0.259157 0.421674 0.110046 0.102974
H5    H     H_    0.089887 0.408192 0.014430 0.115073
H6    H     H_    0.688250 0.406841 0.737075 0.209421
H7    H     H_    0.749763 0.044996 0.756692 0.374770
H8    H     H_    0.452958 0.091844 0.447444 0.056291
H9    H     H_    0.689175 0.882647 0.540034 0.196939
H10   H     H_    0.386561 0.910966 0.512528 0.131548
H11   H     H_    0.126840 0.438294 0.453882 0.187266
H12   H     H_    0.816311 0.618443 0.622785 0.172640
H13   H     H_    0.918749 0.452798 0.443232 0.207830
H14   H     H_    0.858045 0.451056 0.824155 0.129736
H15   H     H_    0.914828 0.514954 0.977925 0.115297
N1    N     N_2   0.152660 0.501340 0.501130 -0.327410
N2    N     N_2   0.846520 0.501370 0.501160 -0.360407
O1    O     O_R   0.382960 0.678040 0.499980 -0.444882
O2    O     O_2   0.556501 0.205581 0.712546 -0.311357
O3    O     O_3   0.707089 0.005146 0.707303 -0.508532
O4    O     O_R   0.617100 0.678080 0.500020 -0.502402
O5    O     O_R   0.325800 0.499940 0.650950 -0.459583
O6    O     O_R   0.559930 0.499980 0.650990 -0.515365
O7    O     O_R   0.382900 0.321920 0.499980 -0.505494
O8    O     O_R   0.617040 0.321960 0.500020 -0.432540
O9    O     O_R   0.440070 0.500020 0.349010 -0.515451
O10   O     O_R   0.674200 0.500060 0.349050 -0.510571
O11   O     O_2   0.795946 0.189538 0.584783 -0.280281
S1    S     S_3+6 0.662345 0.121050 0.639520 0.018736

loop_
_geom_bond_atom_site_label_1
_geom_bond_atom_site_label_2
_ccdc_geom_bond_type
Cu2   O4    S    
C18   C22   A    
O11   S1    D    
Cu2   O6    S    
C2    C18   A    
H7    O3    S    
C8    C9    S    
Cu1   O7    S    
C11   O9    A    
Cu1   O1    S    
C11   C14   S    
H13   N2    S    
C13   H15   S    
C16   C17   A    
Cu2   O10   S    
H11   N1    S    
C13   C24   A    
C20   C21   A    
C3    S1    S    
C24   H1    S    
O3    S1    S    
C4    O5    A    
Cu1   Cu2   S    
C10   O7    A    
C12   C17   A    
C3    C6    S    
C13   C20   A    
C14   C23   A    
C17   H4    S    
Cu1   N1    S    
C1    O1    A    
Cu2   O8    S    
C1    C7    S    
C4    O6    A    
C8    N1    D    
C21   H14   S    
C14   C24   A    
C7    H10   S    
C12   C18   A    
C9    N2    D    
Cu1   O9    S    
C2    C4    S    
C6    C7    D    
Br1   C8    S    
C19   C20   A    
C3    C5    D    
C6    H9    S    
C5    H8    S    
O2    S1    D    
C5    C10   S    
C16   H5    S    
C23   H2    S    
C9    H12   S    
C10   O8    A    
C12   C19   A    
C1    O4    A    
C21   C22   A    
C15   H3    S    
Cu2   N2    S    
C11   O10   A    
C2    C15   A    
C19   C23   A    
C15   C16   A    
C22   H6    S    
Cu1   O5    S    
