data_mof_unit_5543.cif
_audit_creation_date              2012-12-11T14:25:47-0500
_audit_creation_method            fapswitch 2.2
_symmetry_space_group_name_H-M    P1
_symmetry_Int_Tables_number       1
_space_group_crystal_system       triclinic
_cell_length_a                    6.93554
_cell_length_b                    14.744243
_cell_length_c                    16.170741
_cell_angle_alpha                 90.670962
_cell_angle_beta                  89.678267
_cell_angle_gamma                 90.219292
_cell_volume                      1653.45729476

loop_
_atom_site_label
_atom_site_type_symbol
_atom_type_description
_atom_site_fract_x
_atom_site_fract_y
_atom_site_fract_z
_atom_type_partial_charge
O1    O     O_R   0.494490 0.416160 0.413410 -0.542093
O2    O     O_R   0.823830 0.407240 0.585990 -0.540518
O3    O     O_R   0.994160 0.583840 0.586590 -0.543174
C1    C     C_R   0.653970 0.386194 0.614522 0.755251
O4    O     O_R   0.824200 0.405280 0.414020 -0.541214
O5    O     O_R   0.994530 0.581860 0.413390 -0.537677
C2    C     C_R   0.655069 0.383163 0.385633 0.747393
O6    O     O_R   0.494110 0.418140 0.586610 -0.541040
O7    O     O_3   0.660810 0.557940 0.500000 -0.374796
V1    V     V_3+5 0.935650 0.489250 0.500000 1.413238
O8    O     O_R   0.324250 0.592760 0.414010 -0.545332
C3    C     C_R   0.156285 0.613651 0.385073 0.775655
O9    O     O_R   0.323880 0.594720 0.585980 -0.545884
C4    C     C_R   0.154565 0.617023 0.614723 0.677135
V2    V     V_3+5 0.435660 0.510750 0.500000 1.402935
O10   O     O_3   0.160630 0.442060 0.500000 -0.369889
C5    C     C_3   0.929710 0.706207 0.709856 -0.315904
H1    H     H_    0.850849 0.735933 0.656934 0.169514
H2    H     H_    0.855575 0.641657 0.726045 0.147841
C6    C     C_3   0.918447 0.771754 0.784767 -0.405645
H3    H     H_    0.858634 0.734917 0.838941 0.167974
H4    H     H_    0.815361 0.827062 0.771177 0.180197
H5    H     H_    0.176358 0.798601 0.596853 0.140237
C7    C     C_3   0.235911 0.778470 0.657509 -0.389495
C8    C     C_3   0.251575 0.654452 0.761794 -0.327303
C9    C     C_3   0.142788 0.687444 0.684315 0.051093
H6    H     H_    0.403891 0.638156 0.745682 0.144799
H7    H     H_    0.183436 0.591046 0.784798 0.142449
C10   C     C_3   0.121852 0.810563 0.806280 -0.005897
C11   C     C_3   0.212552 0.855335 0.726212 0.441885
C12   C     C_3   0.248123 0.728072 0.831150 -0.320688
H8    H     H_    0.190902 0.697778 0.889082 0.130043
H9    H     H_    0.398237 0.750647 0.844271 0.181222
H10   H     H_    0.391874 0.765904 0.645654 0.160817
C13   C     C_2   0.993554 0.692874 0.270433 -0.207594
C14   C     C_2   0.152173 0.679671 0.316690 -0.371482
H11   H     H_    0.866763 0.652047 0.283660 0.153186
H12   H     H_    0.285946 0.714472 0.302934 0.126615
C15   C     C_2   0.979589 0.755887 0.198249 0.491686
C16   C     C_2   0.120079 0.816236 0.178676 -0.388031
H13   H     H_    0.248023 0.822177 0.216274 0.076419
C17   C     C_2   0.779657 0.230593 0.797650 -0.009314
C18   C     C_2   0.622829 0.177709 0.814094 -0.362013
H14   H     H_    0.499145 0.179060 0.773455 0.164300
C19   C     C_2   0.791458 0.287997 0.722263 -0.187631
C20   C     C_2   0.637003 0.322236 0.683824 -0.332420
H15   H     H_    0.934255 0.308217 0.701315 0.170133
H16   H     H_    0.492649 0.307630 0.706263 0.161710
C21   C     C_2   0.779362 0.208014 0.211845 -0.119633
C22   C     C_2   0.614205 0.180192 0.175534 -0.294756
H17   H     H_    0.915362 0.179684 0.190460 0.133896
H18   H     H_    0.476518 0.207843 0.194766 0.124219
C23   C     C_2   0.791855 0.276704 0.280217 -0.131494
C24   C     C_2   0.638528 0.314719 0.318394 -0.302964
H19   H     H_    0.935914 0.295959 0.299922 0.135589
H20   H     H_    0.493346 0.296208 0.300470 0.129327
O11   O     O_R   0.770850 0.076180 0.907410 -0.523084
O12   O     O_R   0.440600 0.088970 0.079950 -0.555620
O13   O     O_R   0.270430 0.912340 0.080550 -0.561002
C25   C     C_R   0.609168 0.111263 0.108292 0.736527
O14   O     O_R   0.441120 0.087010 0.907980 -0.519752
O15   O     O_R   0.270950 0.910370 0.907350 -0.515161
C26   C     C_R   0.611374 0.110783 0.881640 0.813263
O16   O     O_R   0.770320 0.078150 0.080620 -0.539713
O17   O     O_3   0.604200 0.936340 0.994000 -0.376389
V3    V     V_3+5 0.329300 0.004970 0.993950 1.483778
O18   O     O_R   0.941240 0.899420 0.907920 -0.545260
C27   C     C_R   0.110285 0.877739 0.878762 0.748437
O19   O     O_R   0.940720 0.901380 0.079890 -0.520167
C28   C     C_R   0.109038 0.879483 0.108075 0.753624
V4    V     V_3+5 0.829310 0.983370 0.993880 1.493916
O20   O     O_3   0.104280 0.052120 0.993920 -0.367484
O21   O     O_3   0.398819 0.889666 0.748027 -0.565258
C29   C     C_3   0.482436 0.946004 0.687048 -0.242252
H21   H     H_    0.425666 0.016086 0.693061 0.162750
H22   H     H_    0.460616 0.920045 0.622981 0.134165
H23   H     H_    0.639670 0.949942 0.698021 0.179073
O22   O     O_3   0.824374 0.745548 0.145261 -0.545865
C30   C     C_3   0.656598 0.778909 0.184407 -0.198495
H24   H     H_    0.676828 0.849521 0.208180 0.118051
H25   H     H_    0.608271 0.733643 0.234908 0.107838
H26   H     H_    0.539956 0.780409 0.137871 0.166510
C31   C     C_2   0.947155 0.236279 0.854539 0.800192
O23   O     O_2   0.111085 0.239223 0.826407 -0.576920
O24   O     O_R   0.917136 0.242437 0.940039 -0.660212
H27   H     H_    0.042197 0.247148 0.972001 0.289575
C32   C     C_2   0.080149 0.932817 0.698446 0.634253
O25   O     O_2   0.994242 0.928499 0.632648 -0.588045
O26   O     O_R   0.058802 0.009746 0.749101 -0.657830
H28   H     H_    0.968457 0.056162 0.724803 0.293679

loop_
_geom_bond_atom_site_label_1
_geom_bond_atom_site_label_2
_ccdc_geom_bond_type
C8    C12   S    
C32   O25   D    
O21   C29   S    
O2    C1    A    
C13   C14   D    
C1    O6    A    
C18   C26   S    
C1    C20   S    
C23   C24   D    
C8    H7    S    
C29   H22   S    
C5    C9    S    
C13   H11   S    
C7    C9    S    
O13   V3    S    
O5    C3    A    
O12   C25   A    
V2    O10   S    
C5    C6    S    
O19   V4    S    
O16   V4    S    
O14   C26   A    
O8    V2    S    
O14   V3    S    
O12   V3    S    
V3    O20   S    
C31   O23   D    
C21   H17   S    
C29   H23   S    
C7    H10   S    
C22   H18   S    
H5    C7    S    
C12   H9    S    
O1    V2    S    
C3    C14   S    
O7    V1    S    
C19   H15   S    
O9    C4    A    
O11   C26   A    
C24   H20   S    
C6    C10   S    
C23   H19   S    
C20   H16   S    
C29   H21   S    
O15   V3    S    
O18   C27   A    
C15   O22   S    
O26   H28   S    
C15   C16   D    
O4    C2    A    
C11   O21   S    
O22   C30   S    
C8    C9    S    
O24   H27   S    
O11   V4    S    
C17   C19   S    
C13   C15   S    
C18   H14   S    
C10   C11   S    
C10   C27   S    
C12   H8    S    
C5    H1    S    
C4    C9    S    
O3    C4    A    
C16   C28   S    
C16   H13   S    
C31   O24   S    
C6    H4    S    
O17   V3    S    
O6    V2    S    
C32   O26   S    
C17   C18   D    
O2    V1    S    
C30   H25   S    
O1    C2    A    
C17   C31   S    
O5    V1    S    
C30   H26   S    
O8    C3    A    
C8    H6    S    
O15   C27   A    
C25   O16   A    
C22   C25   S    
O9    V2    S    
O7    V2    S    
O4    V1    S    
C10   C12   S    
O3    V1    S    
O17   V4    S    
C21   C23   S    
C14   H12   S    
C5    H2    S    
O18   V4    S    
O19   C28   A    
C7    C11   S    
O13   C28   A    
C30   H24   S    
C19   C20   D    
V4    O20   S    
C6    H3    S    
C21   C22   D    
V1    O10   S    
C2    C24   S    
C11   C32   S    
