data_mof_unit_68290.cif
_audit_creation_date              2013-03-05T15:40:59-0500
_audit_creation_method            fapswitch 2.2
_symmetry_space_group_name_H-M    P1
_symmetry_Int_Tables_number       1
_space_group_crystal_system       triclinic
_cell_length_a                    10.817016
_cell_length_b                    8.740159
_cell_length_c                    7.477437
_cell_angle_alpha                 102.295329
_cell_angle_beta                  93.642674
_cell_angle_gamma                 92.539497
_cell_volume                      688.11095633

loop_
_atom_site_label
_atom_site_type_symbol
_atom_site_description
_atom_site_fract_x
_atom_site_fract_y
_atom_site_fract_z
_atom_type_partial_charge
O1    O     O_R   0.509140 0.286130 0.619770 -0.577657
O2    O     O_R   0.485380 0.256770 0.308360 -0.502064
C1    C     C_R   0.493573 0.200395 0.454004 0.817679
O3    O     O_R   0.329570 0.514650 0.655700 -0.528413
O4    O     O_R   0.305810 0.485300 0.344290 -0.585931
C2    C     C_R   0.259714 0.500523 0.504160 0.899631
Cu1   Cu    Cu3+1 0.514070 0.517380 0.684380 1.120085
Cu2   Cu    Cu3+1 0.485930 0.482620 0.315620 1.144627
O5    O     O_R   0.514620 0.743230 0.691640 -0.546972
O6    O     O_R   0.490860 0.713870 0.380230 -0.583323
O7    O     O_R   0.694190 0.514700 0.655710 -0.591414
O8    O     O_R   0.670430 0.485350 0.344300 -0.571931
C3    C     C_R   0.507157 0.799285 0.544350 0.971329
C4    C     C_R   0.738451 0.491468 0.495771 0.826290
C5    C     C_3   0.070258 0.422633 0.673350 -0.137597
C6    C     C_3   0.925770 0.397772 0.637244 -0.453366
H1    H     H_    0.895953 0.272016 0.590228 0.245659
H2    H     H_    0.880152 0.428310 0.767895 0.242174
H3    H     H_    0.911874 0.700488 0.699186 0.220265
C7    C     C_3   0.073181 0.669922 0.531438 -0.320501
C8    C     C_3   0.061198 0.399361 0.323139 -0.384001
C9    C     C_3   0.120558 0.498954 0.512910 -0.174910
H4    H     H_    0.100234 0.439511 0.206506 0.211363
H5    H     H_    0.083666 0.274763 0.305855 0.270774
C10   C     C_3   0.874985 0.490141 0.492957 -0.143880
C11   C     C_3   0.930343 0.663304 0.552190 0.083071
C12   C     C_3   0.919952 0.413407 0.302187 0.141031
H6    H     H_    0.902089 0.493333 0.207811 0.199089
H7    H     H_    0.090616 0.706753 0.401213 0.215075
C13   C     C_2   0.475188 0.033622 0.428710 0.168619
C14   C     C_2   0.517097 0.965661 0.562834 -0.355863
H8    H     H_    0.568134 0.032801 0.685004 0.222379
N1    N     N_2   0.464720 0.456420 0.038520 0.029278
N2    N     N_2   0.535280 0.543580 0.961480 -0.169413
H9    H     H_    0.565334 0.649469 0.045765 0.240193
C15   C     C_2   0.103896 0.527768 0.865326 0.824726
O9    O     O_2   0.026705 0.606589 0.949128 -0.562274
O10   O     O_R   0.223128 0.532131 0.949266 -0.706619
H10   H     H_    0.234927 0.610827 0.070634 0.370800
N3    N     N_R   0.868146 0.772544 0.455970 0.123422
O11   O     O_R   0.809267 0.885981 0.549212 -0.325750
O12   O     O_R   0.879292 0.766863 0.282494 -0.286823
N4    N     N_R   0.404977 0.948190 0.265290 0.150922
O13   O     O_R   0.445889 0.945692 0.104903 -0.294752
O14   O     O_R   0.294469 0.887288 0.275994 -0.350440
N5    N     N_R   0.454400 0.300308 0.950460 0.295388
O15   O     O_R   0.551128 0.218455 0.958226 -0.288826
O16   O     O_R   0.345488 0.227255 0.925017 -0.314889
C16   C     C_2   0.119758 0.262632 0.677625 0.931327
O17   O     O_2   0.084564 0.191967 0.791657 -0.486943
O18   O     O_R   0.203660 0.194963 0.553853 -0.763788
H11   H     H_    0.227177 0.088393 0.572003 0.368763
C17   C     C_2   0.141524 0.796214 0.682188 0.905133
O19   O     O_2   0.086743 0.872123 0.806478 -0.444435
O20   O     O_R   0.267574 0.830265 0.675480 -0.773014
H12   H     H_    0.302756 0.915290 0.783166 0.386699
N6    N     N_R   0.855822 0.261324 0.214902 0.150539
O21   O     O_R   0.868164 0.137913 0.284233 -0.276672
O22   O     O_R   0.802883 0.243120 0.050080 -0.273866

loop_
_geom_bond_atom_site_label_1
_geom_bond_atom_site_label_2
_geom_bond_distance
_ccdc_geom_bond_type
C1    C13   1.432511 S    
N4    O13   1.300673 A    
C17   O19   1.223618 D    
C10   C12   1.559105 S    
C14   H8    1.078217 S    
Cu2   O8    1.992172 S    
O20   H12   1.013213 S    
C15   O10   1.393344 S    
N1    N2    1.298449 D    
C8    C12   1.538948 S    
Cu1   Cu2   2.704896 S    
C6    H2    1.109513 S    
C8    C9    1.578663 S    
C5    C16   1.525308 S    
Cu1   O7    1.974234 S    
N1    N5    1.379227 S    
N4    O14   1.300981 A    
C11   N3    1.473046 S    
N6    O21   1.300830 A    
C13   C14   1.335648 D    
C7    C11   1.562397 S    
O3    Cu1   1.992173 S    
C7    C17   1.525590 S    
N3    O12   1.301000 A    
N3    O11   1.301040 A    
Cu1   N2    2.032514 S    
O8    C4    1.300724 A    
O2    C1    1.287166 A    
C7    H7    1.113028 S    
C17   O20   1.388987 S    
C4    C10   1.478906 S    
O4    C2    1.307374 A    
O7    C4    1.295629 A    
N5    O16   1.298047 A    
C13   N4    1.439013 S    
N6    O22   1.300340 A    
O4    Cu2   1.974234 S    
C6    H1    1.106937 S    
O3    C2    1.301370 A    
C5    C6    1.566570 S    
C2    C9    1.510405 S    
Cu1   O5    1.962855 S    
C5    C15   1.542599 S    
C12   H6    1.108122 S    
O10   H10   1.012242 S    
Cu2   O6    1.972978 S    
N2    H9    1.028736 S    
C12   N6    1.471498 S    
C8    H5    1.108693 S    
C6    C10   1.566045 S    
C16   O17   1.223977 D    
H3    C11   1.111392 S    
O5    C3    1.296744 A    
N5    O15   1.298548 A    
C15   O9    1.223943 D    
O1    C1    1.301135 A    
C10   C11   1.563915 S    
O1    Cu1   1.972978 S    
C8    H4    1.107264 S    
C3    C14   1.429638 S    
C5    C9    1.603702 S    
O2    Cu2   1.962856 S    
O18   H11   1.010523 S    
C7    C9    1.582221 S    
Cu2   N1    2.032513 S    
C16   O18   1.396856 S    
O6    C3    1.290376 A    
