data_mof_unit_39285.cif
_audit_creation_date              2012-12-10T21:26:45-0500
_audit_creation_method            fapswitch 2.2
_symmetry_space_group_name_H-M    P1
_symmetry_Int_Tables_number       1
_space_group_crystal_system       triclinic
_cell_length_a                    10.667618
_cell_length_b                    16.125406
_cell_length_c                    16.867539
_cell_angle_alpha                 87.360926
_cell_angle_beta                  90.885802
_cell_angle_gamma                 92.593093
_cell_volume                      2895.24305403

loop_
_atom_site_label
_atom_site_type_symbol
_atom_type_description
_atom_site_fract_x
_atom_site_fract_y
_atom_site_fract_z
_atom_type_partial_charge
C1    C     C_R   0.498835 0.488669 0.652774 0.917972
C2    C     C_R   0.521303 0.519773 0.261695 -0.359695
C3    C     C_R   0.482380 0.591061 0.217724 0.314733
C4    C     C_R   0.737893 0.499810 0.502715 0.885654
C5    C     C_R   0.498525 0.596769 0.135483 0.390337
C6    C     C_R   0.436149 0.762211 0.462986 -0.097424
C7    C     C_R   0.438160 0.849602 0.464926 0.304154
C8    C     C_R   0.526344 0.890567 0.515555 0.129090
C9    C     C_R   0.605907 0.841806 0.563745 0.316697
C10   C     C_R   0.600201 0.754689 0.558516 -0.163682
C11   C     C_R   0.569658 0.152389 0.534961 0.119392
C12   C     C_R   0.451115 0.540285 0.784373 0.189845
C13   C     C_R   0.562962 0.239205 0.539209 -0.168249
C14   C     C_R   0.491191 0.110080 0.479364 0.251161
C15   C     C_R   0.409662 0.244013 0.436194 0.374465
C16   C     C_R   0.503653 0.511474 0.347114 0.940164
C17   C     C_R   0.413282 0.157606 0.429557 -0.393125
C18   C     C_R   0.262610 0.500686 0.493484 0.973305
C19   C     C_2   0.067952 0.570801 0.470314 0.425288
C20   C     C_2   0.133402 0.502035 0.470663 -0.418610
C21   C     C_2   0.932413 0.558629 0.457172 0.242192
C22   C     C_2   0.872039 0.501927 0.505834 0.144144
C23   C     C_R   0.465729 0.534015 0.865984 -0.326495
C24   C     C_R   0.503922 0.480656 0.738591 -0.115749
C25   C     C_3   0.057423 0.690913 0.540832 0.136726
C26   C     C_3   0.148954 0.724728 0.602765 -0.851349
C27   C     C_3   0.348059 0.654764 0.055038 0.112795
C28   C     C_3   0.328317 0.724618 0.993070 -0.826452
C29   C     C_3   0.446701 0.685977 0.746244 -0.767332
C30   C     C_3   0.776129 0.098731 0.547328 -0.709910
C31   C     C_3   0.675976 0.858960 0.691148 0.107949
C32   C     C_3   0.750552 0.919836 0.741817 -0.812109
C33   C     C_3   0.198235 0.279927 0.402710 -0.814374
C34   C     C_R   0.534847 0.470272 0.902675 0.218789
C35   C     C_3   0.236226 0.884816 0.440089 0.077079
C36   C     C_3   0.154262 0.941322 0.389098 -0.802657
C37   C     C_3   0.938793 0.635811 0.336657 0.066625
C38   C     C_3   0.852636 0.664430 0.269077 -0.777389
C39   C     C_3   0.893936 0.379353 0.582146 0.101842
C40   C     C_3   0.991734 0.333778 0.631637 -0.834279
C41   C     C_3   0.754453 0.408912 0.290458 0.135076
C42   C     C_3   0.804113 0.335461 0.339257 -0.821443
C43   C     C_3   0.619056 0.266546 0.866478 0.090214
C44   C     C_3   0.654011 0.199551 0.928261 -0.799635
C45   C     C_R   0.580245 0.407347 0.858044 0.494339
C46   C     C_3   0.305830 0.647132 0.265490 0.116476
C47   C     C_3   0.246812 0.730954 0.251653 -0.801817
C48   C     C_R   0.566832 0.414225 0.775068 -0.417061
C49   C     C_R   0.599015 0.463926 0.142461 -0.334615
C50   C     C_R   0.584501 0.457822 0.223919 0.386669
C51   C     C_R   0.554479 0.532262 0.097877 0.072458
H1    H     H_    0.423881 0.579906 0.900659 0.178025
H2    H     H_    0.010644 0.743477 0.509595 0.152567
H3    H     H_    0.225311 0.763544 0.574061 0.235421
H4    H     H_    0.098910 0.762966 0.644132 0.207785
H5    H     H_    0.190982 0.672277 0.637070 0.275394
H6    H     H_    0.271623 0.655237 0.098613 0.138758
H7    H     H_    0.339120 0.594670 0.025206 0.122996
H8    H     H_    0.404864 0.727041 0.949085 0.252998
H9    H     H_    0.237075 0.713912 0.961769 0.203120
H10   H     H_    0.328056 0.785055 0.022091 0.261424
H11   H     H_    0.292672 0.608048 0.772706 0.218556
H12   H     H_    0.623147 0.272278 0.580484 0.133460
H13   H     H_    0.458887 0.709194 0.806976 0.220591
H14   H     H_    0.392064 0.730943 0.709669 0.228357
H15   H     H_    0.540346 0.682055 0.719269 0.245367
H16   H     H_    0.669192 0.134621 0.639802 0.204701
H17   H     H_    0.825190 0.159981 0.533948 0.204887
H18   H     H_    0.761739 0.065313 0.491527 0.260077
H19   H     H_    0.836195 0.061150 0.588062 0.249780
H20   H     H_    0.709206 0.795623 0.705696 0.131828
H21   H     H_    0.575001 0.861424 0.706861 0.133830
H22   H     H_    0.718731 0.983812 0.729198 0.255887
H23   H     H_    0.664566 0.717000 0.592861 0.149053
H24   H     H_    0.736293 0.902719 0.805670 0.206845
H25   H     H_    0.852104 0.918335 0.728648 0.251594
H26   H     H_    0.347511 0.283531 0.325932 0.229687
H27   H     H_    0.144648 0.324710 0.365217 0.229112
H28   H     H_    0.181370 0.291334 0.466038 0.257509
H29   H     H_    0.163389 0.215875 0.389873 0.225785
H30   H     H_    0.229166 0.902498 0.502945 0.142800
H31   H     H_    0.199137 0.819797 0.434123 0.158175
H32   H     H_    0.158516 0.925072 0.325942 0.257774
H33   H     H_    0.055453 0.933712 0.408935 0.209956
H34   H     H_    0.354194 0.127228 0.385782 0.175358
H35   H     H_    0.187021 0.007182 0.394581 0.252320
H36   H     H_    0.997348 0.586445 0.314452 0.112151
H37   H     H_    0.999424 0.689845 0.354430 0.180778
H38   H     H_    0.793218 0.714215 0.288776 0.279703
H39   H     H_    0.909376 0.688970 0.217851 0.199740
H40   H     H_    0.791070 0.611455 0.249887 0.239709
H41   H     H_    0.881058 0.347252 0.525221 0.142394
H42   H     H_    0.804755 0.375727 0.615676 0.155054
H43   H     H_    0.005601 0.362832 0.689746 0.265745
H44   H     H_    0.959917 0.267701 0.642132 0.201880
H45   H     H_    0.087705 0.442885 0.455889 0.124275
H46   H     H_    0.082433 0.336489 0.599937 0.257913
H47   H     H_    0.759066 0.463851 0.328219 0.150924
H48   H     H_    0.816329 0.421735 0.238292 0.127037
H49   H     H_    0.900015 0.351550 0.361948 0.183869
H50   H     H_    0.741963 0.319324 0.390406 0.272705
H51   H     H_    0.807853 0.280702 0.301923 0.255292
H52   H     H_    0.675316 0.258674 0.812615 0.139042
H53   H     H_    0.517092 0.257116 0.852118 0.135648
H54   H     H_    0.599038 0.205224 0.982989 0.259834
H55   H     H_    0.633240 0.137185 0.904623 0.201457
H56   H     H_    0.371483 0.730125 0.423791 0.182282
H57   H     H_    0.755687 0.205965 0.943122 0.259221
H58   H     H_    0.286782 0.623999 0.327367 0.153243
H59   H     H_    0.258673 0.601993 0.225252 0.073838
H60   H     H_    0.275311 0.759890 0.193355 0.273137
H61   H     H_    0.143216 0.722971 0.252054 0.183505
H62   H     H_    0.277745 0.773499 0.298629 0.270110
H63   H     H_    0.645017 0.414851 0.114051 0.215039
H64   H     H_    0.609251 0.369993 0.738536 0.157685
H65   H     H_    0.984664 0.651897 0.573803 0.152106
N1    N     N_2   0.551982 0.465781 0.985644 -0.140164
N2    N     N_2   0.556418 0.535609 0.014442 -0.138155
N3    N     N_R   0.515110 0.716920 0.509720 -0.116980
N4    N     N_2   0.534106 0.978842 0.524571 -0.095865
N5    N     N_2   0.485905 0.021916 0.469764 -0.094451
N6    N     N_R   0.484890 0.283060 0.490290 -0.105763
N7    N     N_2   0.380813 0.605475 0.748869 -0.281687
N8    N     N_2   0.657285 0.110029 0.584641 -0.281395
N9    N     N_2   0.330399 0.291173 0.385111 -0.250456
O1    O     O_R   0.494590 0.422540 0.612660 -0.636922
O2    O     O_3   0.466362 0.668138 0.092534 -0.558225
O3    O     O_3   0.696341 0.881215 0.610284 -0.584678
O4    O     O_3   0.361191 0.894373 0.413718 -0.578916
O5    O     O_3   0.864761 0.606046 0.401295 -0.617894
O6    O     O_3   0.935731 0.463185 0.569388 -0.645063
O7    O     O_3   0.629811 0.389475 0.265857 -0.572917
O8    O     O_3   0.647497 0.345441 0.897186 -0.600167
O9    O     O_3   0.436967 0.658189 0.254839 -0.542521
O10   O     O_R   0.504290 0.561850 0.618900 -0.597673
O11   O     O_R   0.676080 0.430360 0.496880 -0.668001
O12   O     O_R   0.685780 0.569670 0.503120 -0.578870
O13   O     O_R   0.495710 0.438150 0.381100 -0.564796
O14   O     O_R   0.505410 0.577460 0.387340 -0.577361
O15   O     O_R   0.314220 0.430330 0.496880 -0.616162
O16   O     O_R   0.323920 0.569640 0.503120 -0.564508
O17   O     O_3   0.124808 0.648164 0.484876 -0.628305
Zn1   Zn    Zn3+2 0.493520 0.406980 0.495830 0.950899
Zn2   Zn    Zn3+2 0.506480 0.593020 0.504170 0.997724

loop_
_geom_bond_atom_site_label_1
_geom_bond_atom_site_label_2
_ccdc_geom_bond_type
C15   N6    A    
C22   O6    S    
C10   H23   S    
C41   C42   S    
C39   H41   S    
C37   H37   S    
C35   C36   S    
O15   Zn1   S    
H16   N8    S    
C32   H24   S    
C35   H30   S    
C7    C8    A    
C44   H54   S    
C38   H38   S    
C17   H34   S    
C31   O3    S    
C19   C21   S    
C25   H2    S    
O11   Zn1   S    
O13   Zn1   S    
C11   C14   A    
C33   H27   S    
C28   H8    S    
C36   H32   S    
C47   H61   S    
C42   H51   S    
O1    Zn1   S    
C51   N2    S    
C37   O5    S    
C15   C17   A    
C43   O8    S    
C43   H53   S    
C39   H42   S    
C10   N3    A    
C2    C50   A    
C4    O12   A    
C27   O2    S    
C25   O17   S    
C8    C9    A    
C49   C51   A    
C6    H56   S    
C41   H48   S    
C2    C16   S    
C9    C10   A    
C35   O4    S    
C4    O11   A    
C28   H10   S    
C34   N1    S    
C31   H20   S    
C49   H63   S    
C20   H45   S    
C29   H13   S    
C14   N5    S    
C21   C22   D    
C26   H4    S    
N3    Zn2   S    
C14   C17   A    
N6    Zn1   S    
C26   H3    S    
H11   N7    S    
C30   H19   S    
C35   H31   S    
C44   H57   S    
C9    O3    S    
C24   C48   A    
C1    O1    A    
C27   H6    S    
O16   Zn2   S    
C32   H22   S    
C33   H28   S    
C12   C23   A    
C36   H35   S    
C25   C26   S    
C38   H40   S    
C43   C44   S    
C37   C38   S    
C42   H49   S    
C46   O9    S    
C4    C22   S    
O14   Zn2   S    
C31   C32   S    
C13   H12   S    
C23   C34   A    
C5    O2    S    
C33   N9    S    
C34   C45   A    
C18   O15   A    
C28   H9    S    
C50   O7    S    
C48   H64   S    
C29   H14   S    
C31   H21   S    
O12   Zn2   S    
C30   N8    S    
C19   O17   S    
C46   H59   S    
C25   H65   S    
C16   O14   A    
C40   H44   S    
C42   H50   S    
C6    N3    A    
C40   H46   S    
C30   H18   S    
H26   N9    S    
N4    N5    D    
C8    N4    S    
C45   C48   A    
C47   H62   S    
C12   C24   A    
C46   C47   S    
O10   Zn2   S    
C37   H36   S    
C18   O16   A    
C16   O13   A    
C40   H43   S    
C3    C5    A    
C27   H7    S    
C26   H5    S    
C32   H25   S    
C41   O7    S    
C33   H29   S    
C6    C7    A    
C44   H55   S    
C38   H39   S    
C45   O8    S    
C3    O9    S    
C19   C20   D    
C2    C3    A    
N1    N2    D    
C13   N6    A    
C11   C13   A    
C23   H1    S    
C12   N7    S    
C39   O6    S    
C36   H33   S    
C47   H60   S    
C29   N7    S    
C18   C20   S    
C43   H52   S    
C21   O5    S    
C7    O4    S    
C29   H15   S    
C39   C40   S    
C1    C24   S    
C49   C50   A    
C15   N9    S    
C46   H58   S    
C27   C28   S    
C41   H47   S    
C5    C51   A    
C11   N8    S    
C1    O10   A    
C30   H17   S    
