data_mof_unit_46188.cif
_audit_creation_date              2012-12-10T18:38:59-0500
_audit_creation_method            fapswitch 2.2
_symmetry_space_group_name_H-M    P1
_symmetry_Int_Tables_number       1
_space_group_crystal_system       triclinic
_cell_length_a                    13.888395
_cell_length_b                    15.09787
_cell_length_c                    17.15647
_cell_angle_alpha                 90.640253
_cell_angle_beta                  85.030718
_cell_angle_gamma                 89.756758
_cell_volume                      3583.66287372

loop_
_atom_site_label
_atom_site_type_symbol
_atom_type_description
_atom_site_fract_x
_atom_site_fract_y
_atom_site_fract_z
_atom_type_partial_charge
C1    C     C_R   0.499803 0.670243 0.500155 0.823263
C2    C     C_R   0.500196 0.330088 0.499808 0.796234
C3    C     C_R   0.412440 0.905662 0.526818 0.454244
C4    C     C_R   0.565077 0.097116 0.547965 0.443792
C5    C     C_R   0.412854 0.813517 0.521597 -0.261768
C6    C     C_R   0.567104 0.189376 0.543323 -0.290716
C7    C     C_R   0.499253 0.767071 0.501648 -0.105804
C8    C     C_R   0.500531 0.233942 0.501037 -0.084266
C9    C     C_R   0.585287 0.813699 0.484119 -0.209154
C10   C     C_R   0.433483 0.186399 0.461144 -0.215434
C11   C     C_R   0.584733 0.905677 0.485650 -0.162719
C12   C     C_R   0.434065 0.094439 0.462425 -0.177015
C13   C     C_R   0.498739 0.952258 0.506647 0.019485
C14   C     C_R   0.499640 0.049314 0.505631 0.009100
C15   C     C_R   0.900486 0.471878 0.434322 0.251664
C16   C     C_R   0.104235 0.574325 0.525978 0.234518
C17   C     C_R   0.798570 0.465409 0.437626 0.494153
C18   C     C_R   0.205118 0.568711 0.534440 0.527436
C19   C     C_R   0.783373 0.532214 0.563368 -0.175455
C20   C     C_R   0.212764 0.428675 0.471203 -0.187248
C21   C     C_R   0.884644 0.528602 0.567280 0.412110
C22   C     C_R   0.110957 0.423994 0.476347 0.379200
C23   C     C_R   0.486850 0.501031 0.650283 0.839674
C24   C     C_R   0.513123 0.496512 0.349682 0.834154
C25   C     C_R   0.945442 0.500101 0.501151 -0.070641
C26   C     C_R   0.054591 0.499055 0.501741 -0.078559
C27   C     C_R   0.479581 0.506261 0.735449 -0.150418
C28   C     C_R   0.519835 0.483153 0.264830 -0.153212
C29   C     C_R   0.549624 0.553480 0.772489 -0.295247
C30   C     C_R   0.442435 0.443038 0.231121 -0.294643
C31   C     C_R   0.545928 0.557921 0.854228 0.458613
C32   C     C_R   0.443624 0.432993 0.149926 0.452569
C33   C     C_R   0.468777 0.517273 0.898280 -0.122390
C34   C     C_R   0.525852 0.459899 0.102949 -0.095146
C35   C     C_R   0.399198 0.468425 0.861597 0.440348
C36   C     C_R   0.606562 0.496036 0.135831 0.461582
C37   C     C_R   0.404397 0.464108 0.779895 -0.284498
C38   C     C_R   0.602100 0.508615 0.217697 -0.290264
C39   C     C_2   0.467287 0.517621 0.984478 0.514575
C40   C     C_2   0.523602 0.457631 0.016917 0.486160
Cu1   Cu    Cu3+1 0.403570 0.500010 0.500000 0.960563
Cu2   Cu    Cu3+1 0.596430 0.499990 0.500000 0.958592
H1    H     H_    0.606175 0.587925 0.737721 0.158251
H2    H     H_    0.381179 0.419214 0.268186 0.165472
H3    H     H_    0.738491 0.559661 0.612404 0.178646
H4    H     H_    0.254771 0.372996 0.446765 0.182683
H5    H     H_    0.660605 0.540478 0.244736 0.177563
H6    H     H_    0.351050 0.426417 0.751454 0.155788
H7    H     H_    0.345785 0.778576 0.535160 0.196229
H8    H     H_    0.618682 0.226161 0.574624 0.152775
H9    H     H_    0.652714 0.779168 0.467954 0.166661
H10   H     H_    0.382011 0.220370 0.427874 0.152202
H11   H     H_    0.651340 0.940663 0.469594 0.173284
H12   H     H_    0.383496 0.058349 0.429537 0.176505
N1    N     N_R   0.741310 0.499980 0.500000 -0.249541
N2    N     N_R   0.258690 0.500020 0.500000 -0.246921
O1    O     O_R   0.418570 0.628550 0.499990 -0.528179
O2    O     O_R   0.581430 0.371450 0.500010 -0.579709
O3    O     O_R   0.581440 0.628540 0.499990 -0.585326
O4    O     O_R   0.418560 0.371460 0.500010 -0.595141
O5    O     O_R   0.409120 0.500020 0.613600 -0.566831
O6    O     O_R   0.590880 0.499980 0.386400 -0.528768
O7    O     O_R   0.571990 0.500010 0.613600 -0.595186
O8    O     O_R   0.428010 0.499990 0.386400 -0.587581
O9    O     O_3   0.954502 0.445169 0.366370 -0.562838
C41   C     C_3   0.998937 0.518830 0.327832 0.108116
H13   H     H_    0.074862 0.500013 0.308780 0.156506
H14   H     H_    0.002132 0.579581 0.365135 0.098414
C42   C     C_3   0.946528 0.540691 0.255778 -0.358532
H15   H     H_    0.943964 0.480617 0.217976 0.226086
H16   H     H_    0.871264 0.561667 0.274772 0.221509
C43   C     C_3   0.997439 0.614779 0.208758 -0.952484
H17   H     H_    0.999216 0.676014 0.245108 0.258252
H18   H     H_    0.957996 0.629222 0.156745 0.257931
H19   H     H_    0.072557 0.594579 0.188474 0.256191
O10   O     O_3   0.054544 0.652960 0.541913 -0.567864
C44   C     C_3   0.075026 0.713010 0.479814 0.060948
H20   H     H_    0.009855 0.718266 0.446818 0.145430
H21   H     H_    0.136931 0.692948 0.437100 0.114517
C45   C     C_3   0.096856 0.804105 0.513697 -0.322205
H22   H     H_    0.034886 0.826454 0.554641 0.222339
H23   H     H_    0.161907 0.799343 0.546713 0.225835
C46   C     C_3   0.115618 0.872549 0.449484 -0.877047
H24   H     H_    0.179155 0.852593 0.409212 0.259692
H25   H     H_    0.130833 0.937756 0.476253 0.273773
H26   H     H_    0.051320 0.879453 0.415727 0.243424
O11   O     O_3   0.756440 0.428914 0.374864 -0.581995
C47   C     C_3   0.764011 0.335608 0.377224 0.100818
H27   H     H_    0.745294 0.309863 0.437346 0.136620
H28   H     H_    0.838850 0.314171 0.357047 0.180361
C48   C     C_3   0.694487 0.295247 0.322398 -0.325507
H29   H     H_    0.619555 0.317688 0.340660 0.224418
H30   H     H_    0.713894 0.318267 0.261752 0.211214
C49   C     C_3   0.697773 0.194238 0.323445 -0.928187
H31   H     H_    0.771578 0.169926 0.303744 0.256788
H32   H     H_    0.646273 0.167226 0.283340 0.259237
H33   H     H_    0.676914 0.169799 0.383335 0.268400
O12   O     O_3   0.251978 0.633045 0.575125 -0.597231
C50   C     C_3   0.208638 0.648756 0.652319 0.051954
H34   H     H_    0.260759 0.689241 0.682794 0.154138
H35   H     H_    0.142609 0.690204 0.652165 0.186526
C51   C     C_3   0.187096 0.564211 0.700289 -0.375585
H36   H     H_    0.121744 0.531222 0.681109 0.220937
H37   H     H_    0.248190 0.517262 0.690477 0.239032
C52   C     C_3   0.169934 0.585136 0.787619 -0.886587
H38   H     H_    0.235643 0.614868 0.809513 0.254336
H39   H     H_    0.153098 0.523100 0.820087 0.268974
H40   H     H_    0.108132 0.631823 0.798845 0.254842
O13   O     O_3   0.924195 0.557506 0.634267 -0.524872
C53   C     C_3   0.906377 0.493752 0.693125 -0.370530
H41   H     H_    0.937601 0.428163 0.674173 0.148438
H42   H     H_    0.827816 0.487664 0.711112 0.152836
H43   H     H_    0.942102 0.515424 0.745436 0.195419
O14   O     O_3   0.067992 0.347173 0.452488 -0.528243
C54   C     C_3   0.050079 0.292484 0.518102 -0.323632
H44   H     H_    0.998680 0.324473 0.563355 0.144009
H45   H     H_    0.118422 0.274170 0.543551 0.153788
H46   H     H_    0.016239 0.230368 0.499078 0.188949
O15   O     O_3   0.583993 0.402317 0.968248 -0.612221
C55   C     C_3   0.607958 0.323846 0.006196 -0.349748
H47   H     H_    0.542427 0.290379 0.033596 0.170997
H48   H     H_    0.660452 0.337366 0.050137 0.183948
H49   H     H_    0.643259 0.277445 0.961851 0.190640
O16   O     O_3   0.410975 0.576342 0.033285 -0.601197
C56   C     C_3   0.361632 0.639590 0.991538 -0.305161
H50   H     H_    0.307106 0.607456 0.956960 0.183997
H51   H     H_    0.412941 0.680047 0.953573 0.178678
H52   H     H_    0.322149 0.685344 0.034223 0.184140
O17   O     O_3   0.323631 0.429103 0.906130 -0.578855
C57   C     C_3   0.338451 0.336636 0.905111 -0.285033
H53   H     H_    0.410262 0.318798 0.924839 0.182160
H54   H     H_    0.330380 0.307808 0.846124 0.141287
H55   H     H_    0.282597 0.306344 0.946516 0.193314
O18   O     O_3   0.682877 0.525937 0.084958 -0.548702
C58   C     C_3   0.773172 0.513951 0.115192 -0.326697
H56   H     H_    0.778765 0.449234 0.145142 0.148870
H57   H     H_    0.787554 0.570035 0.154763 0.175101
H58   H     H_    0.830282 0.514652 0.065831 0.187670
O19   O     O_3   0.368679 0.392284 0.114589 -0.586859
C59   C     C_3   0.278280 0.429544 0.141680 -0.249594
H59   H     H_    0.281141 0.502940 0.148740 0.181210
H60   H     H_    0.249948 0.398389 0.197298 0.146491
H61   H     H_    0.226208 0.415185 0.097735 0.195259
O20   O     O_3   0.612733 0.606257 0.892613 -0.567095
C60   C     C_3   0.707520 0.576148 0.869816 -0.232812
H62   H     H_    0.734891 0.605355 0.813083 0.142042
H63   H     H_    0.712719 0.502473 0.866828 0.178089
H64   H     H_    0.755590 0.598902 0.914300 0.201664
O21   O     O_3   0.326115 0.949298 0.548046 -0.630996
C61   C     C_3   0.322637 0.976009 0.627636 0.066587
H65   H     H_    0.274318 0.034868 0.635188 0.166346
H66   H     H_    0.394127 0.997354 0.646061 0.116290
C62   C     C_3   0.280587 0.902423 0.681037 -0.374711
H67   H     H_    0.208892 0.882500 0.662799 0.218588
H68   H     H_    0.329396 0.843826 0.676042 0.207862
C63   C     C_3   0.268988 0.932961 0.766397 -0.923213
H69   H     H_    0.340164 0.952050 0.786222 0.253414
H70   H     H_    0.238973 0.878109 0.803487 0.255796
H71   H     H_    0.218708 0.990448 0.773700 0.254670
O22   O     O_3   0.627847 0.053412 0.592978 -0.622782
C64   C     C_3   0.597526 0.064640 0.673556 0.044656
H72   H     H_    0.581644 0.998061 0.698347 0.162434
H73   H     H_    0.530364 0.105382 0.686114 0.115317
C65   C     C_3   0.679255 0.106349 0.715447 -0.319622
H74   H     H_    0.744277 0.062901 0.707702 0.226654
H75   H     H_    0.698076 0.171686 0.689296 0.208820
C66   C     C_3   0.650228 0.119400 0.802699 -0.933963
H76   H     H_    0.586838 0.164636 0.811805 0.255010
H77   H     H_    0.711262 0.149142 0.831387 0.254622
H78   H     H_    0.632023 0.054775 0.830435 0.258680

loop_
_geom_bond_atom_site_label_1
_geom_bond_atom_site_label_2
_ccdc_geom_bond_type
C58   H58   S    
C41   H14   S    
O11   C47   S    
C27   C29   A    
Cu1   Cu2   S    
C59   H59   S    
C9    H9    S    
C59   H61   S    
Cu1   O5    S    
C20   N2    A    
C10   H10   S    
Cu2   O2    S    
C60   H62   S    
C58   H56   S    
C66   H77   S    
C44   H20   S    
C55   H47   S    
C52   H39   S    
C33   C39   S    
C34   C40   S    
C65   H74   S    
C35   C37   A    
C59   H60   S    
C42   H15   S    
C43   H19   S    
C51   H37   S    
C2    O4    A    
C15   C25   A    
C41   C42   S    
C54   H44   S    
C15   O9    S    
C51   C52   S    
C15   C17   A    
C31   O20   S    
C42   H16   S    
C53   H41   S    
C21   C25   A    
C60   H63   S    
C63   H70   S    
C50   H34   S    
C54   H45   S    
C61   C62   S    
C50   C51   S    
C56   H52   S    
C31   C33   A    
C23   C27   S    
C62   H68   S    
C17   N1    A    
C11   H11   S    
C55   H49   S    
C18   N2    A    
Cu2   O6    S    
C23   O7    A    
C41   H13   S    
C24   O8    A    
C1    C7    S    
C13   C14   S    
C29   H1    S    
C30   H2    S    
C49   H31   S    
C45   C46   S    
C64   H73   S    
C55   H48   S    
C64   H72   S    
C66   H78   S    
C44   H21   S    
C16   C26   A    
C52   H40   S    
C3    O21   S    
O10   C44   S    
C32   O19   S    
C43   H18   S    
C66   H76   S    
C5    C7    A    
C43   H17   S    
C6    C8    A    
C49   H33   S    
C25   C26   S    
C39   O16   S    
C36   O18   S    
C62   C63   S    
C32   C34   A    
C42   C43   S    
C57   H54   S    
Cu1   N2    S    
C1    O1    A    
Cu2   N1    S    
C48   H30   S    
C46   H24   S    
C47   C48   S    
C28   C38   A    
O19   C59   S    
C54   H46   S    
C40   O15   S    
C19   H3    S    
C16   C18   A    
C6    H8    S    
C37   H6    S    
C49   H32   S    
C9    C11   A    
C53   H43   S    
C38   H5    S    
C10   C12   A    
C4    C6    A    
C50   H35   S    
C1    O3    A    
C47   H28   S    
O12   C50   S    
C56   H50   S    
C61   H66   S    
C57   H55   S    
C20   C22   A    
C48   H29   S    
C64   C65   S    
C60   H64   S    
O17   C57   S    
C44   C45   S    
C19   N1    A    
C58   H57   S    
C35   O17   S    
C63   H69   S    
C24   O6    A    
C19   C21   A    
C16   O10   S    
C65   C66   S    
C2    C8    S    
C24   C28   S    
Cu1   O4    S    
C12   C14   A    
C45   H22   S    
C3    C5    A    
C3    C13   A    
Cu2   O3    S    
C21   O13   S    
O15   C55   S    
C2    O2    A    
O14   C54   S    
O18   C58   S    
C63   H71   S    
C52   H38   S    
C22   O14   S    
C46   H25   S    
O20   C60   S    
O22   C64   S    
C65   H75   S    
C57   H53   S    
Cu1   O1    S    
C28   C30   A    
C29   C31   A    
O21   C61   S    
C48   C49   S    
C30   C32   A    
C11   C13   A    
C4    O22   S    
C27   C37   A    
C12   H12   S    
C36   C38   A    
C33   C35   A    
C45   H23   S    
C34   C36   A    
C4    C14   A    
C51   H36   S    
C53   H42   S    
C5    H7    S    
C17   O11   S    
C39   C40   D    
C7    C9    A    
C23   O5    A    
C46   H26   S    
C47   H27   S    
C8    C10   A    
O9    C41   S    
C22   C26   A    
C56   H51   S    
C61   H65   S    
C18   O12   S    
Cu1   O8    S    
C62   H67   S    
O13   C53   S    
Cu2   O7    S    
C20   H4    S    
O16   C56   S    
