data_mof_unit_42197.cif
_audit_creation_date              2012-12-11T14:44:38-0500
_audit_creation_method            fapswitch 2.2
_symmetry_space_group_name_H-M    P1
_symmetry_Int_Tables_number       1
_space_group_crystal_system       triclinic
_cell_length_a                    19.871657
_cell_length_b                    7.21722
_cell_length_c                    19.828663
_cell_angle_alpha                 90.097033
_cell_angle_beta                  98.273652
_cell_angle_gamma                 90.178837
_cell_volume                      2814.17130217

loop_
_atom_site_label
_atom_site_type_symbol
_atom_type_description
_atom_site_fract_x
_atom_site_fract_y
_atom_site_fract_z
_atom_type_partial_charge
O1    O     O_R   0.673210 0.377390 0.686390 -0.544613
O2    O     O_R   0.326790 0.622610 0.313610 -0.522244
O3    O     O_R   0.826790 0.877390 0.813610 -0.545783
O4    O     O_R   0.173210 0.122610 0.186390 -0.523174
O5    O     O_R   0.810750 0.706450 0.681250 -0.539024
O6    O     O_R   0.189250 0.293550 0.318750 -0.535772
O7    O     O_R   0.689250 0.206450 0.818750 -0.538200
O8    O     O_R   0.310750 0.793550 0.181250 -0.533887
C1    C     C_R   0.831962 0.537630 0.666148 0.728500
C2    C     C_R   0.166767 0.461058 0.332303 0.763381
C3    C     C_R   0.667777 0.037535 0.833477 0.735635
C4    C     C_R   0.333387 0.961580 0.167748 0.758110
O9    O     O_R   0.672750 0.707060 0.678240 -0.514952
O10   O     O_R   0.327250 0.292940 0.321760 -0.516163
O11   O     O_R   0.827250 0.207060 0.821760 -0.517325
O12   O     O_R   0.172750 0.792940 0.178240 -0.513961
O13   O     O_R   0.687800 0.877990 0.810580 -0.517027
O14   O     O_R   0.312200 0.122010 0.189420 -0.522859
O15   O     O_R   0.812200 0.377990 0.689420 -0.518393
O16   O     O_R   0.187800 0.622010 0.310580 -0.527010
C5    C     C_R   0.648437 0.538019 0.661464 0.860080
C6    C     C_R   0.351665 0.462943 0.338642 0.850564
C7    C     C_R   0.851468 0.038410 0.838680 0.861853
C8    C     C_R   0.148374 0.962303 0.161321 0.844545
O17   O     O_3   0.755100 0.544060 0.793420 -0.375589
O18   O     O_3   0.244900 0.455940 0.206580 -0.369839
O19   O     O_3   0.744900 0.044060 0.706580 -0.375627
O20   O     O_3   0.255100 0.955940 0.293420 -0.375982
V1    V     V_3+5 0.749050 0.818670 0.741950 1.548446
V2    V     V_3+5 0.250950 0.181330 0.258050 1.599263
V3    V     V_3+5 0.750950 0.318670 0.758050 1.548483
V4    V     V_3+5 0.249050 0.681330 0.241950 1.605198
C9    C     C_R   0.086379 0.981924 0.109215 -0.242401
C10   C     C_R   0.913619 0.025592 0.890543 -0.252430
C11   C     C_R   0.413326 0.484606 0.391173 -0.251294
C12   C     C_R   0.586042 0.524657 0.609909 -0.251694
C13   C     C_R   0.029762 0.912309 0.920889 0.419721
C14   C     C_R   0.980675 0.151084 0.072502 0.420577
C15   C     C_R   0.471249 0.400936 0.578421 0.417618
C16   C     C_R   0.515904 0.666120 0.430709 0.419766
C17   C     C_R   0.971467 0.938952 0.872306 0.311535
C18   C     C_R   0.034635 0.102718 0.123913 0.316592
C19   C     C_R   0.529753 0.426776 0.626847 0.315862
C20   C     C_R   0.463945 0.612105 0.378068 0.318361
C21   C     C_R   0.914763 0.091110 0.957744 0.218790
C22   C     C_R   0.083248 0.907003 0.042895 0.192668
C23   C     C_R   0.582706 0.604106 0.544573 0.214072
C24   C     C_R   0.416983 0.404764 0.456699 0.184581
C25   C     C_R   0.973901 0.065823 0.007350 -0.155851
C26   C     C_R   0.029052 0.957636 0.990543 -0.174325
C27   C     C_R   0.523995 0.575151 0.494611 -0.157198
C28   C     C_R   0.470742 0.456098 0.509643 -0.174608
C29   C     C_R   0.564286 0.889024 0.873246 0.241581
C30   C     C_R   0.442905 0.094663 0.133606 0.232740
C31   C     C_R   0.935926 0.393615 0.626434 0.238996
C32   C     C_R   0.053443 0.577559 0.361104 0.263001
C33   C     C_R   0.618098 0.020769 0.882753 -0.158606
C34   C     C_R   0.387090 0.969707 0.122446 -0.143136
C35   C     C_R   0.880981 0.520311 0.616065 -0.157107
C36   C     C_R   0.112754 0.468284 0.377128 -0.150627
C37   C     C_R   0.627682 0.128883 0.941800 -0.197516
C38   C     C_R   0.382857 0.844435 0.068295 -0.175018
C39   C     C_R   0.869006 0.618767 0.554928 -0.223754
C40   C     C_R   0.119530 0.354572 0.434396 -0.194848
C41   C     C_R   0.585564 0.108980 0.992475 -0.044831
C42   C     C_R   0.431406 0.842309 0.023507 -0.033060
C43   C     C_R   0.910034 0.594077 0.503266 -0.036500
C44   C     C_R   0.069897 0.349676 0.477871 -0.034498
C45   C     C_R   0.531992 0.977730 0.983996 -0.091625
C46   C     C_R   0.486443 0.968378 0.033072 -0.100012
C47   C     C_R   0.966673 0.475059 0.514351 -0.095355
C48   C     C_R   0.012813 0.467637 0.465757 -0.107297
C49   C     C_R   0.522301 0.861475 0.925255 -0.076097
C50   C     C_R   0.495016 0.087691 0.090858 -0.105082
C51   C     C_R   0.977487 0.364539 0.574291 -0.083185
C52   C     C_R   0.002731 0.579852 0.405985 -0.091123
C53   C     C_R   0.597193 0.217405 0.052147 0.345640
C54   C     C_R   0.425548 0.714682 0.969176 0.380184
C55   C     C_R   0.894994 0.687150 0.440440 0.357342
C56   C     C_R   0.076172 0.224443 0.532760 0.380405
C57   C     C_R   0.555108 0.198038 0.102916 0.416196
C58   C     C_R   0.470855 0.721989 0.921055 0.411224
C59   C     C_R   0.941707 0.685811 0.393023 0.394897
C60   C     C_R   0.029310 0.227506 0.579334 0.419909
H1    H     H_    0.669200 0.227894 0.948405 0.203706
H2    H     H_    0.339447 0.752019 0.059902 0.187786
H3    H     H_    0.826987 0.715325 0.547853 0.201169
H4    H     H_    0.164518 0.268968 0.444964 0.193200
Br1   Br    Br    0.152503 0.729837 0.027116 -0.523982
Br2   Br    Br    0.830668 0.188482 0.981393 -0.587956
Br3   Br    Br    0.349189 0.220065 0.470577 -0.535309
Br4   Br    Br    0.663262 0.730657 0.523811 -0.571252
O21   O     O_3   0.042038 0.189103 0.187391 -0.545480
C61   C     C_3   0.984553 0.159340 0.220529 -0.058447
H5    H     H_    0.955565 0.031100 0.203615 0.133500
H6    H     H_    0.950449 0.281393 0.213504 0.163580
H7    H     H_    0.002044 0.146083 0.276027 0.175199
O22   O     O_3   0.973534 0.899974 0.804319 -0.531622
C62   C     C_3   0.970817 0.706860 0.794322 -0.065676
H8    H     H_    0.927836 0.641442 0.815982 0.116179
H9    H     H_    0.019532 0.639937 0.815398 0.188202
H10   H     H_    0.962612 0.681216 0.738753 0.145971
O23   O     O_3   0.457417 0.699050 0.314897 -0.543988
C63   C     C_3   0.516039 0.671102 0.283362 -0.093448
H11   H     H_    0.539915 0.532941 0.294754 0.151153
H12   H     H_    0.553885 0.782612 0.297716 0.150959
H13   H     H_    0.501114 0.680094 0.227351 0.177966
O24   O     O_3   0.528772 0.378100 0.694114 -0.534889
C64   C     C_3   0.532874 0.184181 0.700436 -0.080959
H14   H     H_    0.576704 0.126204 0.678200 0.122984
H15   H     H_    0.484917 0.115260 0.677655 0.187061
H16   H     H_    0.540590 0.152195 0.755440 0.146449
O25   O     O_3   0.088371 0.851293 0.898092 -0.526357
C65   C     C_3   0.124777 0.007079 0.879749 -0.046127
H17   H     H_    0.139255 0.101369 0.924011 0.126894
H18   H     H_    0.095371 0.084068 0.836697 0.172119
H19   H     H_    0.172427 0.958452 0.862566 0.174806
O26   O     O_3   0.937911 0.293558 0.085376 -0.536320
C66   C     C_3   0.967064 0.463202 0.068773 -0.114493
H20   H     H_    0.973469 0.468245 0.013928 0.140712
H21   H     H_    0.016632 0.489306 0.101389 0.171564
H22   H     H_    0.932303 0.577328 0.078206 0.158706
O27   O     O_3   0.413614 0.330491 0.600715 -0.527004
C67   C     C_3   0.376124 0.479477 0.622410 -0.047785
H23   H     H_    0.360288 0.578334 0.580074 0.127179
H24   H     H_    0.405308 0.553348 0.666615 0.171303
H25   H     H_    0.329229 0.423384 0.639187 0.175429
O28   O     O_3   0.555462 0.818264 0.420131 -0.535253
C68   C     C_3   0.521680 0.979872 0.437172 -0.107398
H26   H     H_    0.513096 0.978312 0.491453 0.145285
H27   H     H_    0.472633 0.998938 0.403024 0.166260
H28   H     H_    0.554203 0.101658 0.430325 0.155994
Br5   Br    Br    0.544549 0.768720 0.784826 -0.543624
Br6   Br    Br    0.443195 0.283988 0.202979 -0.576579
Br7   Br    Br    0.958956 0.285704 0.716344 -0.543568
Br8   Br    Br    0.042970 0.706235 0.274584 -0.581929
O29   O     O_3   0.645792 0.356937 0.058169 -0.546021
C69   C     C_3   0.707555 0.290498 0.093776 -0.154883
H29   H     H_    0.749555 0.376724 0.079518 0.202692
H30   H     H_    0.718319 0.143645 0.081472 0.142895
H31   H     H_    0.708444 0.308391 0.149416 0.146290
O30   O     O_3   0.372704 0.586864 0.959494 -0.524770
C70   C     C_3   0.385978 0.437378 0.005685 -0.168211
H32   H     H_    0.386326 0.306495 0.976295 0.161143
H33   H     H_    0.344064 0.426543 0.036901 0.172179
H34   H     H_    0.434947 0.447342 0.041037 0.118783
O31   O     O_3   0.835813 0.789242 0.425701 -0.539730
C71   C     C_3   0.780955 0.666109 0.405581 -0.175239
H35   H     H_    0.768721 0.581590 0.448882 0.176365
H36   H     H_    0.790945 0.570437 0.364177 0.089474
H37   H     H_    0.735252 0.748569 0.386176 0.194355
O32   O     O_3   0.130602 0.103074 0.543738 -0.524390
C72   C     C_3   0.116900 0.944002 0.502144 -0.165746
H38   H     H_    0.097478 0.830855 0.531991 0.155541
H39   H     H_    0.165387 0.895503 0.486655 0.172827
H40   H     H_    0.080659 0.967408 0.454425 0.116319
O33   O     O_3   0.574955 0.287738 0.164218 -0.522049
C73   C     C_3   0.604302 0.156015 0.212395 -0.189509
H41   H     H_    0.626737 0.230400 0.259331 0.160321
H42   H     H_    0.645635 0.075624 0.193661 0.094411
H43   H     H_    0.565454 0.058250 0.226582 0.158652
O34   O     O_3   0.462385 0.591448 0.869491 -0.504827
C74   C     C_3   0.505525 0.440254 0.889293 -0.043826
H44   H     H_    0.492964 0.374163 0.936351 0.086668
H45   H     H_    0.559999 0.482504 0.896717 0.141251
H46   H     H_    0.498247 0.334403 0.848294 0.174228
O35   O     O_3   0.929810 0.802838 0.337342 -0.526997
C75   C     C_3   0.880744 0.724251 0.286400 -0.129380
H47   H     H_    0.893479 0.763447 0.235707 0.160345
H48   H     H_    0.830036 0.784279 0.289652 0.148030
H49   H     H_    0.878685 0.569719 0.287486 0.098892
O36   O     O_3   0.034672 0.090029 0.628190 -0.503354
C76   C     C_3   0.987194 0.948781 0.605908 -0.064913
H50   H     H_    0.988030 0.908769 0.551815 0.070371
H51   H     H_    0.934806 0.991200 0.612403 0.155692
H52   H     H_    0.000223 0.823755 0.637439 0.164435

loop_
_geom_bond_atom_site_label_1
_geom_bond_atom_site_label_2
_ccdc_geom_bond_type
C34   C38   A    
C70   H34   S    
C55   C59   A    
O1    C5    A    
O33   C73   S    
C32   C52   A    
C31   C35   A    
O19   V1    S    
C18   O21   S    
O13   V1    S    
C23   Br4   S    
O3    C7    A    
O31   C71   S    
C71   H37   S    
C56   C60   A    
O15   V3    S    
O28   C68   S    
C63   H12   S    
C65   H17   S    
O27   C67   S    
C22   Br1   S    
C76   H50   S    
O7    C3    A    
C6    C11   S    
C38   H2    S    
O21   C61   S    
C29   Br5   S    
C9    C18   A    
C40   C44   A    
O9    V1    S    
C74   H45   S    
O7    V3    S    
C71   H36   S    
C14   C18   A    
C54   O30   S    
O16   V4    S    
O4    C8    A    
C31   Br7   S    
C51   C60   A    
C76   H52   S    
C13   O25   S    
C70   H32   S    
C16   O28   S    
C70   H33   S    
O1    V3    S    
C15   O27   S    
O24   C64   S    
C12   C23   A    
O2    V4    S    
C33   C37   A    
O3    V1    S    
O26   C66   S    
C73   H43   S    
C30   C50   A    
C1    O15   A    
C75   H49   S    
C74   H44   S    
C2    O16   A    
C24   Br3   S    
C46   C50   A    
C39   H3    S    
C45   C49   A    
O14   V2    S    
C21   C25   A    
C72   H39   S    
C16   C20   A    
C44   C48   A    
C68   H28   S    
C4    C34   S    
O11   C7    A    
C15   C28   A    
O12   C8    A    
C73   H42   S    
C9    C22   A    
C45   C46   A    
C10   C17   A    
O10   V2    S    
C11   C24   A    
C52   C59   A    
C63   H11   S    
C32   Br8   S    
C20   O23   S    
O5    V1    S    
C76   H51   S    
C42   C54   A    
C39   C43   A    
C57   O33   S    
C38   C42   A    
C27   C28   A    
O8    V4    S    
C74   H46   S    
C41   C53   A    
C71   H35   S    
C64   H16   S    
O35   C75   S    
C5    C12   S    
C29   C33   A    
O18   V4    S    
C15   C19   A    
C58   O34   S    
C61   H7    S    
C59   O35   S    
C32   C36   A    
C1    C35   S    
C2    C36   S    
O5    C1    A    
C11   C20   A    
C54   C58   A    
C65   H18   S    
C62   H8    S    
C53   C57   A    
O8    C4    A    
C7    C10   S    
O9    C5    A    
C48   C52   A    
C10   C21   A    
C72   H40   S    
C61   H6    S    
C21   Br2   S    
C66   H21   S    
C37   H1    S    
C67   H25   S    
C55   O31   S    
C75   H47   S    
O6    V2    S    
O22   C62   S    
C73   H41   S    
O12   V4    S    
C50   C57   A    
C44   C56   A    
C49   C58   A    
C14   C25   A    
O36   C76   S    
C67   H24   S    
O25   C65   S    
C30   C34   A    
C66   H22   S    
C56   O32   S    
C3    O13   A    
C62   H9    S    
O30   C70   S    
O17   V3    S    
C29   C49   A    
C53   O29   S    
C60   O36   S    
C69   H31   S    
O6    C2    A    
C23   C27   A    
C66   H20   S    
O11   V3    S    
C69   H30   S    
O34   C74   S    
C16   C27   A    
O29   C69   S    
C22   C26   A    
C35   C39   A    
C8    C9    S    
C36   C40   A    
O10   C6    A    
O20   V2    S    
C68   H26   S    
C31   C51   A    
C47   C48   A    
C3    C33   S    
O2    C6    A    
C47   C51   A    
C13   C26   A    
C42   C46   A    
C41   C45   A    
C64   H15   S    
C75   H48   S    
C43   C47   A    
C19   O24   S    
C63   H13   S    
C13   C17   A    
C61   H5    S    
C65   H19   S    
C69   H29   S    
C14   O26   S    
C37   C41   A    
C24   C28   A    
C62   H10   S    
O32   C72   S    
C25   C26   A    
C4    O14   A    
O23   C63   S    
C17   O22   S    
C12   C19   A    
C72   H38   S    
C64   H14   S    
C40   H4    S    
C43   C55   A    
O4    V2    S    
C67   H23   S    
C68   H27   S    
C30   Br6   S    
