data_mof_unit_10081.cif
_audit_creation_date              2012-12-10T19:25:54-0500
_audit_creation_method            fapswitch 2.2
_symmetry_space_group_name_H-M    P1
_symmetry_Int_Tables_number       1
_space_group_crystal_system       triclinic
_cell_length_a                    9.747297
_cell_length_b                    10.493843
_cell_length_c                    16.688974
_cell_angle_alpha                 89.913529
_cell_angle_beta                  84.852481
_cell_angle_gamma                 89.565478
_cell_volume                      1700.12442879

loop_
_atom_site_label
_atom_site_type_symbol
_atom_type_description
_atom_site_fract_x
_atom_site_fract_y
_atom_site_fract_z
_atom_type_partial_charge
C1    C     C_R   0.499456 0.742575 0.499881 0.864573
C2    C     C_3   0.575008 0.957218 0.433682 -0.175955
C3    C     C_3   0.943327 0.587206 0.547293 -0.073689
C4    C     C_3   0.056680 0.412777 0.452705 -0.070136
C5    C     C_3   0.051479 0.608555 0.475965 -0.071898
C6    C     C_3   0.948515 0.391431 0.524029 -0.072739
C7    C     C_3   0.037714 0.478615 0.571391 -0.079808
C8    C     C_3   0.962280 0.521361 0.428604 -0.077660
C9    C     C_R   0.480458 0.498755 0.653449 0.868081
C10   C     C_R   0.519467 0.491729 0.347063 0.863470
C11   C     C_R   0.467933 0.483312 0.740544 -0.067641
C12   C     C_R   0.500558 0.257446 0.500000 0.860858
C13   C     C_R   0.531367 0.446105 0.264419 -0.062989
C14   C     C_R   0.587191 0.472904 0.780744 -0.219705
C15   C     C_R   0.421018 0.378927 0.237152 -0.220153
C16   C     C_R   0.577642 0.444120 0.861696 -0.213502
C17   C     C_R   0.431862 0.327597 0.160751 -0.216206
C18   C     C_R   0.448650 0.424835 0.904253 0.175375
C19   C     C_R   0.551783 0.345374 0.109460 0.152896
C20   C     C_R   0.326593 0.439968 0.865157 0.202573
C21   C     C_R   0.668077 0.404034 0.138134 0.214317
C22   C     C_R   0.338082 0.468857 0.782970 -0.253610
C23   C     C_3   0.368914 0.960999 0.499692 -0.143753
C24   C     C_R   0.656234 0.454265 0.216150 -0.240831
C25   C     C_2   0.443719 0.400741 0.990694 -0.224017
C26   C     C_2   0.540907 0.331934 0.023299 -0.243015
C27   C     C_3   0.184157 0.423731 0.908407 -0.442813
C28   C     C_3   0.153831 0.284060 0.928086 -0.866647
C29   C     C_3   0.801613 0.422435 0.085968 -0.441099
C30   C     C_3   0.807692 0.554895 0.048086 -0.868868
C31   C     C_3   0.631102 0.039107 0.500008 -0.140537
C32   C     C_3   0.445775 0.043203 0.433573 -0.181342
C33   C     C_3   0.554249 0.956926 0.566126 -0.182280
C34   C     C_3   0.501706 0.122361 0.499907 0.033509
C35   C     C_3   0.498318 0.877720 0.499809 0.029901
C36   C     C_3   0.425013 0.042880 0.566021 -0.176155
H1    H     H_    0.688574 0.484996 0.749501 0.161536
H2    H     H_    0.365295 0.450485 0.029362 0.162188
H3    H     H_    0.342856 0.281610 0.139354 0.145767
H4    H     H_    0.672050 0.438736 0.891155 0.148132
H5    H     H_    0.401967 0.083367 0.379704 0.130166
H6    H     H_    0.598150 0.916918 0.619998 0.129196
H7    H     H_    0.262051 0.925135 0.499553 0.133720
H8    H     H_    0.737958 0.074994 0.500145 0.133495
H9    H     H_    0.364285 0.082688 0.619815 0.132253
H10   H     H_    0.635771 0.917470 0.379887 0.129549
H11   H     H_    0.099822 0.699910 0.455716 0.114778
H12   H     H_    0.325587 0.366149 0.274755 0.157039
H13   H     H_    0.900156 0.300093 0.544299 0.114724
H14   H     H_    0.163430 0.226274 0.872117 0.259091
H15   H     H_    0.225522 0.245686 0.970332 0.263791
H16   H     H_    0.047034 0.275439 0.956757 0.241546
H17   H     H_    0.172934 0.481796 0.964160 0.195240
H18   H     H_    0.103839 0.459207 0.870438 0.199862
H19   H     H_    0.719276 0.570076 0.011504 0.266112
H20   H     H_    0.805143 0.629172 0.095554 0.256192
H21   H     H_    0.904788 0.564574 0.008425 0.243916
H22   H     H_    0.890196 0.409962 0.122912 0.200757
H23   H     H_    0.890455 0.660547 0.587065 0.114837
H24   H     H_    0.815021 0.349398 0.037902 0.193218
H25   H     H_    0.109581 0.339454 0.412922 0.109540
H26   H     H_    0.074348 0.460523 0.631492 0.112161
H27   H     H_    0.925587 0.539329 0.368497 0.114238
H28   H     H_    0.743404 0.501985 0.238476 0.146914
H29   H     H_    0.245655 0.477085 0.751721 0.148114
H30   H     H_    0.621366 0.282739 0.985959 0.150224
N1    N     N_3   0.136700 0.499970 0.500060 -0.069885
N2    N     N_3   0.863300 0.500030 0.499940 -0.070411
O1    O     O_R   0.383390 0.686040 0.500000 -0.624712
O2    O     O_R   0.616610 0.313960 0.500000 -0.626317
O3    O     O_R   0.616650 0.686050 0.499970 -0.618833
O4    O     O_R   0.383350 0.313950 0.500030 -0.621953
O5    O     O_R   0.369590 0.500020 0.615820 -0.620889
O6    O     O_R   0.630410 0.499980 0.384180 -0.620293
O7    O     O_R   0.602840 0.500020 0.615790 -0.619387
O8    O     O_R   0.397160 0.499980 0.384210 -0.617986
Zn1   Zn    Zn3+2 0.344250 0.499990 0.500020 0.931585
Zn2   Zn    Zn3+2 0.655750 0.500010 0.499980 0.932280

loop_
_geom_bond_atom_site_label_1
_geom_bond_atom_site_label_2
_ccdc_geom_bond_type
C2    C35   S    
O2    Zn2   S    
C28   H16   S    
O1    Zn1   S    
C3    N2    S    
N1    Zn1   S    
C4    C8    S    
C27   H18   S    
C22   H29   S    
C2    H10   S    
C5    H11   S    
C1    O3    A    
C33   H6    S    
C19   C21   A    
C3    C7    S    
C33   C35   S    
C28   H15   S    
C30   H21   S    
C33   C36   S    
C23   H7    S    
C2    C32   S    
C17   H3    S    
C19   C26   S    
C17   C19   A    
C28   H14   S    
C32   H5    S    
C31   C33   S    
C29   C30   S    
C18   C20   A    
C5    N1    S    
C6    N2    S    
C12   O4    A    
C24   H28   S    
C18   C25   S    
C9    O5    A    
C15   H12   S    
N2    Zn2   S    
C31   H8    S    
C26   H30   S    
O8    Zn1   S    
C4    C6    S    
C25   C26   D    
C21   C29   S    
C4    H25   S    
C1    O1    A    
C13   C24   A    
C2    C31   S    
C32   C34   S    
C7    H26   S    
O4    Zn1   S    
C25   H2    S    
C4    N1    S    
C29   H24   S    
C31   C34   S    
C36   H9    S    
C9    C11   S    
C16   H4    S    
C20   C22   A    
C8    N2    S    
C23   C35   S    
C13   C15   A    
C14   C16   A    
C12   C34   S    
C1    C35   S    
C15   C17   A    
C12   O2    A    
C10   O8    A    
C3    C5    S    
C10   C13   S    
C5    C8    S    
C27   H17   S    
C6    C7    S    
C20   C27   S    
C30   H19   S    
C11   C22   A    
C23   C32   S    
C14   H1    S    
C10   O6    A    
C30   H20   S    
C11   C14   A    
C34   C36   S    
C6    H13   S    
O7    Zn2   S    
C8    H27   S    
C7    N1    S    
C29   H22   S    
C16   C18   A    
C23   C36   S    
O6    Zn2   S    
C21   C24   A    
C27   C28   S    
O5    Zn1   S    
C9    O7    A    
O3    Zn2   S    
C3    H23   S    
