data_mof_unit_59722.cif
_audit_creation_date              2012-12-11T18:06:48-0500
_audit_creation_method            fapswitch 2.2
_symmetry_space_group_name_H-M    P1
_symmetry_Int_Tables_number       1
_space_group_crystal_system       triclinic
_cell_length_a                    8.394891
_cell_length_b                    12.783766
_cell_length_c                    26.736724
_cell_angle_alpha                 95.944132
_cell_angle_beta                  92.952819
_cell_angle_gamma                 81.600059
_cell_volume                      2821.3665047

loop_
_atom_site_label
_atom_site_type_symbol
_atom_type_description
_atom_site_fract_x
_atom_site_fract_y
_atom_site_fract_z
_atom_type_partial_charge
Ba1   Ba    Ba6+2 0.859560 0.448380 0.523550 1.716114
Ba2   Ba    Ba6+2 0.330270 0.551530 0.476440 1.692939
C1    C     C_3   0.789072 0.134144 0.708074 0.247511
C2    C     C_R   0.875227 0.591254 0.174972 0.570891
C3    C     C_2   0.752957 0.548536 0.273091 -0.084836
C4    C     C_3   0.187032 0.155080 0.662047 0.741136
C5    C     C_3   0.734002 0.590844 0.327996 -0.085621
C6    C     C_1   0.996409 0.486596 0.343164 0.035289
C7    C     C_2   0.029954 0.477728 0.294665 -0.133645
C8    C     C_2   0.900627 0.508440 0.255832 0.185087
C9    C     C_R   0.025617 0.510657 0.101565 -0.092012
C10   C     C_R   0.088800 0.425169 0.129244 -0.032583
C11   C     C_R   0.200392 0.344104 0.106578 -0.056245
C12   C     C_3   0.743388 0.203535 0.664841 0.386683
C13   C     C_R   0.913515 0.592008 0.124144 -0.043529
C14   C     C_2   0.875355 0.554176 0.361343 -0.183507
C15   C     C_2   0.344833 0.478655 0.641564 -0.230808
C16   C     C_3   0.214885 0.059656 0.693787 -0.354609
C17   C     C_R   0.225604 0.433262 0.977174 0.034815
C18   C     C_R   0.068423 0.612173 0.975672 -0.031862
C19   C     C_R   0.167059 0.523663 0.951044 0.014985
C20   C     C_R   0.323902 0.347824 0.950908 -0.089777
C21   C     C_R   0.365210 0.351557 0.901384 -0.046985
C22   C     C_R   0.309237 0.440042 0.875296 -0.024118
C23   C     C_3   0.401635 0.746453 0.627181 0.332895
C24   C     C_R   0.209872 0.526210 0.900007 -0.079844
C25   C     C_R   0.155131 0.615511 0.873857 -0.096944
C26   C     C_R   0.191640 0.614915 0.822610 0.620950
C27   C     C_R   0.350266 0.443654 0.824852 0.567587
C28   C     C_3   0.282959 0.224898 0.357423 0.702811
C29   C     C_2   0.466746 0.512388 0.727302 -0.058932
C30   C     C_3   0.494211 0.505392 0.670842 -0.056817
C31   C     C_1   0.205842 0.526680 0.657874 0.051752
C32   C     C_2   0.175907 0.534926 0.706520 -0.125554
C33   C     C_2   0.314739 0.526548 0.744647 0.176342
C34   C     C_3   0.413163 0.754150 0.684577 -0.391626
C35   C     C_R   0.184480 0.431108 0.028349 0.021465
C36   C     C_R   0.074455 0.515095 0.051298 0.040773
C37   C     C_R   0.010646 0.602942 0.024293 0.033233
C38   C     C_R   0.247584 0.346980 0.057495 -0.094102
C39   C     C_R   0.839623 0.672101 0.095151 -0.069758
C40   C     C_3   0.293613 0.254347 0.303578 -0.248185
C41   C     C_R   0.036486 0.706957 0.950682 0.345779
C42   C     C_R   0.071796 0.705679 0.900097 -0.042200
C43   C     C_R   0.882864 0.674882 0.045770 -0.043949
C44   C     C_R   0.759863 0.822596 0.485844 -0.281550
C45   C     C_3   0.874337 0.843929 0.352624 0.235049
C46   C     C_R   0.437490 0.189164 0.520062 -0.306371
C47   C     C_R   0.437161 0.017745 0.549678 0.354760
C48   C     C_R   0.362063 0.121664 0.545120 -0.040786
C49   C     C_R   0.579450 0.152455 0.495060 0.041820
C50   C     C_R   0.644640 0.042183 0.492627 -0.100562
C51   C     C_R   0.567295 0.972850 0.518729 -0.100204
C52   C     C_3   0.971954 0.776902 0.582099 0.256838
C53   C     C_R   0.624675 0.861608 0.513899 0.048210
C54   C     C_R   0.848310 0.890722 0.465884 -0.018027
C55   C     C_R   0.786824 0.999162 0.466807 -0.072290
C56   C     C_3   0.876914 0.812746 0.296299 -0.274934
C57   C     C_3   0.978032 0.896018 0.591690 -0.376924
C58   C     C_3   0.797649 0.221461 0.373338 0.481218
C59   C     C_3   0.772683 0.198520 0.315823 0.919280
C60   C     C_3   0.997803 0.080925 0.283484 0.148339
C61   C     C_3   0.665167 0.285104 0.245638 0.193047
C62   C     C_3   0.335502 0.667195 0.171113 0.222599
C63   C     C_3   0.199039 0.284592 0.729637 0.146268
C64   C     C_3   0.526126 0.986595 0.628111 0.150458
C65   C     C_3   0.277163 0.077629 0.402345 0.327094
C66   C     C_3   0.328274 0.677216 0.308001 0.326230
C67   C     C_3   0.264640 0.688659 0.254059 0.270503
C68   C     C_R   0.039973 0.422598 0.179105 0.583943
Cl1   Cl    Cl    0.665187 0.084152 0.304035 -0.796411
Cl2   Cl    Cl    0.621334 0.120486 0.743862 -0.679725
Cl3   Cl    Cl    0.986370 0.835462 0.981941 -0.677970
H1    H     H_    0.853396 0.226951 0.651841 0.113126
H2    H     H_    0.885823 0.156816 0.387350 -0.071774
H3    H     H_    0.842617 0.298811 0.381555 0.005151
H4    H     H_    0.845612 0.054105 0.693097 -0.008869
H5    H     H_    0.695009 0.159601 0.631188 -0.084026
H6    H     H_    0.298253 0.804247 0.616347 0.091232
H7    H     H_    0.382823 0.665328 0.611929 -0.010214
H8    H     H_    0.402804 0.837447 0.701320 0.125206
H9    H     H_    0.312070 0.720395 0.698759 0.111564
H10   H     H_    0.529816 0.711393 0.697802 0.122070
H11   H     H_    0.875277 0.171569 0.734489 0.099025
H12   H     H_    0.365440 0.189684 0.280098 0.164238
H13   H     H_    0.114766 0.060732 0.719167 0.101513
H14   H     H_    0.820735 0.781695 0.369468 -0.038542
H15   H     H_    0.794871 0.920581 0.360115 0.090262
H16   H     H_    0.943132 0.731525 0.288895 0.085124
H17   H     H_    0.751607 0.813510 0.280710 0.157328
H18   H     H_    0.936423 0.868418 0.277194 0.111755
H19   H     H_    0.422267 0.730630 0.316201 -0.020939
H20   H     H_    0.228814 0.704659 0.333961 0.038360
H21   H     H_    0.201580 0.771079 0.252258 -0.003980
H22   H     H_    0.177417 0.631464 0.244008 0.013202
H23   H     H_    0.172497 0.268275 0.285353 0.148538
H24   H     H_    0.153894 0.462244 0.283667 0.117082
H25   H     H_    0.253004 0.277666 0.126941 0.123780
H26   H     H_    0.569824 0.508804 0.753636 0.111702
H27   H     H_    0.440768 0.283582 0.883315 0.150984
H28   H     H_    0.369833 0.275472 0.967288 0.087508
H29   H     H_    0.335781 0.281998 0.043752 0.082251
H30   H     H_    0.652309 0.565815 0.246989 0.163981
H31   H     H_    0.744588 0.731931 0.110189 0.131766
H32   H     H_    0.303658 0.175055 0.651162 -0.060886
H33   H     H_    0.041236 0.778385 0.881985 0.171110
H34   H     H_    0.352556 0.326333 0.303487 0.106619
H35   H     H_    0.052841 0.545663 0.718725 0.122142
H36   H     H_    0.809149 0.731630 0.024234 0.149233
H37   H     H_    0.876998 0.588344 0.400168 0.069574
H38   H     H_    0.351343 0.425283 0.607090 0.055398
H39   H     H_    0.852141 0.048029 0.447473 0.091131
H40   H     H_    0.802666 0.738189 0.481934 0.046317
H41   H     H_    0.380611 0.270346 0.518086 0.076159
H42   H     H_    0.223889 0.983792 0.669309 0.112327
H43   H     H_    0.326754 0.060279 0.717391 0.135018
H44   H     H_    0.382160 0.252466 0.380926 0.074355
H45   H     H_    0.845458 0.762835 0.578707 0.032881
H46   H     H_    0.934363 0.040897 0.251160 0.097440
H47   H     H_    0.003642 0.037230 0.317488 0.080493
H48   H     H_    0.122787 0.079711 0.271865 0.116636
H49   H     H_    0.633131 0.208714 0.227121 0.091298
H50   H     H_    0.780333 0.301201 0.231450 0.108264
H51   H     H_    0.569791 0.349065 0.234608 0.045067
H52   H     H_    0.251334 0.740331 0.163997 0.043155
H53   H     H_    0.276072 0.595463 0.160969 0.011366
H54   H     H_    0.438680 0.661934 0.146218 0.086891
H55   H     H_    0.310439 0.307539 0.715862 0.116751
H56   H     H_    0.035072 0.746727 0.546834 0.054349
H57   H     H_    0.228987 0.227287 0.758352 0.099005
H58   H     H_    0.128070 0.355779 0.748938 0.081168
H59   H     H_    0.515770 0.070151 0.642422 0.046439
H60   H     H_    0.511971 0.944340 0.660909 0.117986
H61   H     H_    0.649362 0.957827 0.614876 0.027461
H62   H     H_    0.363760 0.004752 0.407181 0.058010
H63   H     H_    0.153292 0.057598 0.403240 0.069985
H64   H     H_    0.295868 0.136679 0.434634 -0.066100
H65   H     H_    0.887522 0.941302 0.567804 0.075785
H66   H     H_    0.097759 0.914315 0.582798 0.158315
H67   H     H_    0.953553 0.923862 0.631564 0.135210
N1    N     N_R   0.936736 0.506354 0.202346 -0.427205
N2    N     N_R   0.286311 0.528725 0.798283 -0.428619
O1    O     O_2   0.907040 0.557650 0.617910 -0.455273
O2    O     O_2   0.186922 0.884284 0.458338 -0.487929
O3    O     O_3   0.031171 0.855075 0.371929 -0.614412
O4    O     O_3   0.139040 0.557570 0.557730 -0.498723
O5    O     O_3   0.571310 0.369620 0.475470 -0.451452
O6    O     O_2   0.348200 0.764910 0.523260 -0.467496
O7    O     O_3   0.543347 0.770533 0.608731 -0.628955
O8    O     O_2   0.580321 0.446001 0.370095 -0.427947
O9    O     O_3   0.382820 0.569371 0.313885 -0.602849
O10   O     O_2   0.088839 0.345077 0.201555 -0.614223
O11   O     O_2   0.441688 0.370281 0.804470 -0.558908
O12   O     O_3   0.649510 0.227742 0.396133 -0.645073
O13   O     O_2   0.789714 0.668018 0.195048 -0.598871
O14   O     O_2   0.140584 0.691796 0.799845 -0.580555
O15   O     O_3   0.684960 0.360550 0.588460 -0.489080
O16   O     O_2   0.828713 0.426244 0.676023 -0.473329
O17   O     O_3   0.043704 0.728060 0.623485 -0.640727
O18   O     O_3   0.630754 0.290626 0.681156 -0.587444
O19   O     O_2   0.841490 0.235060 0.476710 -0.475745
O20   O     O_3   0.099640 0.305100 0.564190 -0.463637
O21   O     O_2   0.044118 0.117255 0.523495 -0.478362
O22   O     O_3   0.925718 0.187313 0.293336 -0.698623
O23   O     O_3   0.090957 0.125263 0.619574 -0.620277
O24   O     O_3   0.672652 0.288061 0.298716 -0.649640
O25   O     O_3   0.394757 0.670234 0.221435 -0.634088
O26   O     O_3   0.102761 0.244962 0.689463 -0.684161
O27   O     O_3   0.403831 0.969655 0.590848 -0.682729
O28   O     O_3   0.299524 0.112615 0.355164 -0.657313
O29   O     O_2   0.282660 0.442310 0.382060 -0.474357
O30   O     O_3   0.050670 0.442340 0.442260 -0.473786
O31   O     O_3   0.504750 0.639360 0.411530 -0.478152
O32   O     O_3   0.136001 0.270517 0.379043 -0.681125
O33   O     O_3   0.618400 0.630290 0.524520 -0.470285
O34   O     O_3   0.090070 0.694820 0.435810 -0.475218
P1    P     P_3+3 0.072810 0.589830 0.610360 0.996924
P2    P     P_3+3 0.661990 0.251250 0.462170 1.010576
P3    P     P_3+3 0.153574 0.167599 0.564440 0.996478
P4    P     P_3+3 0.116900 0.410080 0.389630 0.964600
P5    P     P_3+3 0.039968 0.833013 0.435535 0.946114
P6    P     P_3+3 0.663619 0.401897 0.652672 0.997697
P7    P     P_3+3 0.530446 0.761133 0.542715 0.999003
P8    P     P_3+3 0.550751 0.561332 0.355397 1.019527

loop_
_geom_bond_atom_site_label_1
_geom_bond_atom_site_label_2
_ccdc_geom_bond_type
C41   Cl3   S    
C19   C24   A    
C45   O3    S    
C53   P7    S    
Ba2   O4    S    
O7    P7    S    
C59   O22   S    
C64   O27   S    
C1    Cl2   S    
C18   C41   A    
C3    H30   S    
C63   H57   S    
C14   H37   S    
O9    P8    S    
C63   O26   S    
C24   C25   A    
C16   H13   S    
C20   H28   S    
Ba2   P4    S    
C5    P8    S    
C40   H23   S    
C12   H1    S    
O33   P7    S    
C17   C19   A    
C22   C24   A    
Ba1   Ba2   S    
C62   O25   S    
Ba2   O31   S    
C36   C37   A    
C32   C33   S    
C43   H36   S    
C55   H39   S    
C54   P5    S    
C34   H10   S    
Ba2   O6    S    
C23   H7    S    
O3    P5    S    
C54   C55   A    
C23   O7    S    
C59   O24   S    
C11   H25   S    
C22   C27   A    
C28   O28   S    
C11   C38   A    
C17   C35   A    
Ba2   O34   S    
C52   O17   S    
C64   H61   S    
Ba1   P1    S    
C25   C42   A    
C46   C49   A    
C60   O22   S    
O31   P8    S    
C34   H9    S    
C6    C7    D    
C44   C53   A    
C21   C22   A    
C29   H26   S    
C49   P2    S    
C7    C8    S    
C60   H47   S    
Ba2   O29   S    
C37   C43   A    
C59   Cl1   S    
C46   C48   A    
C21   H27   S    
C4    O23   S    
Ba1   O19   S    
C6    C14   D    
Ba1   O4    S    
C15   C31   D    
O17   P1    S    
C15   H38   S    
O18   P6    S    
C63   H58   S    
C61   H51   S    
C64   H59   S    
C52   C57   S    
C61   O24   S    
C65   O28   S    
O34   P5    S    
C4    C16   S    
C4    O26   S    
C31   P1    S    
C49   C50   A    
C63   H55   S    
C17   C20   A    
C68   O10   D    
C13   C39   A    
C67   H21   S    
C16   H43   S    
C2    N1    Am   
C3    C5    S    
C18   C37   A    
C66   C67   S    
O8    P8    D    
C33   N2    S    
C57   H65   S    
Ba2   O5    S    
C58   H3    S    
O4    P1    S    
C12   O18   S    
C58   C59   S    
C8    N1    S    
C45   H14   S    
C9    C36   A    
C65   H62   S    
C41   C42   A    
C67   O25   S    
C35   C36   A    
Ba1   O1    S    
Ba2   O33   S    
C64   H60   S    
C56   H17   S    
Ba1   P2    S    
C6    P4    S    
C29   C30   S    
C57   H66   S    
C34   H8    S    
C62   H54   S    
C31   C32   D    
O20   P3    S    
C40   H12   S    
C18   C19   A    
O16   P6    D    
C60   H46   S    
C1    C12   S    
C5    C14   S    
Ba1   O20   S    
C62   H52   S    
C9    C13   A    
O12   P2    S    
O21   P3    D    
O23   P3    S    
C40   H34   S    
C29   C33   D    
O29   P4    D    
Ba1   O5    S    
C26   N2    Am   
O15   P6    S    
C51   C53   A    
C1    H4    S    
O32   P4    S    
C25   C26   A    
C61   H49   S    
C50   C51   A    
C46   H41   S    
C56   H18   S    
C30   P6    S    
C52   H56   S    
C10   C68   A    
O2    P5    D    
Ba1   O33   S    
C68   N1    Am   
C7    H24   S    
C58   H2    S    
C44   H40   S    
C23   H6    S    
C67   H22   S    
C16   H42   S    
O1    P1    D    
C61   H50   S    
C9    C10   A    
C28   H44   S    
C42   H33   S    
C35   C38   A    
Ba1   O30   S    
C62   H53   S    
C66   H20   S    
C39   H31   S    
C32   H35   S    
C45   H15   S    
C2    C13   A    
C52   H45   S    
C48   P3    S    
C27   O11   D    
C3    C8    D    
C66   O9    S    
C45   C56   S    
C47   O27   S    
O5    P2    S    
O30   P4    S    
C57   H67   S    
O6    P7    D    
C47   C51   A    
C27   N2    Am   
Ba1   O15   S    
C66   H19   S    
C4    H32   S    
C65   H63   S    
C12   H5    S    
C65   H64   S    
C56   H16   S    
C58   O12   S    
C50   C55   A    
C23   C34   S    
C38   H29   S    
C2    O13   D    
C10   C11   A    
C47   C48   A    
C44   C54   A    
C1    H11   S    
C26   O14   D    
C15   C30   S    
C39   C43   A    
C20   C21   A    
C28   C40   S    
O19   P2    D    
C28   O32   S    
C60   H48   S    
Ba2   O30   S    
