data_mof_unit_14638.cif
_audit_creation_date              2012-10-26T20:46:50-0400
_audit_creation_method            fapswitch 2.2
_symmetry_space_group_name_H-M    P1
_symmetry_Int_Tables_number       1
_space_group_crystal_system       triclinic
_cell_length_a                    15.120902
_cell_length_b                    13.830489
_cell_length_c                    10.913708
_cell_angle_alpha                 90.271909
_cell_angle_beta                  90.364931
_cell_angle_gamma                 90.085798
_cell_volume                      2282.30329726

loop_
_atom_site_label
_atom_site_type_symbol
_atom_type_description
_atom_site_fract_x
_atom_site_fract_y
_atom_site_fract_z
_atom_type_partial_charge
C1    C     C_R   0.329636 0.499891 0.499356 0.587382
C2    C     C_R   0.424914 0.893425 0.536412 0.205093
C3    C     C_R   0.575731 0.893182 0.464549 0.204787
C4    C     C_R   0.426384 0.791328 0.535166 0.062821
C5    C     C_R   0.573863 0.791052 0.465341 0.058236
C6    C     C_R   0.500391 0.945899 0.500326 0.023555
C7    C     C_R   0.500852 0.499402 0.265022 0.586655
C8    C     C_R   0.501808 0.499884 0.735328 0.559966
C9    C     C_2   0.509641 0.418155 0.934879 0.260150
C10   C     C_2   0.528354 0.423687 0.067400 0.237579
C11   C     C_2   0.511104 0.499900 0.867942 -0.102925
C12   C     C_R   0.670068 0.500035 0.499530 0.619430
C13   C     C_2   0.492625 0.496153 0.133169 -0.114810
C14   C     C_R   0.093891 0.577678 0.444008 0.254746
C15   C     C_R   0.906047 0.568826 0.565999 0.253635
C16   C     C_R   0.186171 0.578859 0.448497 0.304399
C17   C     C_R   0.813776 0.570602 0.564294 0.303125
C18   C     C_R   0.232709 0.499532 0.496889 -0.092039
C19   C     C_R   0.766431 0.499957 0.498277 -0.092685
C20   C     C_R   0.185725 0.419544 0.542064 0.296491
C21   C     C_R   0.811722 0.428889 0.431310 0.313548
C22   C     C_R   0.093884 0.419538 0.540899 0.397056
C23   C     C_R   0.047716 0.498599 0.493035 -0.030757
C24   C     C_R   0.903600 0.428894 0.429520 0.396342
C25   C     C_3   0.415974 0.288133 0.910045 -0.050701
C26   C     C_3   0.353724 0.292315 0.800250 -0.297404
C27   C     C_3   0.562992 0.273262 0.147940 0.073105
C28   C     C_3   0.612381 0.196062 0.075919 -0.381538
C29   C     C_3   0.033904 0.640552 0.270881 0.010020
C30   C     C_3   0.977241 0.722207 0.220671 -0.349239
C31   C     C_3   0.966983 0.602587 0.751752 0.013615
C32   C     C_3   0.024854 0.673884 0.822290 -0.353604
C33   C     C_3   0.701972 0.235237 0.644733 0.017093
C34   C     C_R   0.951000 0.498901 0.496114 -0.033447
C35   C     C_3   0.734628 0.197866 0.767918 -0.380368
C36   C     C_3   0.300957 0.228083 0.339566 0.017524
C37   C     C_3   0.281126 0.187353 0.212337 -0.409572
C38   C     C_3   0.351080 0.961605 0.695123 -0.018954
C39   C     C_3   0.274664 0.028222 0.727290 -0.342073
C40   C     C_3   0.654096 0.951877 0.304824 -0.021589
C41   C     C_3   0.732558 0.014888 0.270572 -0.342093
C42   C     C_R   0.557464 0.107375 0.576526 -0.137192
C43   C     C_R   0.443221 0.106402 0.423212 -0.145093
C44   C     C_R   0.558333 0.209878 0.573902 0.382590
C45   C     C_R   0.441872 0.209162 0.425766 0.354824
C46   C     C_R   0.500451 0.054725 0.499885 -0.021131
Cu1   Cu    Cu3+1 0.500000 0.596430 0.500000 1.011663
Cu2   Cu    Cu3+1 0.500000 0.403570 0.500000 1.109129
F1    F     F_    0.229728 0.656547 0.402652 -0.600557
F2    F     F_    0.770788 0.639373 0.630217 -0.596999
F3    F     F_    0.228325 0.342046 0.589996 -0.631849
F4    F     F_    0.766995 0.361216 0.364785 -0.584619
F5    F     F_    0.049724 0.343246 0.589239 -0.565879
F6    F     F_    0.946541 0.361724 0.361029 -0.561856
H1    H     H_    0.367976 0.752587 0.563536 0.184935
H2    H     H_    0.339670 0.368819 0.776887 0.188412
H3    H     H_    0.383897 0.255413 0.720199 0.191123
H4    H     H_    0.490379 0.263303 0.135921 0.130552
H5    H     H_    0.577519 0.260935 0.246469 0.189633
H6    H     H_    0.589634 0.123306 0.104607 0.068100
H7    H     H_    0.599803 0.203839 0.976413 0.196098
H8    H     H_    0.684576 0.202274 0.093653 0.182368
H9    H     H_    0.998075 0.571213 0.253887 0.133579
H10   H     H_    0.097671 0.639646 0.220337 0.165625
H11   H     H_    0.011657 0.792524 0.233868 0.183110
H12   H     H_    0.632231 0.752071 0.437292 0.173081
H13   H     H_    0.964839 0.710609 0.121289 0.091380
H14   H     H_    0.912823 0.724252 0.269001 0.172225
H15   H     H_    0.001782 0.531582 0.749941 0.132149
H16   H     H_    0.903228 0.594567 0.801293 0.173982
H17   H     H_    0.991300 0.745093 0.828690 0.180029
H18   H     H_    0.037429 0.646430 0.916249 0.088020
H19   H     H_    0.089132 0.683014 0.774951 0.168810
H20   H     H_    0.741104 0.300719 0.622636 0.183051
H21   H     H_    0.716774 0.181243 0.571370 0.144148
H22   H     H_    0.696323 0.133074 0.795320 0.136663
H23   H     H_    0.523281 0.569499 0.911498 0.060450
H24   H     H_    0.805600 0.178111 0.761505 0.141795
H25   H     H_    0.727117 0.254923 0.839040 0.183425
H26   H     H_    0.256684 0.290962 0.353955 0.202488
H27   H     H_    0.283122 0.174541 0.411455 0.162686
H28   H     H_    0.327157 0.127622 0.189630 0.132416
H29   H     H_    0.212244 0.159518 0.208732 0.146283
H30   H     H_    0.288292 0.245141 0.142883 0.141224
H31   H     H_    0.413645 0.998942 0.722454 0.122993
H32   H     H_    0.344404 0.893620 0.748554 0.129640
H33   H     H_    0.276764 0.045936 0.826630 0.088605
H34   H     H_    0.449199 0.549105 0.090983 0.040881
H35   H     H_    0.279676 0.096317 0.674164 0.181342
H36   H     H_    0.210716 0.992315 0.705352 0.187163
H37   H     H_    0.592833 0.987733 0.270353 0.121802
H38   H     H_    0.661543 0.880237 0.259027 0.129641
H39   H     H_    0.794972 0.981503 0.303760 0.184019
H40   H     H_    0.735688 0.022363 0.169439 0.097226
H41   H     H_    0.725461 0.087835 0.312443 0.182913
H42   H     H_    0.600534 0.068793 0.638862 0.130911
H43   H     H_    0.400732 0.066491 0.360977 0.129717
H44   H     H_    0.382956 0.323139 0.989949 0.095017
H45   H     H_    0.426011 0.210943 0.933967 0.129942
H46   H     H_    0.290469 0.255734 0.822586 0.130702
N1    N     N_R   0.500000 0.258690 0.500000 -0.213179
N2    N     N_R   0.500000 0.741330 0.500000 -0.292025
O1    O     O_R   0.371460 0.581430 0.500010 -0.474077
O2    O     O_3   0.594918 0.366294 0.117178 -0.506504
O3    O     O_3   0.048840 0.656325 0.397222 -0.472906
O4    O     O_3   0.952268 0.637995 0.632235 -0.474807
O5    O     O_3   0.611847 0.262461 0.653579 -0.497583
O6    O     O_3   0.389391 0.261868 0.345374 -0.549750
O7    O     O_3   0.348226 0.941233 0.568290 -0.548951
O8    O     O_3   0.652514 0.941050 0.433276 -0.553831
O9    O     O_R   0.628540 0.581430 0.499990 -0.475901
O10   O     O_R   0.371470 0.418560 0.500010 -0.444387
O11   O     O_R   0.628530 0.418560 0.499990 -0.445170
O12   O     O_R   0.500000 0.581410 0.321940 -0.509668
O13   O     O_R   0.500000 0.581410 0.678060 -0.516043
O14   O     O_R   0.500010 0.418540 0.321940 -0.457728
O15   O     O_R   0.499990 0.418540 0.678060 -0.423013
O16   O     O_3   0.499205 0.328333 0.879434 -0.510419

loop_
_geom_bond_atom_site_label_1
_geom_bond_atom_site_label_2
_ccdc_geom_bond_type
C7    O14   A    
Cu1   O12   S    
C29   H9    S    
C2    O7    S    
C36   O6    S    
C33   O5    S    
C39   H33   S    
C3    C6    A    
C25   O16   S    
C32   H18   S    
Cu1   O13   S    
C1    C18   S    
C38   H32   S    
C42   H42   S    
C15   O4    S    
C36   C37   S    
C19   C21   A    
C20   F3    S    
C1    O10   A    
C38   C39   S    
C3    O8    S    
C24   F6    S    
C27   O2    S    
C12   C19   S    
C42   C46   A    
C11   H23   S    
C8    O13   A    
C17   C19   A    
C33   H21   S    
C14   O3    S    
C41   H39   S    
C41   H40   S    
C4    N2    A    
C37   H30   S    
C22   F5    S    
C6    C46   S    
C9    C10   S    
C1    O1    A    
C15   C34   A    
C30   H13   S    
C45   O6    S    
Cu2   O14   S    
C28   H7    S    
C29   H10   S    
Cu1   N2    S    
C9    O16   S    
C29   O3    S    
C2    C6    A    
C42   C44   A    
C43   C46   A    
C25   H45   S    
C8    O15   A    
C32   H17   S    
C28   H6    S    
C35   H22   S    
Cu1   O1    S    
C38   H31   S    
C16   F1    S    
C36   H26   S    
C32   H19   S    
C40   O8    S    
C25   C26   S    
C27   H4    S    
C24   C34   A    
C14   C23   A    
C2    C4    A    
C29   C30   S    
C9    C11   D    
C25   H44   S    
Cu1   Cu2   S    
C7    C13   S    
C36   H27   S    
C23   C34   S    
C40   H38   S    
C38   O7    S    
C43   C45   A    
C45   N1    A    
C40   C41   S    
Cu2   O10   S    
C20   C22   A    
C4    H1    S    
C31   O4    S    
C14   C16   A    
C37   H28   S    
C7    O12   A    
C12   O11   A    
C44   O5    S    
C15   C17   A    
C5    N2    A    
C39   H36   S    
C31   C32   S    
C43   H43   S    
C5    H12   S    
C3    C5    A    
C10   C13   D    
C26   H2    S    
C17   F2    S    
C44   N1    A    
Cu2   O15   S    
C35   H24   S    
C31   H16   S    
C10   O2    S    
C27   H5    S    
C41   H41   S    
C8    C11   S    
Cu1   O9    S    
Cu2   N1    S    
C13   H34   S    
C35   H25   S    
C33   C35   S    
C18   C20   A    
C21   F4    S    
C40   H37   S    
C26   H3    S    
C30   H11   S    
C33   H20   S    
C31   H15   S    
C16   C18   A    
C21   C24   A    
C27   C28   S    
C22   C23   A    
C37   H29   S    
C39   H35   S    
C12   O9    A    
C30   H14   S    
C26   H46   S    
Cu2   O11   S    
C28   H8    S    
