data_mof_unit_44713.cif
_audit_creation_date              2013-03-05T15:49:32-0500
_audit_creation_method            fapswitch 2.2
_symmetry_space_group_name_H-M    P1
_symmetry_Int_Tables_number       1
_space_group_crystal_system       triclinic
_cell_length_a                    10.667564
_cell_length_b                    12.150109
_cell_length_c                    12.797392
_cell_angle_alpha                 95.490861
_cell_angle_beta                  90.800614
_cell_angle_gamma                 90.895035
_cell_volume                      1650.68461749

loop_
_atom_site_label
_atom_site_type_symbol
_atom_site_description
_atom_site_fract_x
_atom_site_fract_y
_atom_site_fract_z
_atom_type_partial_charge
O1    O     O_R   0.506170 0.421700 0.658830 -0.558870
O2    O     O_R   0.493830 0.578300 0.341170 -0.583933
O3    O     O_R   0.491330 0.609310 0.646410 -0.610867
O4    O     O_R   0.508670 0.390690 0.353590 -0.591417
C1    C     C_R   0.496220 0.524267 0.700422 0.968169
C2    C     C_R   0.503902 0.475470 0.298827 0.884456
O5    O     O_R   0.690650 0.406190 0.506220 -0.592097
O6    O     O_R   0.309350 0.593810 0.493780 -0.593942
O7    O     O_R   0.675800 0.593810 0.493800 -0.604987
O8    O     O_R   0.324200 0.406190 0.506200 -0.591588
C3    C     C_R   0.738870 0.502627 0.487368 0.848666
C4    C     C_R   0.259732 0.496259 0.505592 0.950296
Zn1   Zn    Zn3+2 0.509910 0.374730 0.508290 1.072753
Zn2   Zn    Zn3+2 0.490090 0.625270 0.491710 1.065705
C5    C     C_R   0.864776 0.310624 0.389217 -0.078058
C6    C     C_R   0.114972 0.669524 0.612317 -0.047102
C7    C     C_R   0.905012 0.207992 0.417196 -0.055015
C8    C     C_R   0.084403 0.778674 0.600294 -0.124696
C9    C     C_R   0.026533 0.204751 0.461437 -0.079693
C10   C     C_R   0.002796 0.798280 0.516519 -0.122578
C11   C     C_R   0.108968 0.291185 0.442185 0.338629
C12   C     C_R   0.920067 0.711414 0.474429 0.391704
C13   C     C_R   0.057365 0.396520 0.460686 -0.014802
C14   C     C_R   0.944234 0.601997 0.497922 -0.040598
C15   C     C_R   0.930636 0.406679 0.433609 0.035693
C16   C     C_R   0.059283 0.583984 0.545293 0.017790
C17   C     C_R   0.123770 0.487897 0.511467 -0.106763
C18   C     C_R   0.871349 0.507913 0.460329 -0.161499
H1    H     H_    0.773716 0.316576 0.351764 0.190823
H2    H     H_    0.191680 0.651822 0.664309 0.194038
C19   C     C_R   0.514843 0.455307 0.184526 -0.240147
C20   C     C_R   0.489076 0.544749 0.813509 -0.170038
C21   C     C_R   0.560958 0.644197 0.977499 -0.142764
C22   C     C_R   0.462777 0.353516 0.016372 -0.194668
C23   C     C_R   0.548230 0.638334 0.867769 0.274076
C24   C     C_R   0.472517 0.356745 0.126343 0.351148
C25   C     C_R   0.430224 0.465234 0.868743 -0.113166
C26   C     C_R   0.572817 0.536467 0.131218 -0.139150
C27   C     C_R   0.472989 0.454868 0.970807 -0.026010
C28   C     C_R   0.535958 0.546604 0.027109 0.095005
N1    N     N_R   0.523130 0.207800 0.519340 -0.185714
N2    N     N_R   0.476870 0.792200 0.480660 -0.181247
C29   C     C_R   0.402349 0.941281 0.386196 0.131859
C30   C     C_R   0.607127 0.057098 0.608145 0.135005
C31   C     C_R   0.405868 0.828144 0.401216 0.325162
C32   C     C_R   0.597838 0.171177 0.596675 0.307277
C33   C     C_R   0.542528 0.865183 0.548572 0.085021
C34   C     C_R   0.459674 0.134172 0.450168 0.082806
C35   C     C_R   0.539148 0.980187 0.539063 -0.103205
C36   C     C_R   0.466525 0.018878 0.457544 -0.091546
H3    H     H_    0.404345 0.165965 0.389258 0.216702
H4    H     H_    0.598289 0.832534 0.609063 0.224642
C37   C     C_2   0.033478 0.893714 0.456410 0.486347
H5    H     H_    0.118536 0.941468 0.475690 0.047084
O9    O     O_2   0.972632 0.914945 0.379807 -0.443809
C38   C     C_2   0.056593 0.138406 0.548656 0.396132
H6    H     H_    0.984662 0.089160 0.582051 0.087810
O10   O     O_2   0.162406 0.140768 0.586716 -0.567667
N3    N     N_R   0.342226 0.974475 0.293881 0.243085
O11   O     O_R   0.225402 0.947106 0.273674 -0.234852
O12   O     O_R   0.411919 0.002532 0.217975 -0.211390
N4    N     N_R   0.689316 0.020461 0.687082 0.238124
O13   O     O_R   0.671665 0.051376 0.785824 -0.209517
O14   O     O_R   0.784580 0.959043 0.660108 -0.399923
C39   C     C_2   0.815884 0.113209 0.411321 0.549723
H7    H     H_    0.826167 0.048412 0.462901 0.080657
O15   O     O_2   0.728387 0.106789 0.348461 -0.480994
C40   C     C_2   0.149962 0.870200 0.665264 0.489555
H8    H     H_    0.117719 0.954036 0.664434 0.103803
O16   O     O_2   0.239262 0.852803 0.721785 -0.489511
N5    N     N_R   0.187488 0.271663 0.352369 0.205598
O17   O     O_R   0.192653 0.172273 0.305309 -0.290004
O18   O     O_R   0.227677 0.353921 0.303086 -0.377189
N6    N     N_R   0.844488 0.727003 0.384454 0.199597
O19   O     O_R   0.746263 0.788890 0.394602 -0.377445
O20   O     O_R   0.895895 0.710254 0.292908 -0.264881
C41   C     C_2   0.692832 0.584322 0.175515 0.474691
H9    H     H_    0.711538 0.586414 0.258884 0.095531
O21   O     O_2   0.776099 0.611907 0.118350 -0.463056
C42   C     C_2   0.312390 0.406742 0.827847 0.463520
H10   H     H_    0.262698 0.351816 0.875651 0.092458
O22   O     O_2   0.265129 0.423758 0.743605 -0.568816
N7    N     N_R   0.444704 0.259430 0.176659 0.254625
O23   O     O_R   0.342525 0.203452 0.149853 -0.223598
O24   O     O_R   0.535431 0.210844 0.222121 -0.293561
N8    N     N_R   0.592235 0.727587 0.811931 0.238728
O25   O     O_R   0.706291 0.727835 0.777121 -0.318345
O26   O     O_R   0.519892 0.810830 0.799928 -0.284938
C43   C     C_2   0.593674 0.751291 0.040298 0.677035
H11   H     H_    0.572293 0.762611 0.123107 0.095337
O27   O     O_2   0.645493 0.827588 0.001566 -0.398601
C44   C     C_2   0.461727 0.245461 0.948837 0.598158
H12   H     H_    0.442460 0.241482 0.865415 0.070901
O28   O     O_2   0.491328 0.159404 0.983889 -0.391963
N9    N     N_R   0.674262 0.247917 0.662249 0.250373
O29   O     O_R   0.791204 0.261682 0.638605 -0.396857
O30   O     O_R   0.639987 0.276797 0.757876 -0.357933
N10   N     N_R   0.337879 0.750443 0.329867 0.258767
O31   O     O_R   0.373279 0.734626 0.232836 -0.356240
O32   O     O_R   0.224244 0.721822 0.352385 -0.337809

loop_
_geom_bond_atom_site_label_1
_geom_bond_atom_site_label_2
_geom_bond_distance
_ccdc_geom_bond_type
C9    C38   1.472661 S    
C30   C35   1.408375 A    
C37   O9    1.218482 D    
N9    O29   1.299794 A    
Zn1   N1    2.053489 S    
C33   C35   1.415118 A    
C41   H9    1.080496 S    
C15   C18   1.407007 A    
O5    C3    1.316992 A    
C16   C17   1.400103 A    
N6    O20   1.300189 A    
C11   N5    1.435260 S    
O1    C1    1.313915 A    
C9    C11   1.401293 A    
C14   C16   1.390915 A    
C31   N10   1.430439 S    
C23   N8    1.431341 S    
N8    O26   1.301120 A    
C5    C15   1.419423 A    
C24   N7    1.428549 S    
C8    C40   1.483085 S    
C38   H6    1.083148 S    
O4    Zn1   2.007494 S    
N4    O14   1.301130 A    
C21   C23   1.403815 A    
C34   H3    1.075683 S    
C32   N9    1.430254 S    
C40   H8    1.081169 S    
C39   O15   1.220304 D    
N1    C32   1.373293 A    
C13   C17   1.407568 A    
C43   O27   1.220735 D    
C22   C24   1.406485 A    
C29   N3    1.431007 S    
Zn2   N2    2.053490 S    
C1    C20   1.448077 S    
C34   C36   1.415943 A    
C2    C19   1.466415 S    
N3    O11   1.300815 A    
O2    C2    1.320010 A    
C30   C32   1.412571 A    
C5    H1    1.083686 S    
C41   O21   1.221594 D    
C6    C16   1.401669 A    
C25   C42   1.497183 S    
N3    O12   1.299302 A    
C21   C28   1.420964 A    
N6    O19   1.299978 A    
C4    C17   1.455848 S    
C22   C27   1.415389 A    
C20   C23   1.409794 A    
C42   O22   1.220612 D    
C27   C28   1.422002 A    
N5    O18   1.302019 A    
N8    O25   1.301586 A    
C42   H10   1.084794 S    
C30   N4    1.435566 S    
C37   H5    1.082002 S    
N2    C31   1.368148 A    
O7    Zn2   2.023761 S    
N4    O13   1.300525 A    
C21   C43   1.496219 S    
C29   C31   1.407096 A    
N7    O23   1.300056 A    
O6    C4    1.313299 A    
C44   O28   1.220780 D    
C20   C25   1.396900 A    
O7    C3    1.301622 A    
O3    Zn2   2.007495 S    
O8    C4    1.302154 A    
O4    C2    1.301389 A    
N7    O24   1.300579 A    
C10   C12   1.425382 A    
N10   O31   1.300450 A    
N10   O32   1.299692 A    
C11   C13   1.401680 A    
C12   C14   1.417488 A    
O1    Zn1   1.957348 S    
C39   H7    1.080596 S    
C12   N6    1.425583 S    
C5    C7    1.401888 A    
O6    Zn2   1.960752 S    
C14   C18   1.413952 A    
C10   C37   1.486358 S    
O3    C1    1.298278 A    
O8    Zn1   2.023760 S    
N9    O30   1.299534 A    
C29   C36   1.410282 A    
C33   H4    1.078773 S    
C26   C41   1.480502 S    
C7    C39   1.477534 S    
C19   C26   1.393470 A    
N5    O17   1.299167 A    
C25   C27   1.395214 A    
C26   C28   1.401123 A    
C3    C18   1.461562 S    
C44   H12   1.080742 S    
C7    C9    1.409943 A    
N1    C34   1.361953 A    
C38   O10   1.221930 D    
C8    C10   1.411842 A    
N2    C33   1.359533 A    
C13   C15   1.401156 A    
O2    Zn2   1.957348 S    
C22   C44   1.500956 S    
O5    Zn1   1.960753 S    
C6    C8    1.392819 A    
C35   C36   1.411436 A    
C40   O16   1.221325 D    
C19   C24   1.412605 A    
C43   H11   1.083426 S    
C6    H2    1.084546 S    
