data_mof_unit_42378.cif
_audit_creation_date              2012-12-10T16:55:00-0500
_audit_creation_method            fapswitch 2.2
_symmetry_space_group_name_H-M    P1
_symmetry_Int_Tables_number       1
_space_group_crystal_system       triclinic
_cell_length_a                    7.762122
_cell_length_b                    8.612583
_cell_length_c                    15.740424
_cell_angle_alpha                 90.939512
_cell_angle_beta                  85.883121
_cell_angle_gamma                 93.594132
_cell_volume                      1047.42321858

loop_
_atom_site_label
_atom_site_type_symbol
_atom_type_description
_atom_site_fract_x
_atom_site_fract_y
_atom_site_fract_z
_atom_type_partial_charge
C1    C     C_R   0.545741 0.794059 0.494761 0.905171
C2    C     C_2   0.433956 0.041826 0.499510 -0.388283
C3    C     C_R   0.502072 0.500122 0.661540 0.904782
C4    C     C_R   0.454814 0.205345 0.499352 0.970551
C5    C     C_R   0.497885 0.499793 0.338461 0.895735
C6    C     C_3   0.354371 0.601489 0.954545 -0.112629
C7    C     C_3   0.677719 0.560397 0.947206 -0.423396
C8    C     C_3   0.668358 0.572302 0.045106 -0.423343
C9    C     C_1   0.493228 0.499150 0.249913 -0.174834
C10   C     C_3   0.500269 0.497221 0.917034 0.284815
C11   C     C_3   0.340961 0.590878 0.054365 -0.122356
C12   C     C_3   0.492813 0.497593 0.083169 0.283974
C13   C     C_3   0.467199 0.326300 0.049487 -0.114145
C14   C     C_3   0.457654 0.327882 0.950134 -0.123511
C15   C     C_1   0.491677 0.498350 0.174747 -0.017910
C16   C     C_1   0.505277 0.498265 0.825354 -0.017698
C17   C     C_1   0.505957 0.499142 0.750117 -0.177476
C18   C     C_2   0.570929 0.955363 0.481516 -0.076964
H1    H     H_    0.229075 0.552090 0.932098 0.120954
H2    H     H_    0.320642 0.295566 0.937046 0.119840
H3    H     H_    0.339519 0.277211 0.077314 0.120652
H4    H     H_    0.218141 0.793725 0.082751 0.181384
H5    H     H_    0.436716 0.816377 0.085079 0.185208
H6    H     H_    0.564848 0.111403 0.065709 0.171425
H7    H     H_    0.720787 0.256890 0.049579 0.190340
H8    H     H_    0.766129 0.960435 0.388139 0.180936
H9    H     H_    0.831067 0.992222 0.487810 0.194851
H10   H     H_    0.269455 0.821378 0.938085 0.178766
H11   H     H_    0.485865 0.820572 0.946778 0.185200
H12   H     H_    0.218310 0.521493 0.072966 0.120980
H13   H     H_    0.519761 0.101725 0.922847 0.179150
H14   H     H_    0.693357 0.231757 0.912839 0.188557
H15   H     H_    0.306230 0.992030 0.520909 0.156078
H16   H     H_    0.013596 0.381964 0.436762 0.196858
H17   H     H_    0.986377 0.618015 0.563239 0.190663
H18   H     H_    0.781545 0.483363 0.924753 0.167794
H19   H     H_    0.717109 0.676204 0.919496 0.172926
H20   H     H_    0.684841 0.696387 0.064909 0.167823
H21   H     H_    0.779164 0.515176 0.069504 0.171711
N1    N     N_2   0.950340 0.457950 0.477370 -0.169625
N2    N     N_2   0.049660 0.542050 0.522630 -0.174079
N3    N     N_3   0.328445 0.741186 0.099507 -0.454545
N4    N     N_3   0.598694 0.228100 0.079205 -0.455114
N5    N     N_3   0.737449 0.017125 0.446244 -0.409102
N6    N     N_3   0.379750 0.760787 0.921642 -0.455610
N7    N     N_3   0.562186 0.213689 0.903066 -0.454425
O1    O     O_R   0.389240 0.738570 0.505550 -0.623408
O2    O     O_R   0.678400 0.711630 0.491050 -0.637597
O3    O     O_R   0.355360 0.513470 0.630110 -0.610825
O4    O     O_R   0.644510 0.486530 0.615610 -0.621586
O5    O     O_R   0.321600 0.288370 0.508950 -0.637753
O6    O     O_R   0.610760 0.261430 0.494450 -0.575769
O7    O     O_R   0.355490 0.513470 0.384390 -0.621592
O8    O     O_R   0.644640 0.486530 0.369890 -0.613053
Zn1   Zn    Zn3+2 0.306930 0.517990 0.509680 0.945249
Zn2   Zn    Zn3+2 0.693070 0.482010 0.490320 0.954254

loop_
_geom_bond_atom_site_label_1
_geom_bond_atom_site_label_2
_ccdc_geom_bond_type
C6    C10   S    
C7    C10   S    
C2    C4    S    
C11   C12   S    
C1    O2    A    
C5    C9    S    
C8    H21   S    
C18   N5    S    
C2    C18   D    
O4    Zn2   S    
C7    H18   S    
C12   C15   S    
C8    C12   S    
H7    N4    S    
C3    O3    A    
H8    N5    S    
C7    C8    S    
C14   N7    S    
C10   C16   S    
C13   C14   S    
C6    H1    S    
C1    C18   S    
H4    N3    S    
H5    N3    S    
C8    H20   S    
C4    O6    A    
H16   N1    S    
C2    H15   S    
C5    O7    A    
N1    N2    D    
C6    N6    S    
C3    O4    A    
C3    C17   S    
O5    Zn1   S    
O7    Zn1   S    
C9    C15   T    
H17   N2    S    
O8    Zn2   S    
H10   N6    S    
C4    O5    A    
C13   H3    S    
C14   H2    S    
C5    O8    A    
C13   N4    S    
C12   C13   S    
C11   N3    S    
O1    Zn1   S    
C10   C14   S    
C6    C11   S    
O2    Zn2   S    
H6    N4    S    
C1    O1    A    
N1    Zn2   S    
O3    Zn1   S    
H14   N7    S    
H9    N5    S    
N2    Zn1   S    
O6    Zn2   S    
C11   H12   S    
H11   N6    S    
C16   C17   T    
C7    H19   S    
H13   N7    S    
