data_mof_unit_39616.cif
_audit_creation_date              2012-12-11T15:45:45-0500
_audit_creation_method            fapswitch 2.2
_symmetry_space_group_name_H-M    P1
_symmetry_Int_Tables_number       1
_space_group_crystal_system       triclinic
_cell_length_a                    8.238482
_cell_length_b                    19.038059
_cell_length_c                    22.861267
_cell_angle_alpha                 95.509912
_cell_angle_beta                  89.827125
_cell_angle_gamma                 94.553684
_cell_volume                      3557.79687647

loop_
_atom_site_label
_atom_site_type_symbol
_atom_type_description
_atom_site_fract_x
_atom_site_fract_y
_atom_site_fract_z
_atom_type_partial_charge
Ba1   Ba    Ba6+2 0.850680 0.532880 0.472010 1.667026
Ba2   Ba    Ba6+2 0.339140 0.467180 0.527990 1.655525
C1    C     C_3   0.651455 0.792111 0.317388 -0.347830
C2    C     C_R   0.062731 0.559326 0.942045 -0.028968
C3    C     C_R   0.020190 0.554713 0.881513 0.594033
C4    C     C_3   0.187125 0.731523 0.316475 0.369611
C5    C     C_R   0.020194 0.428135 0.875045 0.590117
C6    C     C_R   0.060022 0.430889 0.935467 -0.021079
C7    C     C_R   0.081235 0.496879 0.969151 -0.052236
C8    C     C_R   0.085827 0.624876 0.976354 -0.071359
C9    C     C_R   0.126259 0.628355 0.036115 -0.073670
C10   C     C_R   0.144520 0.566391 0.063784 -0.022407
C11   C     C_R   0.121499 0.500379 0.030144 -0.051620
C12   C     C_3   0.640048 0.719640 0.340367 0.388886
C13   C     C_R   0.078885 0.368925 0.963023 -0.075549
C14   C     C_R   0.117119 0.372322 0.022869 -0.077031
C15   C     C_R   0.138902 0.437827 0.057225 -0.025215
C16   C     C_3   0.150382 0.752973 0.255578 0.327971
C17   C     C_R   0.178864 0.442175 0.117846 0.584929
C18   C     C_R   0.185534 0.568974 0.124209 0.591347
C19   C     C_2   0.809296 0.444612 0.768595 -0.095271
C20   C     C_3   0.775078 0.426080 0.703624 -0.075878
C21   C     C_1   0.005732 0.511437 0.685027 0.030458
C22   C     C_2   0.049698 0.519197 0.741593 -0.090814
C23   C     C_3   0.500704 0.365447 0.350803 0.296964
C24   C     C_2   0.946612 0.484556 0.786934 0.221574
C25   C     C_R   0.401898 0.544015 0.231660 -0.109644
C26   C     C_R   0.447145 0.547961 0.291166 -0.032490
C27   C     C_R   0.189835 0.486364 0.314490 0.044588
C28   C     C_3   0.199635 0.682804 0.596230 0.291020
C29   C     C_R   0.144356 0.481050 0.254567 -0.076579
C30   C     C_R   0.248788 0.511221 0.212647 0.228635
C31   C     C_2   0.877412 0.470565 0.664335 -0.268890
C32   C     C_R   0.395473 0.700853 0.472961 -0.287760
C33   C     C_R   0.537758 0.723783 0.504148 0.035192
C34   C     C_3   0.489995 0.346459 0.284712 -0.369511
C35   C     C_R   0.590750 0.795951 0.510181 -0.060283
C36   C     C_R   0.499020 0.845678 0.486014 0.042046
C37   C     C_R   0.351382 0.821780 0.456764 -0.150099
C38   C     C_R   0.298829 0.749544 0.451351 -0.013388
C39   C     C_R   0.554234 0.961903 0.443855 -0.225839
C40   C     C_3   0.211844 0.762693 0.610916 -0.340857
C41   C     C_R   0.605598 0.034869 0.448829 0.434881
C42   C     C_R   0.660826 0.068485 0.503849 -0.069075
C43   C     C_R   0.661832 0.028717 0.552493 -0.190026
C44   C     C_R   0.608766 0.956708 0.547215 0.597581
C45   C     C_3   0.015686 0.298212 0.685843 0.348678
C46   C     C_R   0.554480 0.922456 0.492683 -0.062631
C47   C     C_R   0.857006 0.172192 0.540706 -0.150147
C48   C     C_R   0.902441 0.245274 0.546400 0.000057
C49   C     C_R   0.658893 0.266426 0.494465 0.047783
C50   C     C_R   0.611834 0.193975 0.488564 -0.014700
C51   C     C_R   0.710270 0.145863 0.511604 0.055458
C52   C     C_3   0.998113 0.317129 0.405117 0.291118
C53   C     C_R   0.799459 0.291871 0.525579 -0.296744
C54   C     C_3   0.981569 0.236741 0.390363 0.264737
C55   C     C_3   0.692851 0.619620 0.645978 0.296286
C56   C     C_3   0.966430 0.253857 0.735839 -0.333099
C57   C     C_3   0.704835 0.637506 0.712187 -0.331194
C58   C     C_3   0.839610 0.204330 0.303016 0.268513
C59   C     C_3   0.473160 0.064434 0.366737 0.187209
C60   C     C_3   0.228277 0.872735 0.253468 0.171617
C61   C     C_3   0.507137 0.285152 0.684621 0.360270
C62   C     C_3   0.454521 0.224682 0.721136 -0.339819
C63   C     C_R   0.338997 0.521252 0.332101 -0.287919
F1    F     F_    0.605838 0.921151 0.595956 -0.709286
H1    H     H_    0.712919 0.723060 0.381496 0.086152
H2    H     H_    0.601778 0.573917 0.636547 0.086021
H3    H     H_    0.780374 0.809303 0.308557 0.186516
H4    H     H_    0.800601 0.681260 0.722838 0.138339
H5    H     H_    0.736264 0.590603 0.733714 0.076606
H6    H     H_    0.586236 0.653892 0.729663 0.136707
H7    H     H_    0.510515 0.704882 0.350294 -0.105762
H8    H     H_    0.602398 0.831043 0.350617 0.052744
H9    H     H_    0.378943 0.378830 0.366985 0.006351
H10   H     H_    0.589918 0.412143 0.359599 0.057497
H11   H     H_    0.399296 0.300598 0.274473 0.126956
H12   H     H_    0.297006 0.777864 0.648391 0.150887
H13   H     H_    0.451986 0.392026 0.262768 0.076900
H14   H     H_    0.610709 0.332667 0.267396 0.116787
H15   H     H_    0.579421 0.790183 0.276197 0.100117
H16   H     H_    0.258655 0.746683 0.226673 0.001237
H17   H     H_    0.074071 0.350214 0.704261 0.082068
H18   H     H_    0.902469 0.306887 0.662395 -0.082533
H19   H     H_    0.072323 0.250157 0.764946 0.147026
H20   H     H_    0.868772 0.278582 0.762105 0.117796
H21   H     H_    0.919277 0.199834 0.717876 0.100388
H22   H     H_    0.641872 0.289612 0.684946 -0.085557
H23   H     H_    0.257395 0.789674 0.572637 0.079987
H24   H     H_    0.463397 0.271702 0.638673 0.074899
H25   H     H_    0.508459 0.175711 0.702687 0.072346
H26   H     H_    0.320364 0.214646 0.720772 0.151414
H27   H     H_    0.223273 0.676146 0.311822 -0.079579
H28   H     H_    0.497281 0.237818 0.767209 0.115252
H29   H     H_    0.129947 0.323252 0.042154 0.120240
H30   H     H_    0.063406 0.317314 0.938377 0.119823
H31   H     H_    0.142976 0.679980 0.060684 0.120196
H32   H     H_    0.485803 0.565476 0.200157 0.093958
H33   H     H_    0.072639 0.673915 0.957071 0.124970
H34   H     H_    0.089911 0.780572 0.622822 0.133481
H35   H     H_    0.162662 0.549523 0.755239 0.112005
H36   H     H_    0.732895 0.418425 0.800066 0.094497
H37   H     H_    0.028971 0.453508 0.240551 0.099693
H38   H     H_    0.374885 0.524320 0.377816 0.076716
H39   H     H_    0.289238 0.767958 0.335488 -0.071057
H40   H     H_    0.857060 0.459304 0.617384 0.080386
H41   H     H_    0.500335 0.175277 0.465159 0.076175
H42   H     H_    0.517342 0.935322 0.401535 0.088495
H43   H     H_    0.702370 0.813206 0.534066 0.131043
H44   H     H_    0.700625 0.054017 0.595181 0.116625
H45   H     H_    0.880307 0.335904 0.420089 0.007742
H46   H     H_    0.937374 0.136149 0.557091 0.082124
H47   H     H_    0.275330 0.859235 0.439988 0.079377
H48   H     H_    0.835245 0.348067 0.529590 0.061578
H49   H     H_    0.050721 0.715674 0.235620 0.113373
H50   H     H_    0.353801 0.645263 0.469268 0.072148
H51   H     H_    0.322066 0.665679 0.585708 0.006187
H52   H     H_    0.117368 0.669194 0.557750 0.065075
H53   H     H_    0.888107 0.253578 0.284413 0.047693
H54   H     H_    0.715824 0.189976 0.284471 0.054498
H55   H     H_    0.915864 0.159994 0.289351 0.011573
H56   H     H_    0.089276 0.330217 0.440797 0.018626
H57   H     H_    0.362803 0.065225 0.395064 -0.000169
H58   H     H_    0.468621 0.015243 0.336260 0.020523
H59   H     H_    0.471086 0.109520 0.339468 0.076728
H60   H     H_    0.281733 0.865736 0.208751 0.041091
H61   H     H_    0.323365 0.870816 0.287556 0.005061
H62   H     H_    0.182648 0.926224 0.259262 0.067810
H63   H     H_    0.989777 0.211253 0.431673 0.007732
H64   H     H_    0.086906 0.219371 0.363343 0.002428
H65   H     H_    0.812708 0.605435 0.629116 0.001520
N1    N     N_R   0.997484 0.489475 0.848700 -0.424452
N2    N     N_R   0.202063 0.507302 0.150761 -0.424426
O1    O     O_2   0.896730 0.461690 0.361000 -0.455380
O2    O     O_2   0.243253 0.251097 0.543361 -0.496923
O3    O     O_3   0.127172 0.263004 0.649377 -0.595716
O4    O     O_3   0.137170 0.462400 0.432040 -0.490068
O5    O     O_3   0.560670 0.583970 0.528500 -0.493462
O6    O     O_2   0.373560 0.329680 0.473470 -0.470586
O7    O     O_3   0.550450 0.307265 0.377354 -0.610266
O8    O     O_2   0.472935 0.485612 0.707605 -0.485509
O9    O     O_3   0.442529 0.347847 0.708772 -0.570117
O10   O     O_2   0.001340 0.608723 0.858331 -0.590072
O11   O     O_2   0.006800 0.370880 0.845720 -0.618699
O12   O     O_3   0.646404 0.678789 0.620293 -0.619881
O13   O     O_2   0.195047 0.387964 0.141112 -0.601846
O14   O     O_2   0.205823 0.626255 0.153258 -0.626159
O15   O     O_3   0.657500 0.588540 0.395070 -0.488149
O16   O     O_2   0.785145 0.540867 0.292374 -0.473995
O17   O     O_3   0.047821 0.348966 0.354851 -0.660800
O18   O     O_3   0.701612 0.670531 0.297904 -0.577848
O19   O     O_2   0.816140 0.670340 0.526560 -0.461548
O20   O     O_3   0.069580 0.624410 0.423530 -0.469357
O21   O     O_2   0.963654 0.749343 0.461435 -0.491809
O22   O     O_3   0.827634 0.214443 0.364718 -0.614860
O23   O     O_3   0.047996 0.736603 0.351673 -0.572059
O24   O     O_3   0.619253 0.072692 0.399735 -0.614593
O25   O     O_3   0.096303 0.822044 0.259615 -0.631388
O26   O     O_2   0.292960 0.538340 0.639040 -0.452752
O27   O     O_3   0.052540 0.537650 0.567960 -0.497432
O28   O     O_3   0.532200 0.411510 0.604930 -0.474286
O29   O     O_3   0.139262 0.651084 0.645323 -0.626031
O30   O     O_3   0.629030 0.416090 0.471500 -0.482046
O31   O     O_3   0.120120 0.375640 0.576470 -0.476476
P1    P     P_3+3 0.067040 0.441110 0.370020 0.992724
P2    P     P_3+3 0.640420 0.660110 0.543790 0.997782
P3    P     P_3+3 0.096384 0.716423 0.422244 0.968233
P4    P     P_3+3 0.122660 0.558950 0.629980 0.995127
P5    P     P_3+3 0.099709 0.283099 0.577296 0.960107
P6    P     P_3+3 0.648618 0.585545 0.318256 0.981044
P7    P     P_3+3 0.555271 0.327963 0.453603 0.976354
P8    P     P_3+3 0.555449 0.419452 0.681702 0.964887

loop_
_geom_bond_atom_site_label_1
_geom_bond_atom_site_label_2
_ccdc_geom_bond_type
C19   C24   D    
C25   H32   S    
C39   H42   S    
C55   O12   S    
C61   H22   S    
C56   H21   S    
O4    P1    S    
Ba1   O4    S    
C5    C6    A    
C52   O17   S    
C43   C44   A    
C42   C43   A    
O18   P6    S    
C58   H53   S    
C59   H58   S    
C32   C38   A    
Ba2   O6    S    
C57   H4    S    
C1    H3    S    
C22   C24   S    
Ba1   Ba2   S    
C40   H34   S    
C34   H11   S    
C36   C37   A    
C45   O3    S    
C3    O10   D    
C32   H50   S    
C13   C14   A    
C54   H64   S    
C33   P2    S    
O26   P4    D    
Ba1   O19   S    
C22   H35   S    
C27   P1    S    
C1    H8    S    
C7    C11   A    
C38   P3    S    
C16   H16   S    
O28   P8    S    
C42   C51   S    
C61   O9    S    
C3    N1    Am   
C50   H41   S    
C14   C15   A    
C21   C31   D    
C12   O18   S    
C1    H15   S    
O15   P6    S    
C12   H1    S    
C60   O25   S    
O6    P7    D    
C45   H17   S    
C18   N2    Am   
O30   P7    S    
C36   C46   S    
C54   H63   S    
C57   H6    S    
C62   H26   S    
O27   P4    S    
C52   H56   S    
C19   C20   S    
O20   P3    S    
C39   C41   A    
O31   P5    S    
C8    H33   S    
C54   O22   S    
C56   H20   S    
Ba2   O28   S    
C5    O11   D    
C52   C54   S    
O12   P2    S    
C4    C16   S    
C44   C46   A    
O1    P1    D    
C17   O13   D    
C9    H31   S    
O16   P6    D    
Ba2   O5    S    
C12   H7    S    
C23   O7    S    
C34   H14   S    
Ba2   O31   S    
C13   H30   S    
C60   H60   S    
C43   H44   S    
C6    C7    A    
C28   H52   S    
O23   P3    S    
C37   H47   S    
C61   C62   S    
O17   P1    S    
O8    P8    D    
C49   C50   A    
C23   H9    S    
C29   H37   S    
Ba2   O30   S    
C41   C42   A    
C35   C36   A    
C16   O25   S    
C32   C33   A    
C59   O24   S    
C29   C30   A    
Ba1   P1    S    
C21   C22   D    
C4    H27   S    
C10   C18   A    
C18   O14   D    
C45   H18   S    
O3    P5    S    
Ba1   O20   S    
C5    N1    Am   
C1    C12   S    
C47   H46   S    
C27   C63   A    
C19   H36   S    
C26   P6    S    
C28   H51   S    
C40   H12   S    
C6    C13   A    
C39   C46   A    
O29   P4    S    
O21   P3    D    
C17   N2    Am   
Ba2   O26   S    
C55   H2    S    
C2    C8    A    
Ba1   O1    S    
C56   H19   S    
Ba2   P4    S    
C37   C38   A    
C24   N1    S    
C50   C51   A    
O9    P8    S    
C20   C31   S    
C14   H29   S    
C33   C35   A    
C25   C30   A    
Ba2   O4    S    
C35   H43   S    
C55   H65   S    
Ba1   O27   S    
C31   H40   S    
C2    C3    A    
C41   O24   S    
C34   H13   S    
C16   H49   S    
O19   P2    D    
C9    C10   A    
C44   F1    S    
C53   H48   S    
C11   C15   A    
O7    P7    S    
C48   C53   A    
C63   H38   S    
O5    P2    S    
C59   H57   S    
C40   H23   S    
C23   H10   S    
C49   P7    S    
C26   C63   A    
C58   O22   S    
C62   H28   S    
C27   C29   A    
C45   C56   S    
C60   H62   S    
C30   N2    S    
Ba1   P2    S    
C47   C51   A    
C61   H24   S    
C15   C17   A    
C4    H39   S    
C52   H45   S    
C58   H54   S    
C48   P5    S    
C49   C53   A    
O2    P5    D    
C58   H55   S    
C4    O23   S    
C55   C57   S    
C8    C9    A    
C23   C34   S    
C21   P4    S    
C60   H61   S    
C10   C11   A    
Ba1   O30   S    
Ba2   O27   S    
C47   C48   A    
C25   C26   A    
C28   O29   S    
C28   C40   S    
Ba1   O15   S    
C59   H59   S    
C62   H25   S    
C2    C7    A    
C20   P8    S    
Ba1   O5    S    
C57   H5    S    
