data_mof_unit_56191.cif
_audit_creation_date              2012-12-10T20:36:40-0500
_audit_creation_method            fapswitch 2.2
_symmetry_space_group_name_H-M    P1
_symmetry_Int_Tables_number       1
_space_group_crystal_system       triclinic
_cell_length_a                    10.488154
_cell_length_b                    10.743416
_cell_length_c                    9.895422
_cell_angle_alpha                 88.960498
_cell_angle_beta                  89.566699
_cell_angle_gamma                 90.686658
_cell_volume                      1114.70500078

loop_
_atom_site_label
_atom_site_type_symbol
_atom_type_description
_atom_site_fract_x
_atom_site_fract_y
_atom_site_fract_z
_atom_type_partial_charge
C1    C     C_R   0.500033 0.259918 0.500788 0.874319
C2    C     C_R   0.551996 0.933727 0.610942 0.031396
C3    C     C_3   0.508871 0.920025 0.755003 0.348873
C4    C     C_R   0.257463 0.501996 0.500644 0.874569
C5    C     C_3   0.501433 0.060770 0.755189 -0.574913
C6    C     C_R   0.399892 0.448339 0.073146 0.157236
C7    C     C_R   0.593729 0.559803 0.069529 0.216404
C8    C     C_R   0.594291 0.557753 0.925557 -0.204934
C9    C     C_R   0.398589 0.451999 0.930234 0.136956
C10   C     C_3   0.354152 0.321829 0.921564 -0.616947
C11   C     C_3   0.363091 0.312966 0.074401 0.299656
C12   C     C_3   0.961243 0.487805 0.372694 -0.114719
C13   C     C_R   0.501466 0.739630 0.498927 0.888901
C14   C     C_R   0.742633 0.500398 0.499500 0.856861
C15   C     C_3   0.039203 0.517858 0.628642 -0.138088
C16   C     C_3   0.956542 0.408175 0.579513 -0.198078
C17   C     C_3   0.877757 0.501654 0.498711 0.023064
C18   C     C_3   0.957614 0.611473 0.547882 -0.182023
C19   C     C_3   0.043801 0.597654 0.421835 -0.164246
C20   C     C_3   0.696200 0.754349 0.122693 -0.801706
C21   C     C_3   0.208194 0.163022 0.118240 0.128114
C22   C     C_3   0.107986 0.121989 0.221889 -0.862880
C23   C     C_3   0.042481 0.394436 0.453716 -0.168434
C24   C     C_3   0.359405 0.836827 0.903894 0.127055
C25   C     C_3   0.229754 0.772553 0.915587 -0.831135
C26   C     C_3   0.122446 0.503920 0.502407 0.029353
C27   C     C_R   0.549461 0.061102 0.612756 0.042471
C28   C     C_R   0.508810 0.127702 0.499358 -0.058216
C29   C     C_R   0.486391 0.065610 0.378186 -0.220297
C30   C     C_R   0.487252 0.937482 0.376659 -0.241210
C31   C     C_R   0.512912 0.871144 0.496003 -0.047285
H1    H     H_    0.916285 0.330886 0.643169 0.138366
H2    H     H_    0.917981 0.699673 0.586020 0.127615
H3    H     H_    0.084221 0.674753 0.358013 0.133195
H4    H     H_    0.926305 0.474195 0.268398 0.139310
H5    H     H_    0.083419 0.306556 0.417943 0.158612
H6    H     H_    0.460774 0.114967 0.286724 0.160833
H7    H     H_    0.459102 0.891245 0.285149 0.152020
H8    H     H_    0.782239 0.583152 0.114871 0.203294
H9    H     H_    0.724915 0.782517 0.018118 0.204064
H10   H     H_    0.765662 0.794553 0.194415 0.241807
H11   H     H_    0.600686 0.792244 0.145012 0.240004
H12   H     H_    0.585050 0.879521 0.819814 0.043339
H13   H     H_    0.289644 0.097809 0.127625 0.107600
H14   H     H_    0.166267 0.153466 0.016048 0.145665
H15   H     H_    0.025756 0.186122 0.218762 0.254991
H16   H     H_    0.073587 0.026528 0.199094 0.208302
H17   H     H_    0.150277 0.120490 0.324400 0.247881
H18   H     H_    0.356540 0.924553 0.962018 0.111329
H19   H     H_    0.431325 0.773487 0.949073 0.138424
H20   H     H_    0.230518 0.684171 0.859077 0.262110
H21   H     H_    0.207269 0.751303 0.023478 0.200241
H22   H     H_    0.154886 0.834002 0.873486 0.246527
H23   H     H_    0.401503 0.093657 0.761235 0.220746
H24   H     H_    0.570567 0.103955 0.825424 0.160890
H25   H     H_    0.671492 0.602253 0.869089 0.156847
H26   H     H_    0.256110 0.316010 0.880084 0.210375
H27   H     H_    0.426337 0.265569 0.870868 0.193994
H28   H     H_    0.442399 0.254019 0.111701 0.066401
H29   H     H_    0.075160 0.530062 0.732880 0.143076
N1    N     N_R   0.499140 0.499140 0.142800 -0.156139
N2    N     N_R   0.499140 0.499180 0.857150 -0.105917
N3    N     N_2   0.694656 0.620245 0.137740 -0.243898
O1    O     O_R   0.500020 0.316790 0.614690 -0.615285
O2    O     O_3   0.387296 0.862227 0.766338 -0.566408
O3    O     O_R   0.500000 0.316760 0.385350 -0.625940
O4    O     O_R   0.313960 0.499990 0.614650 -0.620286
O5    O     O_R   0.313940 0.499950 0.385310 -0.596407
O6    O     O_R   0.500000 0.683240 0.614650 -0.586250
O7    O     O_R   0.499980 0.683210 0.385310 -0.621051
O8    O     O_R   0.686060 0.500050 0.614690 -0.632499
O9    O     O_R   0.686040 0.500010 0.385350 -0.606806
O10   O     O_3   0.244458 0.288828 0.139154 -0.575533
Zn1   Zn    Zn3+2 0.500010 0.500020 0.653130 0.954043
Zn2   Zn    Zn3+2 0.499990 0.499980 0.346870 0.970401

loop_
_geom_bond_atom_site_label_1
_geom_bond_atom_site_label_2
_ccdc_geom_bond_type
C15   C18   S    
C22   H17   S    
C14   O8    A    
C8    H25   S    
C6    C9    A    
C20   H10   S    
C7    C8    A    
N1    Zn2   S    
O5    Zn2   S    
C12   C23   S    
C3    H12   S    
C6    N1    A    
C28   C29   A    
C10   H27   S    
C25   H22   S    
C30   C31   A    
C20   H9    S    
C13   O7    A    
C15   C16   S    
C21   O10   S    
C30   H7    S    
C18   C19   S    
C15   H29   S    
C23   C26   S    
C19   C26   S    
C7    N1    A    
C5    C27   S    
C16   C17   S    
C12   C17   S    
C1    C28   S    
C2    C27   A    
C9    C10   S    
C22   H16   S    
C21   C22   S    
C14   C17   S    
C3    O2    S    
O9    Zn2   S    
C11   H28   S    
C13   C31   S    
C1    O3    A    
C21   H14   S    
C24   H19   S    
C9    N2    A    
C5    H23   S    
C10   H26   S    
C24   C25   S    
C11   O10   S    
C6    C11   S    
C4    O5    A    
C15   C26   S    
C2    C31   A    
C25   H20   S    
C29   C30   A    
C4    O4    A    
C21   H13   S    
C20   H11   S    
C17   C18   S    
O6    Zn1   S    
O4    Zn1   S    
C12   H4    S    
C7    N3    S    
C24   O2    S    
C22   H15   S    
C16   C23   S    
C1    O1    A    
O7    Zn2   S    
C24   H18   S    
C14   O9    A    
C5    H24   S    
C3    C5    S    
C19   H3    S    
O8    Zn1   S    
C4    C26   S    
C16   H1    S    
H8    N3    S    
C20   N3    S    
C2    C3    S    
C25   H21   S    
C13   O6    A    
O3    Zn2   S    
C12   C19   S    
C18   H2    S    
C10   C11   S    
C23   H5    S    
C29   H6    S    
C27   C28   A    
O1    Zn1   S    
N2    Zn1   S    
C8    N2    A    
