data_mof_unit_62580.cif
_audit_creation_date              2012-10-26T18:11:27-0400
_audit_creation_method            fapswitch 2.2
_symmetry_space_group_name_H-M    P1
_symmetry_Int_Tables_number       1
_space_group_crystal_system       triclinic
_cell_length_a                    18.679305
_cell_length_b                    18.726969
_cell_length_c                    18.828787
_cell_angle_alpha                 109.221503
_cell_angle_beta                  109.620715
_cell_angle_gamma                 108.876872
_cell_volume                      5113.07926219

loop_
_atom_site_label
_atom_site_type_symbol
_atom_type_description
_atom_site_fract_x
_atom_site_fract_y
_atom_site_fract_z
_atom_type_partial_charge
C1    C     C_R   0.618358 0.618642 0.499241 0.542953
C2    C     C_R   0.685929 0.685323 0.499005 -0.006520
C3    C     C_R   0.678822 0.499010 0.757786 0.212102
C4    C     C_R   0.380126 0.499727 0.381049 0.583909
C5    C     C_R   0.745966 0.505352 0.826175 -0.032654
C6    C     C_R   0.817293 0.501725 0.817684 0.014629
C7    C     C_R   0.824514 0.498999 0.744776 0.214003
C8    C     C_R   0.763164 0.504551 0.682134 -0.043293
C9    C     C_R   0.688319 0.501019 0.687152 -0.001067
C10   C     C_R   0.237977 0.318656 0.492049 -0.029130
C11   C     C_R   0.177335 0.258683 0.500286 -0.008383
C12   C     C_3   0.172443 0.439101 0.229904 0.192276
C13   C     C_R   0.185878 0.186269 0.500306 0.039155
C14   C     C_R   0.258500 0.177906 0.500090 -0.009762
C15   C     C_R   0.327120 0.246887 0.509158 0.003490
C16   C     C_R   0.381318 0.381487 0.500226 0.541811
C17   C     C_R   0.314678 0.314902 0.501030 0.046740
C18   C     C_R   0.003443 0.618484 0.122202 0.562069
C19   C     C_R   0.122961 0.499728 0.123018 0.595883
C20   C     C_R   0.004135 0.381306 0.884660 0.580699
C21   C     C_R   0.884328 0.500285 0.884247 0.569982
C22   C     C_R   0.999349 0.879180 0.382246 0.582841
C23   C     C_3   0.238546 0.517233 0.321408 0.217991
C24   C     C_R   0.881457 0.881178 0.499999 0.619882
C25   C     C_R   0.999038 0.118593 0.617347 0.532515
C26   C     C_R   0.118720 0.118788 0.499964 0.512367
C27   C     C_R   0.987015 0.747853 0.175801 0.205361
C28   C     C_R   0.619933 0.500085 0.619578 0.563446
C29   C     C_R   0.985244 0.810297 0.239024 -0.123661
C30   C     C_R   0.998797 0.810113 0.316560 -0.005216
C31   C     C_R   0.012869 0.745191 0.330764 0.243963
C32   C     C_R   0.018269 0.683478 0.268675 -0.041723
C33   C     C_R   0.004011 0.684603 0.190306 0.024955
C34   C     C_3   0.311856 0.500034 0.314409 -0.052544
C35   C     C_R   0.079386 0.327383 0.811402 0.236424
C36   C     C_R   0.077742 0.264890 0.743977 -0.021658
C37   C     C_R   0.999237 0.186371 0.683128 0.027195
C38   C     C_R   0.921004 0.172894 0.684917 -0.002580
C39   C     C_R   0.921083 0.240604 0.746582 -0.026451
C40   C     C_3   0.328876 0.560495 0.276011 0.236252
C41   C     C_R   0.001579 0.315144 0.813644 0.038502
C42   C     C_3   0.255214 0.577362 0.282356 0.213611
C43   C     C_3   0.189698 0.499369 0.191087 -0.033854
C44   C     C_3   0.263060 0.482442 0.184443 0.204008
C45   C     C_R   0.757521 0.756949 0.579060 -0.017753
C46   C     C_3   0.245905 0.422030 0.223074 -0.084461
C47   C     C_3   0.604103 0.603253 0.332147 -0.269624
C48   C     C_3   0.740747 0.517884 0.907722 -0.293832
C49   C     C_3   0.780239 0.516193 0.612369 -0.318472
C50   C     C_3   0.220899 0.385720 0.472262 -0.319732
C51   C     C_3   0.106063 0.274190 0.511881 -0.362206
C52   C     C_3   0.261885 0.095083 0.488700 -0.353458
C53   C     C_3   0.413781 0.248681 0.529578 -0.349381
C54   C     C_3   0.041093 0.619086 0.288625 -0.271250
C55   C     C_3   0.160609 0.284425 0.738308 -0.323813
C56   C     C_R   0.819315 0.823512 0.578690 0.191385
C57   C     C_3   0.838140 0.085946 0.623612 -0.333809
C58   C     C_3   0.835587 0.234563 0.739413 -0.351148
C59   C     C_3   0.238500 0.332684 0.187619 -0.298612
C60   C     C_3   0.769092 0.761228 0.664387 -0.302881
C61   C     C_R   0.815144 0.813790 0.499895 0.032297
C62   C     C_R   0.748255 0.739526 0.420965 0.208678
C63   C     C_R   0.680634 0.677054 0.419417 -0.014469
Cl1   Cl    Cl    0.261031 0.680826 0.320909 -0.477923
Cl2   Cl    Cl    0.221457 0.542409 0.412119 -0.504120
Cl3   Cl    Cl    0.899252 0.921829 0.676575 -0.590540
Cl4   Cl    Cl    0.750677 0.723103 0.323506 -0.533459
Cl5   Cl    Cl    0.581058 0.485479 0.759861 -0.578650
Cl6   Cl    Cl    0.909107 0.485475 0.729689 -0.576834
Cl7   Cl    Cl    0.964534 0.749333 0.077628 -0.559821
Cl8   Cl    Cl    0.432027 0.643813 0.307920 -0.487436
Cl9   Cl    Cl    0.019269 0.737573 0.423945 -0.516248
Cl10  Cl    Cl    0.180975 0.421051 0.892909 -0.466664
Cl11  Cl    Cl    0.282203 0.459651 0.095299 -0.432920
Cl12  Cl    Cl    0.069725 0.357646 0.201859 -0.514731
Cu1   Cu    Cu3+1 0.500500 0.438200 0.438680 0.953534
Cu2   Cu    Cu3+1 0.499500 0.561800 0.561320 1.098580
Cu3   Cu    Cu3+1 0.942090 0.438180 0.003770 1.026775
Cu4   Cu    Cu3+1 0.065710 0.561750 0.003750 1.222815
Cu5   Cu    Cu3+1 0.062280 0.999890 0.562170 1.095234
Cu6   Cu    Cu3+1 0.937720 0.999930 0.437650 1.040882
H1    H     H_    0.973559 0.859583 0.227624 0.177769
H2    H     H_    0.766688 0.453630 0.563094 0.181174
H3    H     H_    0.151228 0.368203 0.444255 0.172259
H4    H     H_    0.259581 0.449669 0.532154 0.190687
H5    H     H_    0.238592 0.390967 0.422762 0.167607
H6    H     H_    0.131229 0.344321 0.553204 0.145929
H7    H     H_    0.050494 0.249943 0.447815 0.165590
H8    H     H_    0.082346 0.242742 0.545990 0.141712
H9    H     H_    0.196558 0.037414 0.441215 0.143797
H10   H     H_    0.304780 0.085633 0.462001 0.138249
H11   H     H_    0.285575 0.096311 0.551843 0.165816
H12   H     H_    0.544915 0.570637 0.334969 0.181909
H13   H     H_    0.468926 0.315716 0.565493 0.175970
H14   H     H_    0.428819 0.220805 0.572740 0.142305
H15   H     H_    0.411889 0.211436 0.468698 0.146148
H16   H     H_    0.056526 0.581826 0.242459 0.162907
H17   H     H_    0.100154 0.653960 0.353243 0.228966
H18   H     H_    0.986212 0.572789 0.288827 0.187540
H19   H     H_    0.186212 0.347428 0.739404 0.176608
H20   H     H_    0.210354 0.287934 0.794171 0.198284
H21   H     H_    0.151782 0.236493 0.678283 0.123894
H22   H     H_    0.850541 0.031867 0.596857 0.176190
H23   H     H_    0.584338 0.628075 0.287090 0.225828
H24   H     H_    0.803997 0.068330 0.658455 0.157104
H25   H     H_    0.794524 0.089155 0.569085 0.144104
H26   H     H_    0.838398 0.298451 0.756094 0.164309
H27   H     H_    0.780077 0.190003 0.672546 0.132795
H28   H     H_    0.821266 0.211885 0.783076 0.164866
H29   H     H_    0.182103 0.289560 0.120958 0.189842
H30   H     H_    0.298683 0.337779 0.185901 0.175386
H31   H     H_    0.228914 0.304789 0.229489 0.157029
H32   H     H_    0.725911 0.782977 0.682110 0.175860
H33   H     H_    0.753790 0.696786 0.659562 0.116695
H34   H     H_    0.622682 0.554833 0.304158 0.167025
H35   H     H_    0.836983 0.805704 0.718231 0.203637
H36   H     H_    0.804394 0.543498 0.964545 0.160301
H37   H     H_    0.719653 0.566807 0.926431 0.204439
H38   H     H_    0.693269 0.455537 0.896284 0.170018
H39   H     H_    0.741409 0.541243 0.580134 0.130314
H40   H     H_    0.849212 0.565189 0.641316 0.192688
O1    O     O_R   0.590610 0.537990 0.448230 -0.527441
O2    O     O_R   0.948100 0.909770 0.357840 -0.494111
O3    O     O_R   0.962410 0.909720 0.552480 -0.438440
O4    O     O_R   0.589770 0.642360 0.551790 -0.504134
O5    O     O_R   0.857220 0.909750 0.447330 -0.475301
O6    O     O_R   0.051900 0.090060 0.641980 -0.488279
O7    O     O_R   0.946710 0.090090 0.536830 -0.530074
O8    O     O_R   0.142780 0.090070 0.552500 -0.532080
O9    O     O_R   0.037590 0.090110 0.447350 -0.517179
O10   O     O_R   0.409550 0.447810 0.357350 -0.525254
O11   O     O_R   0.408710 0.552190 0.460910 -0.452238
O12   O     O_R   0.055400 0.642330 0.093210 -0.459314
O13   O     O_R   0.410230 0.357640 0.448210 -0.522251
O14   O     O_R   0.409390 0.462010 0.551770 -0.485016
O15   O     O_R   0.591290 0.447810 0.539090 -0.527075
O16   O     O_R   0.590450 0.552190 0.642650 -0.456448
O17   O     O_R   0.951000 0.537980 0.093230 -0.536024
O18   O     O_R   0.042570 0.447790 0.094640 -0.475753
O19   O     O_R   0.146970 0.552140 0.094620 -0.450966
O20   O     O_R   0.952400 0.357600 0.914310 -0.529712
O21   O     O_R   0.056800 0.461950 0.914290 -0.432159
O22   O     O_R   0.860830 0.447790 0.912900 -0.547032
O23   O     O_R   0.965230 0.552140 0.912880 -0.440767
O24   O     O_R   0.053290 0.909730 0.462990 -0.462949

loop_
_geom_bond_atom_site_label_1
_geom_bond_atom_site_label_2
_ccdc_geom_bond_type
C57   H24   S    
C45   C60   S    
C35   C41   A    
C24   C61   S    
C40   Cl8   S    
Cu6   O5    S    
C27   C29   A    
C58   H28   S    
C52   H9    S    
C3    Cl5   S    
C16   O13   A    
Cu3   O18   S    
C20   C41   S    
Cu1   O15   S    
C50   H3    S    
C7    C8    A    
C39   C41   A    
C27   C33   A    
C47   H34   S    
C55   H21   S    
C37   C38   A    
C23   C42   S    
C62   Cl4   S    
Cu6   O2    S    
C34   C40   S    
C15   C53   S    
C36   C37   A    
C25   O7    A    
Cu2   O16   S    
C58   H26   S    
C12   C43   S    
C47   C63   S    
C5    C6    A    
C46   C59   S    
Cu1   O10   S    
Cu4   O21   S    
C53   H14   S    
C10   C17   A    
C24   O3    A    
C59   H29   S    
C18   O12   A    
C1    C2    S    
C18   O17   A    
C1    O1    A    
C50   H4    S    
C25   C37   S    
C60   H33   S    
C14   C52   S    
C35   C36   A    
C45   C56   A    
C19   C43   S    
C19   O19   A    
C55   H19   S    
C59   H30   S    
C54   H16   S    
C34   C46   S    
C4    O10   A    
C29   C30   A    
C35   Cl10  S    
C26   O9    A    
C40   C42   S    
C57   H25   S    
C13   C14   A    
C53   H15   S    
C24   O5    A    
C60   H32   S    
C57   H22   S    
Cu3   O17   S    
C32   C54   S    
C44   C46   S    
C48   H38   S    
C2    C45   A    
Cu4   O12   S    
C5    C48   S    
C4    C34   S    
C20   O21   A    
C22   O2    A    
C11   C51   S    
Cu1   Cu2   S    
C21   O22   A    
C4    O11   A    
Cu3   O20   S    
C51   H6    S    
Cu1   O13   S    
Cu3   Cu4   S    
C8    C9    A    
C48   H37   S    
C39   C58   S    
Cu2   O11   S    
C43   C44   S    
C62   C63   A    
C3    C9    A    
C38   C57   S    
C31   C32   A    
C12   C23   S    
C22   O24   A    
C30   C31   A    
C23   C34   S    
C49   H40   S    
C59   H31   S    
C47   H12   S    
C56   C61   A    
C6    C21   S    
C44   Cl11  S    
C26   O8    A    
C48   H36   S    
C27   Cl7   S    
C47   H23   S    
C12   C46   S    
C31   Cl9   S    
Cu6   O7    S    
C54   H18   S    
C60   H35   S    
C42   C43   S    
C10   C50   S    
C42   Cl1   S    
Cu2   O4    S    
C2    C63   A    
Cu5   O3    S    
C15   C17   A    
Cu5   O24   S    
Cu5   O8    S    
C22   C30   S    
C53   H13   S    
C28   O15   A    
C20   O20   A    
C28   O16   A    
C21   O23   A    
C1    O4    A    
Cu5   Cu6   S    
C3    C5    A    
C51   H7    S    
C7    Cl6   S    
C6    C7    A    
Cu5   O6    S    
C55   H20   S    
Cu4   O23   S    
Cu1   O1    S    
C32   C33   A    
C23   Cl2   S    
C25   O6    A    
C29   H1    S    
C36   C55   S    
Cu3   O22   S    
C51   H8    S    
C11   C13   A    
C49   H2    S    
Cu6   O9    S    
C38   C39   A    
C56   Cl3   S    
Cu4   O19   S    
C58   H27   S    
C61   C62   A    
C13   C26   S    
C18   C33   S    
C52   H11   S    
C10   C11   A    
C50   H5    S    
C49   H39   S    
C40   C44   S    
C9    C28   S    
C19   O18   A    
C12   Cl12  S    
C14   C15   A    
C54   H17   S    
C52   H10   S    
Cu2   O14   S    
C16   O14   A    
C8    C49   S    
C16   C17   S    
