data_mof_unit_30947.cif
_audit_creation_date              2012-12-10T20:31:04-0500
_audit_creation_method            fapswitch 2.2
_symmetry_space_group_name_H-M    P1
_symmetry_Int_Tables_number       1
_space_group_crystal_system       triclinic
_cell_length_a                    14.980782
_cell_length_b                    10.673667
_cell_length_c                    9.849275
_cell_angle_alpha                 90.011328
_cell_angle_beta                  90.069568
_cell_angle_gamma                 90.09369
_cell_volume                      1574.89457765

loop_
_atom_site_label
_atom_site_type_symbol
_atom_type_description
_atom_site_fract_x
_atom_site_fract_y
_atom_site_fract_z
_atom_type_partial_charge
C1    C     C_R   0.497165 0.259923 0.500004 0.865918
C2    C     C_R   0.907177 0.535254 0.614516 0.121911
C3    C     C_R   0.955149 0.383501 0.280504 -0.183720
C4    C     C_R   0.047803 0.387051 0.280098 -0.244042
C5    C     C_R   0.093651 0.438829 0.390387 0.128706
C6    C     C_R   0.046686 0.486964 0.502890 0.092162
C7    C     C_R   0.092789 0.538589 0.614898 0.120292
C8    C     C_R   0.046014 0.586707 0.726070 -0.224575
C9    C     C_R   0.953341 0.585418 0.725681 -0.191242
C10   C     C_R   0.185940 0.443781 0.390039 -0.266227
C11   C     C_R   0.231070 0.495656 0.500681 -0.068447
C12   C     C_R   0.326711 0.499321 0.500050 0.892325
C13   C     C_R   0.185099 0.542026 0.613176 -0.269759
C14   C     C_R   0.481591 0.063999 0.623106 0.131293
C15   C     C_R   0.482617 0.128618 0.500392 -0.104853
C16   C     C_R   0.466339 0.064726 0.378372 -0.235389
C17   C     C_R   0.466380 0.935204 0.378406 -0.229629
C18   C     C_R   0.482721 0.871449 0.500448 -0.101589
C19   C     C_R   0.481628 0.936208 0.623166 0.143303
C20   C     C_3   0.543853 0.929466 0.741784 -0.500645
C21   C     C_3   0.543842 0.071504 0.741615 -0.477101
C22   C     C_R   0.463012 0.402396 0.071112 0.227686
C23   C     C_R   0.497243 0.740118 0.499997 0.876168
C24   C     C_R   0.543934 0.590106 0.072138 -0.107900
C25   C     C_R   0.543997 0.590058 0.928039 -0.136505
C26   C     C_R   0.463195 0.402282 0.928460 0.217768
C27   C     C_3   0.368503 0.359890 0.921817 -0.506009
C28   C     C_3   0.367989 0.360963 0.075964 -0.537673
C29   C     C_R   0.673301 0.497260 0.500028 0.919972
C30   C     C_R   0.815067 0.537560 0.611977 -0.337735
C31   C     C_R   0.769054 0.488488 0.500688 -0.193675
C32   C     C_R   0.814341 0.430519 0.392348 0.468251
C33   C     C_R   0.907462 0.432224 0.391210 0.001824
C34   C     C_R   0.953712 0.484412 0.503006 -0.014813
H1    H     H_    0.779055 0.580120 0.695644 0.179950
H2    H     H_    0.460067 0.886192 0.282529 0.170488
H3    H     H_    0.511220 0.888622 0.832958 0.201842
H4    H     H_    0.609708 0.888202 0.715275 0.199032
H5    H     H_    0.511283 0.112600 0.832671 0.201417
H6    H     H_    0.609669 0.112994 0.714812 0.202852
H7    H     H_    0.577970 0.664113 0.126640 0.145921
H8    H     H_    0.578255 0.663827 0.873697 0.143058
H9    H     H_    0.323520 0.431220 0.876247 0.220693
H10   H     H_    0.362259 0.264300 0.877964 0.200138
H11   H     H_    0.323304 0.433850 0.118854 0.217309
H12   H     H_    0.360585 0.266164 0.121293 0.196064
H13   H     H_    0.921152 0.343545 0.193533 0.190015
H14   H     H_    0.083582 0.349798 0.193462 0.150622
H15   H     H_    0.222624 0.405755 0.304769 0.151122
H16   H     H_    0.221137 0.582232 0.698365 0.154779
H17   H     H_    0.081043 0.626239 0.812431 0.146742
H18   H     H_    0.917780 0.624259 0.811694 0.146913
H19   H     H_    0.460038 0.113650 0.282482 0.167258
N1    N     N_R   0.499390 0.499140 0.142800 -0.105810
N2    N     N_R   0.499390 0.499180 0.857150 -0.107527
O1    O     O_R   0.500010 0.316790 0.614690 -0.617379
O2    O     O_R   0.500000 0.316760 0.385350 -0.623571
O3    O     O_R   0.367850 0.499990 0.614680 -0.627245
O4    O     O_R   0.367840 0.499950 0.385340 -0.626801
O5    O     O_R   0.500000 0.683240 0.614650 -0.622691
O6    O     O_R   0.499990 0.683210 0.385310 -0.632850
O7    O     O_R   0.632160 0.500050 0.614660 -0.631452
O8    O     O_R   0.632150 0.500010 0.385320 -0.563484
Zn1   Zn    Zn3+2 0.500010 0.500020 0.653130 0.940831
Zn2   Zn    Zn3+2 0.499990 0.499980 0.346870 0.961910
O9    O     O_3   0.767790 0.377416 0.285090 -0.597663
C35   C     C_3   0.747445 0.252067 0.318654 -0.299708
H20   H     H_    0.809217 0.195849 0.333062 0.149478
H21   H     H_    0.709420 0.209803 0.233443 0.193971
H22   H     H_    0.704750 0.246110 0.410844 0.147726

loop_
_geom_bond_atom_site_label_1
_geom_bond_atom_site_label_2
_ccdc_geom_bond_type
C25   H8    S    
C7    C13   A    
C11   C12   S    
O8    Zn2   S    
C24   C25   A    
C6    C7    A    
C1    C15   S    
C17   H2    S    
C1    O2    A    
C10   H15   S    
C20   H4    S    
C32   O9    S    
C19   C20   S    
C21   H5    S    
C17   C18   A    
O5    Zn1   S    
C2    C30   A    
C35   H22   S    
C12   O3    A    
N2    Zn1   S    
C2    C34   A    
O1    Zn1   S    
O9    C35   S    
C5    C10   A    
C22   N1    A    
N1    Zn2   S    
C22   C28   S    
C4    C5    A    
O4    Zn2   S    
C35   H20   S    
C20   H3    S    
C11   C13   A    
C8    H17   S    
C28   H12   S    
C26   C27   S    
C5    C6    A    
C9    H18   S    
C24   H7    S    
C30   H1    S    
C18   C23   S    
C15   C16   A    
C14   C19   A    
C14   C21   S    
C3    H13   S    
C29   O8    A    
C26   N2    A    
C33   C34   A    
C12   O4    A    
C23   O5    A    
O3    Zn1   S    
C30   C31   A    
C28   H11   S    
C6    C34   A    
C10   C11   A    
C3    C33   A    
C24   N1    A    
C13   H16   S    
O6    Zn2   S    
C7    C8    A    
C4    H14   S    
C20   C21   S    
C29   C31   S    
C18   C19   A    
C22   C26   A    
C23   O6    A    
C27   C28   S    
C27   H9    S    
C29   O7    A    
C16   C17   A    
O7    Zn1   S    
C14   C15   A    
C16   H19   S    
C2    C9    A    
C27   H10   S    
C1    O1    A    
C31   C32   A    
C3    C4    A    
C25   N2    A    
C32   C33   A    
O2    Zn2   S    
C8    C9    A    
C35   H21   S    
C21   H6    S    
