data_mof_unit_50750.cif
_audit_creation_date              2013-03-05T15:39:51-0500
_audit_creation_method            fapswitch 2.2
_symmetry_space_group_name_H-M    P1
_symmetry_Int_Tables_number       1
_space_group_crystal_system       triclinic
_cell_length_a                    16.939061
_cell_length_b                    16.952141
_cell_length_c                    16.920755
_cell_angle_alpha                 65.601809
_cell_angle_beta                  65.620493
_cell_angle_gamma                 66.158415
_cell_volume                      3867.10742366

loop_
_atom_site_label
_atom_site_type_symbol
_atom_site_description
_atom_site_fract_x
_atom_site_fract_y
_atom_site_fract_z
_atom_type_partial_charge
O1    O     O_R   0.982940 0.138950 0.510160 -0.645336
O2    O     O_R   0.017060 0.861050 0.489840 -0.644714
O3    O     O_R   0.138950 0.510160 0.982940 -0.639971
O4    O     O_R   0.861050 0.489840 0.017060 -0.640291
O5    O     O_R   0.510160 0.982940 0.138950 -0.645290
O6    O     O_R   0.489840 0.017060 0.861050 -0.653469
O7    O     O_R   0.489840 0.861050 0.017060 -0.642201
O8    O     O_R   0.510160 0.138950 0.982940 -0.640398
O9    O     O_R   0.017060 0.489840 0.861050 -0.647658
O10   O     O_R   0.982940 0.510160 0.138950 -0.641655
O11   O     O_R   0.861050 0.017060 0.489840 -0.639436
O12   O     O_R   0.138950 0.982940 0.510160 -0.639931
C1    C     C_R   0.591426 0.032250 0.591625 0.073402
C2    C     C_R   0.408711 0.967346 0.408471 0.070933
C3    C     C_R   0.032308 0.592166 0.590882 0.074356
C4    C     C_R   0.967526 0.407884 0.409157 0.072945
C5    C     C_R   0.596892 0.597240 0.014366 0.072085
C6    C     C_R   0.414202 0.412811 0.950620 0.078649
O13   O     O_R   0.867700 0.025880 0.612340 -0.572317
O14   O     O_R   0.132300 0.974120 0.387660 -0.564882
O15   O     O_R   0.025880 0.612340 0.867700 -0.567730
O16   O     O_R   0.974120 0.387660 0.132300 -0.555562
O17   O     O_R   0.612340 0.867700 0.025880 -0.568560
O18   O     O_R   0.387660 0.132300 0.974120 -0.574158
O19   O     O_R   0.387660 0.974120 0.132300 -0.554799
O20   O     O_R   0.612340 0.025880 0.867700 -0.564784
O21   O     O_R   0.132300 0.387660 0.974120 -0.571006
O22   O     O_R   0.867700 0.612340 0.025880 -0.570892
O23   O     O_R   0.974120 0.132300 0.387660 -0.559596
O24   O     O_R   0.025880 0.867700 0.612340 -0.567389
C7    C     C_R   0.965006 0.178363 0.436456 0.921537
C8    C     C_R   0.035013 0.821633 0.563533 0.910605
C9    C     C_R   0.177106 0.433750 0.972871 0.920578
C10   C     C_R   0.821663 0.564492 0.032535 0.906124
C11   C     C_R   0.436345 0.964793 0.178610 0.929913
C12   C     C_R   0.563658 0.035194 0.821387 0.906884
C13   C     C_R   0.564199 0.821627 0.032940 0.918249
C14   C     C_R   0.433904 0.177131 0.972147 0.920690
C15   C     C_R   0.034640 0.563979 0.821380 0.900583
C16   C     C_R   0.965398 0.436006 0.178612 0.921915
C17   C     C_R   0.821587 0.034554 0.563800 0.907119
C18   C     C_R   0.178412 0.965457 0.436192 0.918278
Zn1   Zn    Zn3+2 0.004880 0.004880 0.583590 1.087150
Zn2   Zn    Zn3+2 0.995120 0.995120 0.416410 1.100835
Zn3   Zn    Zn3+2 0.004880 0.583590 0.004880 1.088414
Zn4   Zn    Zn3+2 0.995120 0.416410 0.995120 1.088926
Zn5   Zn    Zn3+2 0.583590 0.004880 0.004880 1.089967
Zn6   Zn    Zn3+2 0.416410 0.995120 0.995120 1.088100
H1    H     H_    0.482905 0.919832 0.663768 0.135896
H2    H     H_    0.517301 0.079657 0.336344 0.139041
H3    H     H_    0.920072 0.662340 0.483588 0.138930
H4    H     H_    0.079716 0.337724 0.516475 0.138798
H5    H     H_    0.603959 0.419027 0.080925 0.150270
H6    H     H_    0.412521 0.592425 0.873745 0.147004
H7    H     H_    0.405798 0.893558 0.586704 0.152115
H8    H     H_    0.594391 0.105939 0.413399 0.153461
H9    H     H_    0.529180 0.341936 0.052746 0.141755
H10   H     H_    0.488553 0.670067 0.901575 0.133824
H11   H     H_    0.893702 0.584786 0.407115 0.152736
H12   H     H_    0.106079 0.415271 0.592948 0.144436
C19   C     C_R   0.544638 0.015372 0.544825 0.121244
C20   C     C_R   0.455558 0.984127 0.455283 0.123001
C21   C     C_R   0.015569 0.545121 0.544219 0.123698
C22   C     C_R   0.984215 0.454938 0.455847 0.122129
C23   C     C_R   0.552323 0.550860 0.993831 0.124856
C24   C     C_R   0.465336 0.460682 0.960198 0.124434
C25   C     C_R   0.554008 0.058868 0.451792 -0.162411
C26   C     C_R   0.446196 0.940616 0.548314 -0.161546
C27   C     C_R   0.059012 0.452842 0.553166 -0.161242
C28   C     C_R   0.940764 0.547216 0.446904 -0.157210
C29   C     C_R   0.497619 0.598468 0.935226 -0.171002
C30   C     C_R   0.521010 0.413248 0.017691 -0.166286
C31   C     C_R   0.509942 0.043594 0.407609 -0.172401
C32   C     C_R   0.490268 0.955888 0.592500 -0.178573
C33   C     C_R   0.454402 0.553921 0.918812 -0.160391
C34   C     C_R   0.563743 0.457600 0.034254 -0.161651
C35   C     C_R   0.043676 0.408350 0.509469 -0.168555
C36   C     C_R   0.956102 0.591710 0.490601 -0.171113
C37   C     C_R   0.550181 0.037506 0.680510 -0.235528
C38   C     C_R   0.449935 0.962132 0.319568 -0.214260
C39   C     C_R   0.037307 0.681107 0.549724 -0.218381
C40   C     C_R   0.962579 0.318925 0.450294 -0.216371
C41   C     C_R   0.684602 0.555940 0.021721 -0.228889
C42   C     C_R   0.323220 0.452040 0.952689 -0.216278
C43   C     C_R   0.319316 0.963482 0.449418 -0.218550
C44   C     C_R   0.680773 0.036259 0.550642 -0.220373
C45   C     C_R   0.452719 0.322745 0.949957 -0.220772
C46   C     C_R   0.554638 0.684334 0.023125 -0.219750
C47   C     C_R   0.963463 0.448877 0.319785 -0.218280
C48   C     C_R   0.036410 0.551164 0.680241 -0.235867
H13   H     H_    0.483404 0.028064 0.716248 0.172139
H14   H     H_    0.516767 0.971443 0.283868 0.175464
H15   H     H_    0.027750 0.716786 0.483058 0.176511
H16   H     H_    0.972084 0.283262 0.516983 0.175173
H17   H     H_    0.721856 0.492280 0.006537 0.175634
H18   H     H_    0.292162 0.522905 0.948217 0.173883
H19   H     H_    0.283081 0.976465 0.514590 0.175311
H20   H     H_    0.717040 0.023231 0.485493 0.176341
H21   H     H_    0.524541 0.292359 0.941042 0.180327
H22   H     H_    0.489112 0.720274 0.011814 0.174875
H23   H     H_    0.976323 0.514199 0.283413 0.176886
H24   H     H_    0.023488 0.485871 0.716637 0.174552
C49   C     C_R   0.595888 0.052392 0.724306 -0.156863
C50   C     C_R   0.404130 0.947491 0.275695 -0.145839
C51   C     C_R   0.052170 0.724952 0.595413 -0.150140
C52   C     C_R   0.947838 0.275038 0.404560 -0.147865
C53   C     C_R   0.725964 0.598471 0.043831 -0.162094
C54   C     C_R   0.270438 0.397307 0.968348 -0.158289
C55   C     C_R   0.275154 0.948504 0.403994 -0.157931
C56   C     C_R   0.724854 0.051434 0.596001 -0.160342
C57   C     C_R   0.397392 0.270355 0.966967 -0.165062
C58   C     C_R   0.597598 0.725857 0.044702 -0.146916
C59   C     C_R   0.948477 0.403431 0.275700 -0.160803
C60   C     C_R   0.051529 0.596560 0.724281 -0.170832
C61   C     C_R   0.677787 0.071677 0.677282 0.260440
C62   C     C_R   0.322159 0.928357 0.322661 0.266028
C63   C     C_R   0.071618 0.678112 0.677031 0.262289
C64   C     C_R   0.928480 0.321837 0.322898 0.270087
C65   C     C_R   0.677993 0.678361 0.065902 0.259868
C66   C     C_R   0.305210 0.305220 0.987890 0.234451
N1    N     N_R   0.711268 0.113806 0.710572 0.213029
O25   O     O_R   0.677517 0.200007 0.700633 -0.382632
O26   O     O_R   0.764682 0.065402 0.761556 -0.346046
N2    N     N_R   0.288505 0.886514 0.289236 0.209865
O27   O     O_R   0.321760 0.800254 0.299429 -0.373189
O28   O     O_R   0.235193 0.935149 0.238169 -0.327962
N3    N     N_R   0.113787 0.711884 0.709998 0.211116
O29   O     O_R   0.065368 0.761995 0.764222 -0.347232
O30   O     O_R   0.200059 0.703163 0.675035 -0.389404
N4    N     N_R   0.886554 0.287945 0.289787 0.208177
O31   O     O_R   0.935177 0.237799 0.235616 -0.327715
O32   O     O_R   0.800258 0.296744 0.324441 -0.385830
N5    N     N_R   0.708926 0.709679 0.112055 0.211568
O33   O     O_R   0.671776 0.698319 0.198850 -0.375261
O34   O     O_R   0.763425 0.760496 0.066469 -0.346013
N6    N     N_R   0.246848 0.246971 0.042197 0.225359
O35   O     O_R   0.218554 0.230002 0.130064 -0.386304
O36   O     O_R   0.217141 0.216225 0.004107 -0.336973

loop_
_geom_bond_atom_site_label_1
_geom_bond_atom_site_label_2
_geom_bond_distance
_ccdc_geom_bond_type
O24   C8    1.282772 A    
C1    C37   1.396781 A    
C40   H16   1.082790 S    
C28   C36   1.400315 A    
C5    C46   1.397508 A    
C22   C35   1.407423 A    
C54   C66   1.372662 A    
C27   C35   1.400260 A    
O1    C7    1.246724 A    
C30   C34   1.396183 A    
C51   C63   1.380022 A    
H7    C26   1.082977 S    
C3    C39   1.397322 A    
O4    Zn4   2.060401 S    
O21   C9    1.280415 A    
O5    Zn5   2.044329 S    
C65   N5    1.439271 S    
C23   C34   1.404749 A    
O6    Zn6   2.044330 S    
C38   C50   1.413544 A    
C12   C49   1.440173 S    
C61   N1    1.439629 S    
C10   C53   1.440978 S    
O2    C8    1.246701 A    
C44   C56   1.415736 A    
C18   C55   1.440969 S    
O12   Zn1   2.051607 S    
C43   C55   1.415713 A    
H10   C29   1.082391 S    
C45   C57   1.410311 A    
O3    C9    1.240650 A    
C26   C32   1.400088 A    
C2    C20   1.491852 S    
O9    C15   1.248765 A    
O10   C16   1.248718 A    
C42   H18   1.082814 S    
C48   H24   1.083394 S    
C13   C58   1.441852 S    
O12   C18   1.247709 A    
C55   C62   1.381461 A    
C50   C62   1.380191 A    
O1    Zn1   2.052512 S    
C24   C30   1.407286 A    
C21   C27   1.406141 A    
O2    Zn2   2.052512 S    
C1    C44   1.397789 A    
O18   C14   1.277122 A    
C20   C31   1.407494 A    
C25   C31   1.400000 A    
C2    C38   1.396811 A    
C37   H13   1.082816 S    
C40   C52   1.414233 A    
C41   H17   1.083290 S    
O9    Zn4   2.044265 S    
C41   C53   1.413614 A    
C52   C64   1.379985 A    
C37   C49   1.413651 A    
C9    C54   1.427077 S    
O8    C14   1.241763 A    
O15   Zn3   2.067816 S    
C53   C65   1.382592 A    
O14   Zn2   2.074628 S    
O13   Zn1   2.074628 S    
C47   C59   1.415508 A    
O4    C10   1.249867 A    
O22   Zn3   2.075874 S    
O17   Zn5   2.077498 S    
O18   Zn6   2.077500 S    
N6    O36   1.302914 A    
C11   C50   1.440049 S    
H2    C31   1.082525 S    
O17   C13   1.283224 A    
O3    Zn3   2.060401 S    
C59   C64   1.381516 A    
C57   C66   1.372324 A    
C66   N6    1.444417 S    
C38   H14   1.082824 S    
N4    O32   1.300470 A    
N3    O30   1.300500 A    
C49   C61   1.380217 A    
C64   N4    1.439661 S    
C39   H15   1.082790 S    
C19   C25   1.405828 A    
C6    C42   1.401692 A    
C16   C59   1.440716 S    
O15   C15   1.282539 A    
C15   C60   1.440940 S    
O16   C16   1.282462 A    
O10   Zn3   2.044265 S    
C4    C40   1.397332 A    
O7    C13   1.247354 A    
O11   Zn2   2.051607 S    
C63   N3    1.439643 S    
O19   Zn6   2.067867 S    
N1    O25   1.300571 A    
C46   H22   1.082662 S    
O20   Zn5   2.067866 S    
O19   C11   1.282504 A    
O21   Zn4   2.075875 S    
O20   C12   1.282607 A    
O16   Zn4   2.067816 S    
C22   C28   1.406161 A    
C8    C51   1.440669 S    
O23   Zn2   2.076202 S    
N5    O33   1.300508 A    
C7    C52   1.440560 S    
O24   Zn1   2.076203 S    
H5    C34   1.082904 S    
H4    C35   1.082502 S    
N1    O26   1.302137 A    
N2    O28   1.302174 A    
C39   C51   1.414283 A    
C62   N2    1.439624 S    
C47   H23   1.083395 S    
C2    C43   1.397825 A    
N6    O35   1.301078 A    
C58   C65   1.381940 A    
O14   C18   1.281873 A    
N3    O29   1.302138 A    
C19   C32   1.407547 A    
C6    C24   1.492606 S    
H8    C25   1.082972 S    
C5    C23   1.493638 S    
C6    C45   1.399915 A    
C20   C26   1.405852 A    
C17   C56   1.440964 S    
O7    Zn6   2.061367 S    
N4    O31   1.302178 A    
H3    C36   1.082503 S    
O23   C7    1.282682 A    
C23   C29   1.409323 A    
C3    C48   1.397711 A    
C29   C33   1.404042 A    
H12   C27   1.082947 S    
C24   C33   1.406752 A    
O5    C11   1.247431 A    
C42   C54   1.415082 A    
O6    C12   1.247369 A    
O11   C17   1.247670 A    
C48   C60   1.415556 A    
H9    C30   1.082827 S    
C44   H20   1.083411 S    
O8    Zn5   2.061365 S    
C60   C63   1.381599 A    
C43   H19   1.083407 S    
H11   C28   1.082956 S    
O22   C10   1.281463 A    
H6    C33   1.082547 S    
C46   C58   1.415650 A    
C45   H21   1.083636 S    
C4    C47   1.397701 A    
C1    C19   1.491886 S    
N5    O34   1.302073 A    
C3    C21   1.492553 S    
H1    C32   1.082535 S    
C4    C22   1.492535 S    
C5    C41   1.397433 A    
C14   C57   1.424014 S    
C56   C61   1.381462 A    
O13   C17   1.281933 A    
N2    O27   1.300506 A    
C21   C36   1.407446 A    
