data_mof_unit_38929.cif
_audit_creation_date              2012-12-10T17:24:10-0500
_audit_creation_method            fapswitch 2.2
_symmetry_space_group_name_H-M    P1
_symmetry_Int_Tables_number       1
_space_group_crystal_system       triclinic
_cell_length_a                    19.35381
_cell_length_b                    10.777748
_cell_length_c                    9.602534
_cell_angle_alpha                 90.020049
_cell_angle_beta                  90.023883
_cell_angle_gamma                 92.497417
_cell_volume                      2001.09446122

loop_
_atom_site_label
_atom_site_type_symbol
_atom_type_description
_atom_site_fract_x
_atom_site_fract_y
_atom_site_fract_z
_atom_type_partial_charge
C1    C     C_R   0.497682 0.262584 0.500027 0.797422
C2    C     C_R   0.291612 0.502226 0.500158 -0.027897
C3    C     C_R   0.930167 0.512540 0.500456 0.423175
C4    C     C_R   0.070315 0.510656 0.500459 0.411147
C5    C     C_R   0.817196 0.510894 0.626528 -0.107499
C6    C     C_R   0.745149 0.507581 0.626397 -0.115014
C7    C     C_R   0.708504 0.504876 0.500148 -0.040215
C8    C     C_R   0.745184 0.506554 0.374025 -0.178033
C9    C     C_R   0.817222 0.509748 0.374149 -0.136380
C10   C     C_R   0.853967 0.511501 0.500399 0.040012
C11   C     C_R   0.387780 0.120573 0.646666 -0.182741
C12   C     C_R   0.367553 0.500106 0.500038 0.756616
C13   C     C_R   0.336585 0.051604 0.718204 -0.133366
C14   C     C_R   0.336690 0.922579 0.718367 -0.124102
C15   C     C_R   0.388007 0.861709 0.647046 -0.168951
C16   C     C_R   0.441236 0.929713 0.575746 0.098214
C17   C     C_R   0.441118 0.060959 0.575595 0.101869
C18   C     C_R   0.493059 0.128403 0.499983 -0.106889
C19   C     C_R   0.541841 0.067318 0.421540 -0.161052
C20   C     C_R   0.541954 0.939329 0.421637 -0.140510
C21   C     C_R   0.493279 0.870515 0.500176 -0.083056
C22   C     C_R   0.591527 0.665653 0.143893 -0.250274
C23   C     C_R   0.498011 0.737112 0.500054 0.787199
C24   C     C_R   0.635748 0.747629 0.071927 -0.282904
C25   C     C_R   0.635520 0.748701 0.928041 0.450587
C26   C     C_R   0.591280 0.666008 0.856216 -0.251259
C27   C     C_R   0.544898 0.581580 0.925348 0.146053
C28   C     C_R   0.544929 0.581489 0.074787 0.226250
C29   C     C_R   0.457179 0.422551 0.073806 -0.055017
C30   C     C_R   0.457207 0.422556 0.925934 -0.043940
C31   C     C_R   0.632462 0.501298 0.500010 0.788609
C32   C     C_R   0.255185 0.506338 0.626368 -0.203276
C33   C     C_R   0.183281 0.509326 0.626494 -0.154814
C34   C     C_R   0.146425 0.508249 0.500400 0.059395
C35   C     C_R   0.182954 0.504176 0.374200 -0.154358
C36   C     C_R   0.254853 0.501190 0.374089 -0.180276
Cu1   Cu    Cu3+1 0.500000 0.499990 0.640660 0.944577
Cu2   Cu    Cu3+1 0.500000 0.500010 0.359340 0.942830
H1    H     H_    0.282159 0.507469 0.725239 0.149562
H2    H     H_    0.384078 0.220335 0.645579 0.136283
H3    H     H_    0.296101 0.098476 0.772133 0.137539
H4    H     H_    0.296280 0.869300 0.772402 0.140309
H5    H     H_    0.384473 0.761406 0.646419 0.150757
H6    H     H_    0.581277 0.893710 0.362611 0.148203
H7    H     H_    0.422061 0.359045 0.128887 0.134605
H8    H     H_    0.596306 0.672694 0.253618 0.219214
H9    H     H_    0.670444 0.810384 0.129431 0.206934
H10   H     H_    0.595577 0.671877 0.746523 0.229463
H11   H     H_    0.156682 0.512456 0.725524 0.154466
H12   H     H_    0.422108 0.359047 0.870704 0.128258
H13   H     H_    0.156099 0.503172 0.275239 0.154386
H14   H     H_    0.281557 0.498103 0.275132 0.150581
H15   H     H_    0.843960 0.512533 0.725595 0.162581
H16   H     H_    0.718250 0.507103 0.725305 0.162001
H17   H     H_    0.718316 0.505183 0.275025 0.163336
H18   H     H_    0.844008 0.510448 0.275162 0.162597
H19   H     H_    0.581054 0.119246 0.362383 0.161828
N1    N     N_R   0.034523 0.509836 0.378874 -0.233917
N2    N     N_R   0.965837 0.510744 0.378873 -0.230514
N3    N     N_R   0.965963 0.513699 0.622056 -0.228165
N4    N     N_R   0.034660 0.512808 0.622056 -0.233849
N5    N     N_R   0.500660 0.501210 0.147910 -0.187828
N6    N     N_R   0.500680 0.501290 0.852040 -0.184296
O1    O     O_R   0.499990 0.319640 0.618810 -0.568767
O2    O     O_R   0.500000 0.319660 0.381240 -0.574951
O3    O     O_R   0.400140 0.499970 0.618820 -0.598487
O4    O     O_R   0.400150 0.500000 0.381250 -0.579321
O5    O     O_R   0.500000 0.680340 0.618760 -0.590460
O6    O     O_R   0.500010 0.680360 0.381190 -0.593773
O7    O     O_R   0.599850 0.500000 0.618750 -0.592544
O8    O     O_R   0.599860 0.500030 0.381180 -0.597664
S1    S     S_3+6 0.691520 0.852702 0.836191 -0.004972
O9    O     O_2   0.754668 0.785867 0.793389 -0.294194
O10   O     O_2   0.655646 0.898251 0.708282 -0.303775
O11   O     O_3   0.715273 0.974182 0.938099 -0.529171
H20   H     H_    0.746562 0.027229 0.879436 0.381610

loop_
_geom_bond_atom_site_label_1
_geom_bond_atom_site_label_2
_ccdc_geom_bond_type
C16   C21   A    
C23   O6    A    
C19   C20   A    
C2    C12   S    
C13   H3    S    
C7    C8    A    
C19   H19   S    
C26   C27   A    
Cu1   Cu2   S    
C5    H15   S    
C34   C35   A    
C5    C6    A    
C33   H11   S    
C15   C16   A    
Cu1   O5    S    
C2    C32   A    
C18   C19   A    
C32   H1    S    
Cu1   N6    S    
C29   N5    A    
C31   O7    A    
C35   C36   A    
C8    C9    A    
C1    O2    A    
C9    C10   A    
C36   H14   S    
C26   H10   S    
C14   H4    S    
C3    N3    A    
C31   O8    A    
C30   H12   S    
Cu2   O6    S    
C22   C28   A    
Cu1   O7    S    
C6    H16   S    
S1    O11   S    
C8    H17   S    
C20   H6    S    
C17   C18   A    
C12   O4    A    
C4    C34   S    
C7    C31   S    
C24   C25   A    
S1    O10   D    
C25   S1    S    
C16   C17   A    
C25   C26   A    
C12   O3    A    
C4    N4    A    
C29   H7    S    
N3    N4    A    
C23   O5    A    
O11   H20   S    
C29   C30   A    
Cu2   O2    S    
Cu1   O3    S    
C33   C34   A    
C1    C18   S    
C9    H18   S    
C20   C21   A    
C27   N6    A    
C22   H8    S    
C21   C23   S    
C35   H13   S    
C22   C24   A    
C1    O1    A    
Cu1   O1    S    
C2    C36   A    
Cu2   O8    S    
C11   C17   A    
C24   H9    S    
S1    O9    D    
C6    C7    A    
C32   C33   A    
N1    N2    A    
C15   H5    S    
C5    C10   A    
C3    C10   S    
C11   C13   A    
C30   N6    A    
C11   H2    S    
Cu2   O4    S    
C4    N1    A    
C27   C28   A    
C14   C15   A    
C13   C14   A    
C3    N2    A    
Cu2   N5    S    
C28   N5    A    
