data_mof_unit_13195.cif
_audit_creation_date              2012-12-10T16:54:57-0500
_audit_creation_method            fapswitch 2.2
_symmetry_space_group_name_H-M    P1
_symmetry_Int_Tables_number       1
_space_group_crystal_system       triclinic
_cell_length_a                    7.81408
_cell_length_b                    8.644356
_cell_length_c                    15.682757
_cell_angle_alpha                 91.565836
_cell_angle_beta                  85.998241
_cell_angle_gamma                 93.974345
_cell_volume                      1053.94074253

loop_
_atom_site_label
_atom_site_type_symbol
_atom_type_description
_atom_site_fract_x
_atom_site_fract_y
_atom_site_fract_z
_atom_type_partial_charge
C1    C     C_R   0.545812 0.794613 0.497843 0.918908
C2    C     C_2   0.430539 0.041717 0.503431 -0.355074
C3    C     C_R   0.502842 0.502506 0.661462 0.867139
C4    C     C_R   0.454193 0.205382 0.502162 0.928866
C5    C     C_R   0.497757 0.499216 0.338480 0.865898
C6    C     C_3   0.343327 0.551616 0.954831 -0.270549
C7    C     C_3   0.639124 0.710778 0.948612 0.233862
C8    C     C_3   0.645922 0.698568 0.054649 0.225273
C9    C     C_1   0.496761 0.511210 0.249870 -0.154710
C10   C     C_3   0.534335 0.552966 0.915950 0.007759
C11   C     C_3   0.198983 0.443176 0.916195 -0.372129
C12   C     C_3   0.339728 0.545825 0.053045 0.302324
C13   C     C_3   0.220984 0.270544 0.911949 -0.855151
C14   C     C_3   0.830675 0.727433 0.904196 -0.441589
C15   C     C_3   0.859078 0.730820 0.806092 -0.739872
C16   C     C_3   0.557498 0.860173 0.912347 -0.316593
C17   C     C_3   0.402581 0.943528 0.952541 -0.958122
C18   C     C_3   0.582316 0.844502 0.108068 -0.308818
C19   C     C_3   0.698665 0.994850 0.101084 -0.808838
C20   C     C_3   0.837623 0.682602 0.082662 -0.318313
C21   C     C_3   0.867613 0.664378 0.178080 -0.695772
C22   C     C_3   0.525724 0.545715 0.083219 -0.056645
C23   C     C_3   0.597617 0.394658 0.043165 0.319807
C24   C     C_3   0.616029 0.404978 0.945530 0.381215
C25   C     C_1   0.506842 0.526339 0.174753 0.070096
C26   C     C_1   0.526400 0.538479 0.824310 0.037610
C27   C     C_1   0.513724 0.520778 0.749731 -0.183871
C28   C     C_2   0.569479 0.958269 0.496578 -0.357413
F1    F     F_    0.251244 0.665581 0.090327 -0.723847
F2    F     F_    0.749096 0.356971 0.075810 -0.650612
F3    F     F_    0.028767 0.359119 0.423383 -0.565034
F4    F     F_    0.971214 0.640766 0.576693 -0.580110
F5    F     F_    0.784772 0.396624 0.914537 -0.673913
H1    H     H_    0.265137 0.437948 0.074902 0.151798
H2    H     H_    0.079645 0.457959 0.956686 0.285440
H3    H     H_    0.175134 0.481166 0.851070 0.240599
H4    H     H_    0.847781 0.611932 0.777834 0.301384
H5    H     H_    0.773312 0.806528 0.775913 0.240778
H6    H     H_    0.993107 0.776664 0.788960 0.242336
H7    H     H_    0.894817 0.837681 0.927684 0.184757
H8    H     H_    0.911952 0.637941 0.922006 0.249259
H9    H     H_    0.332760 0.986934 0.899971 0.250954
H10   H     H_    0.304038 0.876647 0.992048 0.299735
H11   H     H_    0.448045 0.045628 0.990885 0.259888
H12   H     H_    0.700595 0.009658 0.490007 0.207180
H13   H     H_    0.658668 0.955986 0.901789 0.218527
H14   H     H_    0.521849 0.830143 0.846446 0.200574
H15   H     H_    0.812938 0.989000 0.138756 0.268428
H16   H     H_    0.742495 0.021229 0.034222 0.278857
H17   H     H_    0.626218 0.091851 0.129166 0.277650
H18   H     H_    0.451100 0.869794 0.098157 0.267418
H19   H     H_    0.566781 0.819616 0.177024 0.198809
H20   H     H_    0.797336 0.744174 0.221644 0.217952
H21   H     H_    0.837893 0.542932 0.197917 0.294536
H22   H     H_    0.005295 0.691015 0.188504 0.291054
H23   H     H_    0.299424 0.990322 0.510003 0.206141
H24   H     H_    0.897594 0.584231 0.050119 0.273348
H25   H     H_    0.921449 0.785195 0.061982 0.206699
H26   H     H_    0.296335 0.661713 0.938151 0.226585
H27   H     H_    0.551326 0.298814 0.918931 0.101190
H28   H     H_    0.503809 0.295471 0.059693 0.025960
H29   H     H_    0.313597 0.242181 0.857947 0.246538
H30   H     H_    0.259428 0.231489 0.973928 0.239391
H31   H     H_    0.096183 0.207691 0.899134 0.294487
N1    N     N_2   0.950340 0.457950 0.477370 0.256892
N2    N     N_2   0.049660 0.542050 0.522630 0.253756
O1    O     O_R   0.389240 0.738570 0.505550 -0.609899
O2    O     O_R   0.678400 0.711630 0.491050 -0.583303
O3    O     O_R   0.355360 0.513470 0.630110 -0.609827
O4    O     O_R   0.644510 0.486530 0.615610 -0.576789
O5    O     O_R   0.321600 0.288370 0.508950 -0.581208
O6    O     O_R   0.610760 0.261430 0.494450 -0.607706
O7    O     O_R   0.355490 0.513470 0.384390 -0.570895
O8    O     O_R   0.644640 0.486530 0.369890 -0.609018
Zn1   Zn    Zn3+2 0.306930 0.517990 0.509680 1.109223
Zn2   Zn    Zn3+2 0.693070 0.482010 0.490320 1.108737

loop_
_geom_bond_atom_site_label_1
_geom_bond_atom_site_label_2
_ccdc_geom_bond_type
C6    C10   S    
C7    C10   S    
C8    C22   S    
C23   C24   S    
C17   H10   S    
C15   H5    S    
C5    C9    S    
C12   F1    S    
C1    C28   S    
C11   C13   S    
C19   H16   S    
C2    C4    S    
C24   F5    S    
C13   H30   S    
C24   H27   S    
O6    Zn2   S    
C20   H25   S    
C10   C26   S    
C11   H2    S    
C17   H11   S    
C18   H19   S    
C7    C8    S    
C14   C15   S    
C2    H23   S    
C4    O5    A    
C12   H1    S    
C21   H20   S    
O7    Zn1   S    
C19   H17   S    
C15   H6    S    
C26   C27   T    
C8    C20   S    
N1    Zn2   S    
O8    Zn2   S    
C14   H8    S    
N2    Zn1   S    
C6    H26   S    
C16   H14   S    
C3    C27   S    
C7    C16   S    
C1    O1    A    
C18   H18   S    
O3    Zn1   S    
N1    N2    D    
C5    O7    A    
C21   H21   S    
C28   H12   S    
O5    Zn1   S    
O2    Zn2   S    
C1    O2    A    
O4    Zn2   S    
C9    C25   T    
C23   F2    S    
C12   C22   S    
C4    O6    A    
C3    O4    A    
O1    Zn1   S    
C20   C21   S    
F4    N2    S    
C18   C19   S    
C23   H28   S    
C16   H13   S    
C6    C11   S    
C21   H22   S    
F3    N1    S    
C22   C23   S    
C15   H4    S    
C10   C24   S    
C2    C28   D    
C5    O8    A    
C19   H15   S    
C3    O3    A    
C20   H24   S    
C17   H9    S    
C14   H7    S    
C13   H31   S    
C7    C14   S    
C8    C18   S    
C13   H29   S    
C6    C12   S    
C16   C17   S    
C22   C25   S    
C11   H3    S    
