data_mof_unit_46644.cif
_audit_creation_date              2013-03-05T15:47:03-0500
_audit_creation_method            fapswitch 2.2
_symmetry_space_group_name_H-M    P1
_symmetry_Int_Tables_number       1
_space_group_crystal_system       triclinic
_cell_length_a                    8.397014
_cell_length_b                    17.515688
_cell_length_c                    19.170557
_cell_angle_alpha                 98.615459
_cell_angle_beta                  94.459904
_cell_angle_gamma                 97.622105
_cell_volume                      2749.40095561

loop_
_atom_site_label
_atom_site_type_symbol
_atom_site_description
_atom_site_fract_x
_atom_site_fract_y
_atom_site_fract_z
_atom_type_partial_charge
P1    P     P_3+3 0.992230 0.679190 0.566750 0.547035
O1    O     O_2   0.166667 0.691630 0.546720 -0.372162
O2    O     O_3   0.893830 0.593690 0.541700 -0.311766
O3    O     O_3   0.390350 0.644650 0.417800 -0.347540
O4    O     O_2   0.279463 0.773864 0.464737 -0.329785
O5    O     O_3   0.038366 0.677112 0.659246 -0.576920
O6    O     O_3   0.430405 0.785761 0.357477 -0.498204
H1    H     H_    0.629211 0.726502 0.336587 0.019655
C1    C     C_3   0.422497 0.684397 0.258967 -0.924811
H2    H     H_    0.374554 0.637113 0.287256 0.282125
H3    H     H_    0.319435 0.707126 0.234067 0.269439
P2    P     P_3+3 0.339610 0.439630 0.337240 0.471190
P3    P     P_3+3 0.933168 0.600717 0.286899 0.543005
O7    O     O_2   0.171750 0.463380 0.328050 -0.341830
O8    O     O_3   0.965290 0.605410 0.380210 -0.265765
O9    O     O_2   0.059704 0.553149 0.254582 -0.376901
O10   O     O_3   0.283962 0.338018 0.322884 -0.650184
O11   O     O_3   0.000848 0.696053 0.272527 -0.495929
C2    C     C_3   0.916568 0.714011 0.212012 0.189128
H4    H     H_    0.919031 0.778266 0.220540 0.106668
H5    H     H_    0.787653 0.688827 0.205434 0.036258
C3    C     C_3   0.999900 0.692273 0.144701 -0.357805
H6    H     H_    0.126532 0.721783 0.153310 0.188639
H7    H     H_    0.003613 0.628486 0.133511 0.201893
C4    C     C_3   0.921597 0.279456 0.310896 0.356753
H8    H     H_    0.970674 0.320518 0.276351 0.129538
H9    H     H_    0.021449 0.273417 0.350132 0.095282
C5    C     C_3   0.869505 0.199672 0.265652 -0.896205
H10   H     H_    0.775320 0.203048 0.222849 0.263919
H11   H     H_    0.974733 0.179022 0.241088 0.220377
H12   H     H_    0.822364 0.156955 0.299096 0.274445
Ba1   Ba    Ba6+2 0.162080 0.538580 0.468810 1.681364
C6    C     C_3   0.985218 0.729822 0.714458 0.787195
C7    C     C_3   0.876662 0.784154 0.687840 -1.017460
H13   H     H_    0.941699 0.828364 0.660860 0.288476
H14   H     H_    0.825232 0.816566 0.733077 0.223356
H15   H     H_    0.778258 0.747202 0.652256 0.235045
C8    C     C_3   0.398875 0.298426 0.288796 0.687650
H16   H     H_    0.519942 0.334581 0.296808 0.030957
C9    C     C_3   0.341318 0.276436 0.209094 -0.533826
H17   H     H_    0.292324 0.325988 0.190116 0.179986
H18   H     H_    0.239368 0.227393 0.200636 0.197908
P4    P     P_3+3 0.818060 0.320800 0.433200 0.576057
O12   O     O_2   0.643630 0.308330 0.453260 -0.305554
O13   O     O_3   0.916470 0.406310 0.458240 -0.332954
O14   O     O_3   0.419940 0.355340 0.582140 -0.399671
O15   O     O_3   0.787890 0.307899 0.340507 -0.520340
P5    P     P_3+3 0.881997 0.399082 0.711781 0.481410
O16   O     O_3   0.383960 0.539280 0.585630 -0.419698
O17   O     O_3   0.845010 0.394580 0.619730 -0.409989
O18   O     O_2   0.744203 0.437672 0.745079 -0.324912
O19   O     O_3   0.844292 0.303969 0.731410 -0.499589
Ba2   Ba    Ba6+2 0.648090 0.461410 0.531130 1.645320
P6    P     P_3+3 0.432702 0.746582 0.436326 0.532479
C10   C     C_3   0.528366 0.750393 0.309798 0.660146
H19   H     H_    0.492644 0.659987 0.216719 0.173308
O20   O     O_3   0.426330 0.460710 0.414310 -0.356987
C11   C     C_3   0.439922 0.711540 0.649849 0.168901
H20   H     H_    0.454934 0.694644 0.593000 0.100989
H21   H     H_    0.314727 0.694962 0.659629 0.165967
C12   C     C_3   0.482114 0.801084 0.670789 -0.175273
H22   H     H_    0.603577 0.821555 0.658046 0.136609
H23   H     H_    0.480002 0.818410 0.728669 0.158706
P7    P     P_3+3 0.473086 0.571379 0.674005 0.512730
O21   O     O_2   0.638540 0.536570 0.671920 -0.317757
O22   O     O_3   0.538557 0.673102 0.691176 -0.548852
C13   C     C_3   0.844928 0.250042 0.669254 0.416812
H24   H     H_    0.756666 0.259699 0.626357 0.166545
H25   H     H_    0.967943 0.254113 0.651446 -0.007617
C14   C     C_3   0.794459 0.167697 0.683732 -0.816210
H26   H     H_    0.677472 0.163441 0.707084 0.278965
H27   H     H_    0.781493 0.125877 0.633319 0.245200
H28   H     H_    0.885782 0.151494 0.721301 0.242201
P8    P     P_3+3 0.374935 0.252425 0.571410 0.473591
C15   C     C_3   0.350207 0.239817 0.703548 0.285630
H29   H     H_    0.261249 0.279507 0.692509 0.029344
O23   O     O_2   0.483127 0.218809 0.516528 -0.333527
O24   O     O_3   0.446817 0.221384 0.648584 -0.535317
H30   H     H_    0.433277 0.270359 0.750041 0.197805
C16   C     C_3   0.264119 0.164069 0.721960 -0.410246
H31   H     H_    0.352217 0.122060 0.724244 0.241083
H32   H     H_    0.165347 0.138671 0.679700 0.209725
C17   C     C_2   0.724544 0.728837 0.511317 -0.374910
C18   C     C_3   0.609335 0.786990 0.502955 0.202181
C19   C     C_2   0.690363 0.866124 0.492692 -0.198833
C20   C     C_2   0.851918 0.885329 0.505532 -0.062607
C21   C     C_2   0.950721 0.822884 0.521227 -0.156208
C22   C     C_1   0.881335 0.751992 0.528824 0.225910
C23   C     C_R   0.104936 0.136153 0.521251 -0.202622
C24   C     C_R   0.160820 0.215724 0.536690 0.162599
C25   C     C_R   0.915484 0.243719 0.474393 0.190947
C26   C     C_R   0.855542 0.162694 0.461964 -0.286476
C27   C     C_R   0.947226 0.108271 0.488830 0.151604
C28   C     C_2   0.927098 0.969645 0.518741 0.386690
C29   C     C_2   0.883279 0.022268 0.477272 -0.340911
C30   C     C_R   0.060801 0.268328 0.516741 -0.207102
H33   H     H_    0.793259 0.001520 0.432547 0.143018
H34   H     H_    0.080229 0.837952 0.530721 0.234668
H35   H     H_    0.188499 0.096825 0.531904 0.196064
H36   H     H_    0.614781 0.910609 0.485481 0.178066
H37   H     H_    0.739811 0.142215 0.431434 0.190680
H38   H     H_    0.669714 0.673914 0.524410 0.180603
C31   C     C_R   0.617394 0.525157 0.296357 0.069958
C32   C     C_R   0.461289 0.486505 0.272789 0.092529
C33   C     C_R   0.405172 0.480855 0.200840 -0.317723
C34   C     C_R   0.509715 0.507490 0.152515 0.196224
C35   C     C_R   0.670144 0.540873 0.177271 -0.278556
C36   C     C_R   0.723351 0.552769 0.249890 0.063412
C37   C     C_R   0.364611 0.560227 0.056177 -0.348523
C38   C     C_R   0.304146 0.558099 0.985226 0.393659
C39   C     C_R   0.332282 0.497209 0.932250 -0.171405
C40   C     C_R   0.418858 0.438567 0.952454 0.278754
C41   C     C_R   0.477436 0.440708 0.024240 0.230741
C42   C     C_R   0.451085 0.502542 0.076365 -0.102615
C43   C     C_R   0.132264 0.455733 0.824295 -0.126678
C44   C     C_R   0.084057 0.451574 0.751919 0.171899
C45   C     C_R   0.342062 0.528772 0.737861 0.123862
C46   C     C_R   0.388549 0.534917 0.811661 0.246192
C47   C     C_R   0.283482 0.496935 0.855015 0.007714
C48   C     C_R   0.189442 0.487994 0.709634 -0.496387
H39   H     H_    0.342001 0.606946 0.096347 0.188404
H40   H     H_    0.282103 0.454941 0.182239 0.175333
H41   H     H_    0.051779 0.426937 0.856962 0.191850
H42   H     H_    0.752098 0.558112 0.140078 0.160932
H43   H     H_    0.150203 0.486256 0.654327 0.178912
N1    N     N_2   0.125436 0.778052 0.757448 -0.107742
H44   H     H_    0.103736 0.831329 0.783074 0.185518
C49   C     C_3   0.230151 0.742480 0.802595 -0.850738
H45   H     H_    0.342783 0.783544 0.821155 0.266694
H46   H     H_    0.262975 0.688145 0.773662 0.250468
H47   H     H_    0.171225 0.730674 0.850522 0.275487
N2    N     N_2   0.890936 0.685257 0.759706 -0.104700
H48   H     H_    0.866366 0.717469 0.806254 0.188681
C50   C     C_3   0.925785 0.608208 0.767510 -0.580353
H49   H     H_    0.833108 0.579917 0.796787 0.293655
H50   H     H_    0.043482 0.610428 0.797891 0.204309
H51   H     H_    0.924704 0.571931 0.715001 0.242641
N3    N     N_R   0.410334 0.227071 0.319091 0.248316
O25   O     O_R   0.307500 0.204363 0.361909 -0.407110
O26   O     O_R   0.520397 0.184123 0.301895 -0.425326
N4    N     N_2   0.471862 0.257810 0.167101 -0.063722
H52   H     H_    0.586547 0.286060 0.185278 0.212615
C51   C     C_3   0.460047 0.178754 0.129960 -0.632139
H53   H     H_    0.560505 0.174519 0.095848 0.238645
H54   H     H_    0.344145 0.162464 0.095542 0.238058
H55   H     H_    0.467675 0.137368 0.168142 0.242781
N5    N     N_2   0.595655 0.808652 0.269400 -0.103041
H56   H     H_    0.634958 0.787333 0.221737 0.137238
C52   C     C_3   0.704838 0.873740 0.309750 -0.901142
H57   H     H_    0.750541 0.913960 0.273810 0.255709
H58   H     H_    0.809095 0.852860 0.336554 0.239564
H59   H     H_    0.639656 0.906568 0.349507 0.272184
N6    N     N_R   0.373632 0.842787 0.632910 0.271489
O27   O     O_R   0.432177 0.891682 0.593383 -0.357059
O28   O     O_R   0.230513 0.847223 0.652292 -0.390041
N7    N     N_2   0.922367 0.718575 0.084043 -0.081640
H60   H     H_    0.917529 0.777748 0.090697 0.188152
C53   C     C_3   0.776312 0.670709 0.048765 -0.658502
H61   H     H_    0.738780 0.693333 0.999869 0.274355
H62   H     H_    0.677198 0.672557 0.083821 0.193970
H63   H     H_    0.797832 0.609556 0.033027 0.268606
N8    N     N_2   0.198851 0.178649 0.789641 -0.072496
H64   H     H_    0.116010 0.217248 0.791188 0.230203
C54   C     C_3   0.147512 0.109806 0.820020 -0.690806
H65   H     H_    0.104901 0.127420 0.872641 0.238333
H66   H     H_    0.250072 0.076804 0.827551 0.247524
H67   H     H_    0.047289 0.071588 0.785102 0.255042
N9    N     N_R   0.026162 0.995517 0.584468 0.218568
O29   O     O_R   0.956173 0.008568 0.642339 -0.434248
O30   O     O_R   0.175619 0.983229 0.589172 -0.356091
N10   N     N_2   0.117581 0.347942 0.530402 -0.121750
H68   H     H_    0.151703 0.370393 0.582925 0.147654
C55   C     C_3   0.222069 0.370923 0.478907 -0.447814
H69   H     H_    0.295442 0.425655 0.503550 0.277248
H70   H     H_    0.153935 0.377314 0.429928 0.217073
H71   H     H_    0.302366 0.327744 0.461874 0.234001
N11   N     N_R   0.537755 0.581332 0.842912 0.232062
O31   O     O_R   0.635023 0.554227 0.886062 -0.398686
O32   O     O_R   0.566343 0.654427 0.835889 -0.408636
N12   N     N_R   0.213795 0.618008 0.968149 0.240356
O33   O     O_R   0.253882 0.689327 0.001191 -0.405017
O34   O     O_R   0.076576 0.599330 0.929004 -0.412285
N13   N     N_R   0.450761 0.377389 0.899381 0.265806
O35   O     O_R   0.331167 0.332239 0.860560 -0.449889
O36   O     O_R   0.597848 0.363879 0.892401 -0.304548
N14   N     N_R   0.556711 0.378076 0.043993 0.257170
O37   O     O_R   0.495884 0.305908 0.019495 -0.348369
O38   O     O_R   0.693265 0.392645 0.083859 -0.402104
N15   N     N_R   0.677907 0.525947 0.366861 0.249585
O39   O     O_R   0.764488 0.473270 0.379842 -0.323999
O40   O     O_R   0.663354 0.583110 0.416110 -0.396838

loop_
_geom_bond_atom_site_label_1
_geom_bond_atom_site_label_2
_geom_bond_distance
_ccdc_geom_bond_type
C51   H55   1.108778 S    
C21   C22   1.333428 D    
N1    H44   1.032982 S    
C17   H38   1.083182 S    
C7    H15   1.097835 S    
Ba1   O13   2.861626 S    
N5    H56   1.029851 S    
O6    C10   1.406524 S    
N10   H68   1.028195 S    
C49   H45   1.108590 S    
C50   H51   1.105694 S    
P6    C18   1.867718 S    
O8    Ba1   2.767323 S    
C3    N7    1.452797 S    
C55   H69   1.088199 S    
C4    C5    1.520598 S    
N10   C55   1.437513 S    
C11   O22   1.404508 S    
C54   H66   1.111029 S    
P3    O11   1.760059 S    
C23   H35   1.075487 S    
C35   H42   1.076500 S    
O1    Ba1   2.860574 S    
C54   H65   1.110396 S    
N5    C52   1.444602 S    
C7    H13   1.103244 S    
C52   H58   1.111524 S    
C8    H16   1.110810 S    
C34   C35   1.410797 A    
C11   H21   1.091143 S    
C51   H53   1.110215 S    
C39   C47   1.504409 S    
P1    O1    1.538924 D    
C12   H23   1.107788 S    
C46   C47   1.426776 A    
C40   C41   1.418301 A    
C41   C42   1.412166 A    
C20   C28   1.503170 S    
C53   H63   1.110855 S    
C25   C30   1.391185 A    
C38   C39   1.415751 A    
O12   Ba2   2.860895 S    
P4    Ba2   3.404589 S    
P5    O18   1.547968 D    
C39   C40   1.416718 A    
C6    N1    1.468261 S    
N2    H48   1.032408 S    
N11   O32   1.300036 A    
P8    O23   1.544006 D    
P2    O10   1.753393 S    
C35   C36   1.404548 A    
C14   H26   1.109024 S    
C31   N15   1.403917 S    
N6    O28   1.293801 A    
Ba2   O21   2.832206 S    
C15   C16   1.527431 S    
C4    O15   1.411998 S    
P5    C44   1.867457 S    
C21   H34   1.078927 S    
O3    P6    1.749924 S    
P1    C22   1.873302 S    
N9    O30   1.299750 A    
C17   C22   1.326403 D    
O13   Ba2   2.936895 S    
C27   C29   1.507831 S    
O16   P7    1.775472 S    
C9    N4    1.452436 S    
P2    Ba1   3.398298 S    
C53   H62   1.110383 S    
O2    Ba1   2.936032 S    
Ba1   O20   2.934615 S    
P3    C36   1.883442 S    
H1    C10   1.116548 S    
C32   C33   1.407110 A    
N12   O34   1.299921 A    
C40   N13   1.430771 S    
N8    C54   1.445884 S    
C54   H67   1.110472 S    
O17   Ba2   2.767984 S    
C43   H41   1.083234 S    
C13   H24   1.110986 S    
N9    O29   1.299806 A    
O4    P6    1.541052 D    
C2    C3    1.537409 S    
C18   C19   1.508378 S    
C16   H32   1.109857 S    
C52   H59   1.108209 S    
C28   N9    1.432099 S    
C25   C26   1.419438 A    
Ba2   O20   2.796459 S    
C20   C21   1.508530 S    
O11   C2    1.409365 S    
C50   H50   1.100434 S    
C11   H20   1.107174 S    
C19   C20   1.347690 D    
C30   N10   1.391159 S    
P1    Ba1   3.404119 S    
P4    C25   1.904643 S    
P7    C45   1.879190 S    
C44   C48   1.401388 A    
C12   N6    1.457125 S    
P1    O2    1.597083 S    
P7    O22   1.766764 S    
C15   H29   1.115051 S    
N13   O35   1.297889 A    
N13   O36   1.301196 A    
C1    H3    1.104254 S    
C10   N5    1.453366 S    
C17   C18   1.511723 S    
C38   N12   1.435061 S    
C14   H28   1.104713 S    
C6    C7    1.516659 S    
C8    N3    1.466064 S    
C28   C29   1.371487 D    
C1    H19   1.105896 S    
C24   C30   1.400533 A    
P5    O17   1.755939 S    
P4    O13   1.597233 S    
C16   N8    1.448272 S    
O3    Ba1   2.823689 S    
O19   C13   1.406127 S    
N3    O26   1.298556 A    
C37   C42   1.402138 A    
C1    C10   1.526854 S    
P2    O20   1.564426 S    
C26   H37   1.082490 S    
C6    N2    1.460911 S    
C9    H17   1.104983 S    
C34   C42   1.489969 S    
C43   C47   1.411833 A    
P3    O8    1.776061 S    
P4    O12   1.539095 D    
C53   H61   1.110622 S    
C3    H7    1.110743 S    
C45   C48   1.406731 A    
N14   O38   1.300639 A    
C23   C24   1.389833 A    
C49   H47   1.110055 S    
Ba1   Ba2   4.593267 S    
O14   P8    1.769375 S    
N12   O33   1.301249 A    
N8    H64   1.031411 S    
C1    H2    1.105524 S    
C55   H71   1.108498 S    
N15   O39   1.288567 A    
C51   H54   1.110865 S    
C5    H10   1.108288 S    
N1    C49   1.448783 S    
P1    O5    1.792177 S    
C2    H5    1.103507 S    
C48   H43   1.080282 S    
C5    H12   1.110057 S    
O7    Ba1   2.832088 S    
C16   H31   1.113370 S    
C49   H46   1.106605 S    
C29   H33   1.082394 S    
P2    C32   1.876809 S    
C50   H49   1.102320 S    
C4    H9    1.108723 S    
C33   C34   1.412046 A    
C45   C46   1.422290 A    
O5    C6    1.435925 S    
C13   C14   1.520863 S    
P7    O21   1.590472 D    
P8    C24   1.862231 S    
C2    H4    1.109958 S    
N4    C51   1.446173 S    
C4    H8    1.110050 S    
C5    H11   1.109860 S    
C19   H36   1.085743 S    
C52   H57   1.110459 S    
C8    C9    1.541423 S    
O2    Ba2   2.862410 S    
C37   H39   1.083450 S    
C55   H70   1.089228 S    
P4    O15   1.751402 S    
C11   C12   1.545472 S    
O16   Ba2   2.933764 S    
C41   N14   1.438399 S    
O14   Ba2   2.823069 S    
N7    C53   1.446652 S    
C26   C27   1.430662 A    
C33   H40   1.082078 S    
C7    H14   1.112043 S    
O10   C8    1.406713 S    
C23   C27   1.409969 A    
C12   H22   1.093830 S    
C15   O24   1.404664 S    
Ba1   O16   2.797066 S    
N3    O25   1.301744 A    
C46   N11   1.434127 S    
P2    O7    1.526346 D    
P5    O19   1.756058 S    
N7    H60   1.031759 S    
N2    C50   1.444918 S    
N11   O31   1.300867 A    
P8    O24   1.742979 S    
P3    O9    1.545818 D    
C37   C38   1.407688 A    
C31   C32   1.400551 A    
C9    H18   1.112953 S    
C3    H6    1.107448 S    
C31   C36   1.398991 A    
C14   H27   1.110321 S    
O6    P6    1.750981 S    
C13   H25   1.109611 S    
N14   O37   1.301114 A    
N4    H52   1.031213 S    
C15   H30   1.108431 S    
C43   C44   1.403137 A    
N15   O40   1.294612 A    
N6    O27   1.300003 A    
