data_mof_unit_62483.cif
_audit_creation_date              2012-10-26T18:46:03-0400
_audit_creation_method            fapswitch 2.2
_symmetry_space_group_name_H-M    P1
_symmetry_Int_Tables_number       1
_space_group_crystal_system       triclinic
_cell_length_a                    13.883282
_cell_length_b                    16.558285
_cell_length_c                    17.815359
_cell_angle_alpha                 88.920363
_cell_angle_beta                  92.636043
_cell_angle_gamma                 84.950287
_cell_volume                      4074.16330944

loop_
_atom_site_label
_atom_site_type_symbol
_atom_type_description
_atom_site_fract_x
_atom_site_fract_y
_atom_site_fract_z
_atom_type_partial_charge
C1    C     C_R   0.492928 0.499692 0.644516 0.547237
C2    C     C_R   0.574070 0.823403 0.540605 0.210508
C3    C     C_R   0.428388 0.262435 0.459702 0.139259
C4    C     C_R   0.571611 0.737565 0.540300 0.139259
C5    C     C_R   0.572589 0.248250 0.537512 0.124258
C6    C     C_R   0.427412 0.751750 0.462487 0.124261
C7    C     C_R   0.572424 0.162989 0.536181 -0.173645
C8    C     C_R   0.427577 0.837011 0.463818 -0.173643
C9    C     C_R   0.498687 0.126170 0.498331 0.020293
C10   C     C_R   0.501313 0.873830 0.501670 0.020291
C11   C     C_1   0.499548 0.037034 0.499451 0.106421
C12   C     C_R   0.507072 0.500308 0.355484 0.547240
C13   C     C_1   0.500451 0.962966 0.500550 0.106420
C14   C     C_R   0.683205 0.487004 0.500272 0.556391
C15   C     C_R   0.316795 0.512995 0.499728 0.556393
C16   C     C_1   0.213717 0.520853 0.499542 0.000352
C17   C     C_1   0.786283 0.479146 0.500457 0.000351
C18   C     C_2   0.023316 0.533489 0.499258 -0.101316
C19   C     C_2   0.976684 0.466510 0.500742 -0.101316
C20   C     C_1   0.873095 0.472808 0.500609 -0.025948
C21   C     C_1   0.126905 0.527192 0.499391 -0.025948
C22   C     C_R   0.520855 0.429330 0.154013 -0.097860
C23   C     C_R   0.506133 0.576163 0.150878 0.259041
C24   C     C_R   0.479138 0.570672 0.845986 -0.097859
C25   C     C_R   0.529895 0.427483 0.232466 -0.006159
C26   C     C_R   0.470098 0.572518 0.767532 -0.006158
C27   C     C_R   0.518296 0.501522 0.272168 -0.092968
C28   C     C_R   0.481703 0.498478 0.727832 -0.092968
C29   C     C_R   0.513179 0.576608 0.230150 0.006617
C30   C     C_R   0.486825 0.423393 0.769851 0.006616
C31   C     C_2   0.559652 0.347657 0.269997 0.319431
C32   C     C_2   0.440336 0.652342 0.730000 0.319429
C33   C     C_2   0.523185 0.655138 0.267447 0.359759
C34   C     C_R   0.493870 0.423839 0.849122 0.259041
C35   C     C_2   0.476824 0.344861 0.732555 0.359761
C36   C     C_2   0.352268 0.311018 0.414453 0.375691
C37   C     C_2   0.647727 0.688982 0.585551 0.375692
C38   C     C_2   0.657204 0.277851 0.578048 0.317964
C39   C     C_2   0.342798 0.722149 0.421950 0.317966
C40   C     C_R   0.507589 0.502439 0.113888 -0.001558
C41   C     C_R   0.492408 0.497564 0.886112 -0.001558
C42   C     C_1   0.502134 0.500638 0.033624 0.093951
C43   C     C_1   0.497863 0.499366 0.966376 0.093951
C44   C     C_R   0.425928 0.176597 0.459398 0.210502
Cl1   Cl    Cl    0.501102 0.667434 0.096425 -0.461346
Cl2   Cl    Cl    0.498906 0.332568 0.903577 -0.461349
Cl3   Cl    Cl    0.331972 0.132126 0.409095 -0.524185
Cl4   Cl    Cl    0.668024 0.867873 0.590910 -0.524176
Cu1   Cu    Cu3+1 0.500000 0.419580 0.500020 1.022140
Cu2   Cu    Cu3+1 0.500000 0.580420 0.499980 1.022137
H1    H     H_    0.015988 0.406727 0.502047 0.150435
H2    H     H_    0.421019 0.340405 0.688523 0.101811
H3    H     H_    0.282647 0.327095 0.437994 0.103624
H4    H     H_    0.717346 0.672896 0.562011 0.103625
H5    H     H_    0.728850 0.248750 0.569304 0.088701
H6    H     H_    0.271151 0.751250 0.430694 0.088701
H7    H     H_    0.984011 0.593273 0.497953 0.150435
H8    H     H_    0.527822 0.373222 0.123412 0.201982
H9    H     H_    0.472166 0.626781 0.876586 0.201981
H10   H     H_    0.630239 0.124954 0.565737 0.147925
H11   H     H_    0.369763 0.875046 0.434261 0.147926
H12   H     H_    0.603864 0.343795 0.321919 0.119660
H13   H     H_    0.396126 0.656201 0.678077 0.119659
H14   H     H_    0.578991 0.659591 0.311479 0.101809
N1    N     N_R   0.500030 0.298780 0.500030 -0.274339
N2    N     N_R   0.499970 0.701220 0.499970 -0.274342
O1    O     O_R   0.500010 0.432070 0.608760 -0.466584
O2    O     O_2   0.462468 0.715288 0.758038 -0.420600
O3    O     O_2   0.469164 0.715354 0.249759 -0.376943
O4    O     O_2   0.530850 0.284648 0.750244 -0.376941
O5    O     O_2   0.364363 0.328712 0.349009 -0.424719
O6    O     O_2   0.635632 0.671297 0.650998 -0.424715
O7    O     O_2   0.648583 0.329751 0.625326 -0.426538
O8    O     O_2   0.351418 0.670249 0.374672 -0.426537
O9    O     O_R   0.499990 0.567930 0.391240 -0.466581
O10   O     O_R   0.500000 0.567880 0.608730 -0.484740
O11   O     O_R   0.500000 0.432120 0.391270 -0.484734
O12   O     O_R   0.637850 0.422490 0.500000 -0.481308
O13   O     O_R   0.362150 0.577510 0.500000 -0.481311
O14   O     O_R   0.637840 0.558310 0.499970 -0.532706
O15   O     O_R   0.362160 0.441690 0.500030 -0.532698
O16   O     O_2   0.537514 0.284713 0.241959 -0.420599

loop_
_geom_bond_atom_site_label_1
_geom_bond_atom_site_label_2
_ccdc_geom_bond_type
C25   C31   S    
C26   C32   S    
C16   C21   T    
C23   Cl1   S    
C27   C29   A    
C18   C21   S    
C19   C20   S    
C31   H12   S    
Cu2   O13   S    
C15   O15   A    
C31   O16   D    
Cu1   N1    S    
C30   C35   S    
C23   C29   A    
C24   C26   A    
C24   H9    S    
C23   C40   A    
C29   C33   S    
C17   C20   T    
Cu1   O12   S    
C18   C19   D    
C39   O8    D    
Cu1   O15   S    
C36   H3    S    
C15   O13   A    
C38   H5    S    
C35   O4    D    
C22   C25   A    
C1    C28   S    
C34   Cl2   S    
C14   O14   A    
C44   Cl3   S    
C33   O3    D    
C8    H11   S    
C32   O2    D    
C40   C42   S    
C5    C38   S    
C24   C41   A    
C41   C43   S    
C14   C17   S    
C3    N1    A    
C34   C41   A    
C3    C44   A    
C30   C34   A    
C12   C27   S    
C5    N1    A    
C5    C7    A    
C6    C8    A    
C2    Cl4   S    
C2    C4    A    
Cu2   O10   S    
C9    C11   S    
C18   H7    S    
C39   H6    S    
C22   C40   A    
C12   O11   A    
Cu2   N2    S    
C37   H4    S    
C12   O9    A    
C42   C43   T    
C2    C10   A    
C7    H10   S    
C7    C9    A    
C9    C44   A    
Cu1   O1    S    
C1    O10   A    
C32   H13   S    
C10   C13   S    
Cu2   O14   S    
C22   H8    S    
C36   O5    D    
C25   C27   A    
C26   C28   A    
C28   C30   A    
Cu2   O9    S    
C4    N2    A    
C11   C13   T    
C3    C36   S    
C33   H14   S    
C1    O1    A    
Cu1   O11   S    
C14   O12   A    
C19   H1    S    
C6    N2    A    
C4    C37   S    
C8    C10   A    
Cu1   Cu2   S    
C37   O6    D    
C35   H2    S    
C6    C39   S    
C15   C16   S    
C38   O7    D    
