data_mof_unit_58536.cif
_audit_creation_date              2012-12-10T20:06:24-0500
_audit_creation_method            fapswitch 2.2
_symmetry_space_group_name_H-M    P1
_symmetry_Int_Tables_number       1
_space_group_crystal_system       triclinic
_cell_length_a                    19.281894
_cell_length_b                    18.460523
_cell_length_c                    10.631245
_cell_angle_alpha                 90.094697
_cell_angle_beta                  90.100019
_cell_angle_gamma                 90.082566
_cell_volume                      3784.21768379

loop_
_atom_site_label
_atom_site_type_symbol
_atom_type_description
_atom_site_fract_x
_atom_site_fract_y
_atom_site_fract_z
_atom_type_partial_charge
C1    C     C_R   0.365583 0.500030 0.500314 0.882240
C2    C     C_R   0.290318 0.500374 0.503152 -0.134837
C3    C     C_R   0.963845 0.496639 0.396039 -0.194817
C4    C     C_R   0.035632 0.496483 0.395560 -0.147946
C5    C     C_R   0.071507 0.500361 0.509636 0.160073
C6    C     C_R   0.928632 0.500572 0.510591 0.168137
C7    C     C_R   0.036322 0.503138 0.624367 -0.193463
C8    C     C_R   0.964465 0.503202 0.624847 -0.167492
C9    C     C_R   0.535885 0.726068 0.589957 -0.149053
C10   C     C_R   0.463683 0.725308 0.410004 -0.149078
C11   C     C_R   0.534911 0.802687 0.594742 0.343133
C12   C     C_R   0.634476 0.500123 0.500624 0.910258
C13   C     C_R   0.463938 0.801946 0.404770 0.342666
C14   C     C_R   0.499320 0.841265 0.499608 -0.068679
C15   C     C_R   0.497462 0.500002 0.260254 0.877564
C16   C     C_R   0.497510 0.500096 0.739741 0.875196
C17   C     C_R   0.516672 0.961511 0.390589 -0.167705
C18   C     C_R   0.481569 0.961778 0.607992 -0.168283
C19   C     C_R   0.516076 0.037901 0.388342 0.125480
C20   C     C_R   0.482533 0.038161 0.610261 0.125639
C21   C     C_R   0.499440 0.077358 0.499320 0.040052
C22   C     C_R   0.499129 0.922725 0.499357 0.157811
C23   C     C_R   0.853676 0.501912 0.510261 -0.083888
C24   C     C_R   0.437296 0.197681 0.499513 -0.301630
C25   C     C_R   0.562186 0.197559 0.499452 -0.302488
C26   C     C_R   0.438587 0.273712 0.499861 0.025942
C27   C     C_R   0.561249 0.273604 0.499778 0.018685
C28   C     C_R   0.499646 0.158607 0.499355 0.168615
C29   C     C_R   0.384646 0.573337 0.130981 -0.204371
C30   C     C_R   0.384637 0.573387 0.868802 -0.187990
C31   C     C_R   0.332406 0.609300 0.065298 -0.153232
C32   C     C_R   0.332366 0.609270 0.934441 -0.139482
C33   C     C_R   0.438816 0.537762 0.934014 0.092309
C34   C     C_R   0.146394 0.501671 0.508545 -0.066918
C35   C     C_R   0.438786 0.537686 0.065860 0.098112
C36   C     C_R   0.492290 0.499852 0.128166 -0.100601
C37   C     C_R   0.492409 0.500082 0.871811 -0.104542
C38   C     C_R   0.542651 0.460664 0.064182 -0.211119
C39   C     C_R   0.542727 0.460803 0.935867 -0.210531
C40   C     C_R   0.746359 0.435295 0.499965 -0.326916
C41   C     C_R   0.253528 0.435546 0.488758 -0.305990
C42   C     C_R   0.818449 0.435632 0.501009 0.491718
C43   C     C_R   0.181518 0.435743 0.493201 0.470976
C44   C     C_3   0.560883 0.814924 0.806455 0.097903
C45   C     C_R   0.817984 0.568594 0.513967 0.116121
C46   C     C_3   0.578460 0.874065 0.901178 -0.845558
C47   C     C_3   0.435034 0.811855 0.193617 0.099008
C48   C     C_3   0.416904 0.870109 0.098046 -0.846161
C49   C     C_3   0.531557 0.075375 0.264883 -0.415952
C50   C     C_3   0.464760 0.098005 0.198624 -0.835481
C51   C     C_3   0.467051 0.075903 0.733672 -0.414188
C52   C     C_3   0.533797 0.099277 0.799694 -0.837294
C53   C     C_3   0.848388 0.336675 0.383849 0.094390
C54   C     C_3   0.905014 0.279927 0.370718 -0.805899
C55   C     C_3   0.145710 0.332035 0.587992 0.101346
C56   C     C_R   0.182869 0.567437 0.523441 0.137217
C57   C     C_3   0.094343 0.269743 0.577239 -0.802241
C58   C     C_3   0.858670 0.639483 0.521444 -0.391195
C59   C     C_3   0.815565 0.708996 0.522912 -0.880562
C60   C     C_3   0.147020 0.639858 0.539823 -0.401443
C61   C     C_3   0.153536 0.666899 0.675078 -0.873249
C62   C     C_R   0.745499 0.566819 0.509840 -0.190445
C63   C     C_R   0.255015 0.565855 0.520738 -0.235852
C64   C     C_R   0.709895 0.500657 0.503057 -0.152648
H1    H     H_    0.582963 0.431377 0.113944 0.150866
H2    H     H_    0.609795 0.302817 0.499895 0.124050
H3    H     H_    0.381329 0.572848 0.232438 0.148781
H4    H     H_    0.381347 0.572989 0.767311 0.152639
H5    H     H_    0.291358 0.636482 0.116123 0.136217
H6    H     H_    0.291258 0.636385 0.883609 0.134090
H7    H     H_    0.719178 0.383959 0.497127 0.161012
H8    H     H_    0.280305 0.384764 0.473456 0.165641
H9    H     H_    0.716129 0.616576 0.512498 0.184030
H10   H     H_    0.283506 0.616131 0.531860 0.173815
H11   H     H_    0.935681 0.494299 0.307848 0.124613
H12   H     H_    0.583077 0.431584 0.886174 0.154288
H13   H     H_    0.063271 0.494022 0.307012 0.137684
H14   H     H_    0.064521 0.505500 0.712498 0.129922
H15   H     H_    0.936769 0.505795 0.713312 0.133717
H16   H     H_    0.594905 0.767675 0.825832 0.146332
H17   H     H_    0.505556 0.799227 0.821005 0.124693
H18   H     H_    0.543437 0.921131 0.887965 0.249702
H19   H     H_    0.571885 0.853080 0.998254 0.205815
H20   H     H_    0.633026 0.891972 0.888796 0.264949
H21   H     H_    0.399971 0.764886 0.177404 0.151507
H22   H     H_    0.489870 0.795227 0.176807 0.125598
H23   H     H_    0.565513 0.695329 0.657695 0.144646
H24   H     H_    0.452448 0.917096 0.108844 0.250100
H25   H     H_    0.422210 0.848068 0.001301 0.206478
H26   H     H_    0.362638 0.888486 0.111979 0.263716
H27   H     H_    0.431798 0.049816 0.179563 0.261891
H28   H     H_    0.435173 0.137093 0.256764 0.265456
H29   H     H_    0.477499 0.124349 0.107842 0.241736
H30   H     H_    0.565400 0.123261 0.279674 0.211386
H31   H     H_    0.560539 0.038536 0.201003 0.197365
H32   H     H_    0.567187 0.051484 0.818225 0.262161
H33   H     H_    0.562982 0.138738 0.741723 0.265333
H34   H     H_    0.434189 0.693899 0.342733 0.141490
H35   H     H_    0.521014 0.125440 0.890729 0.241570
H36   H     H_    0.432960 0.123460 0.718805 0.211919
H37   H     H_    0.438315 0.039043 0.797821 0.196861
H38   H     H_    0.853886 0.375469 0.304029 0.125055
H39   H     H_    0.797178 0.309100 0.377323 0.135502
H40   H     H_    0.901235 0.239900 0.448293 0.255383
H41   H     H_    0.899327 0.251193 0.279433 0.202226
H42   H     H_    0.956766 0.306390 0.374038 0.267771
H43   H     H_    0.130173 0.365948 0.670239 0.134327
H44   H     H_    0.198293 0.309175 0.604976 0.133416
H45   H     H_    0.530753 0.931888 0.306395 0.153420
H46   H     H_    0.095430 0.236947 0.664690 0.201937
H47   H     H_    0.041113 0.291280 0.563356 0.269231
H48   H     H_    0.108102 0.234512 0.496262 0.254002
H49   H     H_    0.784261 0.713492 0.435466 0.259665
H50   H     H_    0.781223 0.710304 0.606673 0.261558
H51   H     H_    0.850810 0.756548 0.527908 0.253218
H52   H     H_    0.890866 0.638951 0.608226 0.209056
H53   H     H_    0.894312 0.642402 0.439538 0.208046
H54   H     H_    0.130392 0.627074 0.741054 0.255990
H55   H     H_    0.208846 0.675609 0.700248 0.251228
H56   H     H_    0.467241 0.932352 0.692108 0.152667
H57   H     H_    0.125662 0.719168 0.685143 0.250386
H58   H     H_    0.170754 0.680152 0.475240 0.202824
H59   H     H_    0.091195 0.637128 0.514739 0.210037
H60   H     H_    0.388011 0.169476 0.499082 0.136472
H61   H     H_    0.611338 0.169251 0.499690 0.137036
H62   H     H_    0.390165 0.303010 0.499940 0.125189
N1    N     N_R   0.500000 0.689440 0.500000 -0.118518
N2    N     N_R   0.500000 0.310560 0.500000 -0.088149
O1    O     O_R   0.398180 0.560840 0.499970 -0.635941
O2    O     O_3   0.425046 0.839751 0.316292 -0.602502
O3    O     O_3   0.855436 0.371357 0.501734 -0.602314
O4    O     O_3   0.144773 0.372157 0.475078 -0.606153
O5    O     O_R   0.601820 0.560840 0.500030 -0.617356
O6    O     O_R   0.398180 0.439210 0.499910 -0.632266
O7    O     O_R   0.601820 0.439210 0.500090 -0.635173
O8    O     O_R   0.500000 0.560830 0.316760 -0.626071
O9    O     O_R   0.500000 0.560830 0.683240 -0.628939
O10   O     O_R   0.500000 0.439200 0.316700 -0.610233
O11   O     O_R   0.500000 0.439200 0.683300 -0.609069
O12   O     O_3   0.573215 0.841132 0.683504 -0.600323
Zn1   Zn    Zn3+2 0.500000 0.581210 0.500000 0.928670
Zn2   Zn    Zn3+2 0.500000 0.418790 0.500000 0.945253

loop_
_geom_bond_atom_site_label_1
_geom_bond_atom_site_label_2
_ccdc_geom_bond_type
C34   C56   A    
C23   C45   A    
C40   H7    S    
C61   H55   S    
C52   H33   S    
C16   O9    A    
C3    C6    A    
C7    C8    A    
C53   C54   S    
C25   C28   A    
C9    N1    A    
C23   C42   A    
C47   H21   S    
C54   H40   S    
C43   O4    S    
C19   C21   A    
C24   C26   A    
C20   C51   S    
C1    O1    A    
N1    Zn1   S    
C38   C39   A    
C12   C64   S    
C11   C14   A    
C57   H48   S    
O1    Zn1   S    
C2    C41   A    
C45   C62   A    
C24   H60   S    
C61   H57   S    
C1    C2    S    
C26   H62   S    
C10   H34   S    
C59   H51   S    
C25   H61   S    
C62   C64   A    
C17   C19   A    
C46   H18   S    
O7    Zn2   S    
C35   C36   A    
C12   O7    A    
C8    H15   S    
C13   O2    S    
C48   H24   S    
C62   H9    S    
C42   O3    S    
C53   O3    S    
C49   H30   S    
C3    H11   S    
C30   C33   A    
C16   C37   S    
C15   O10   A    
C40   C42   A    
C44   O12   S    
C29   H3    S    
C13   C14   A    
C58   H52   S    
C41   C43   A    
C44   C46   S    
C45   C58   S    
C54   H42   S    
C47   O2    S    
C51   C52   S    
C47   H22   S    
C44   H16   S    
C44   H17   S    
O10   Zn2   S    
C5    C7    A    
C32   H6    S    
C15   O8    A    
C58   C59   S    
C58   H53   S    
C33   C37   A    
C3    C4    A    
C56   C60   S    
C55   H43   S    
C60   C61   S    
C60   H59   S    
C11   O12   S    
O8    Zn1   S    
O6    Zn2   S    
C27   N2    A    
C19   C49   S    
C57   H46   S    
C38   H1    S    
C53   H38   S    
C59   H49   S    
C5    C34   S    
C56   C63   A    
C26   N2    A    
C39   H12   S    
C49   H31   S    
C60   H58   S    
C9    C11   A    
C7    H14   S    
C46   H20   S    
C50   H28   S    
C21   C28   S    
C49   C50   S    
C48   H25   S    
C55   C57   S    
C16   O11   A    
C51   H37   S    
C10   N1    A    
C18   H56   S    
C15   C36   S    
C2    C63   A    
C51   H36   S    
O9    Zn1   S    
C54   H41   S    
C61   H54   S    
C18   C22   A    
O5    Zn1   S    
C31   C32   A    
C34   C43   A    
C24   C28   A    
C4    C5    A    
C47   C48   S    
C10   C13   A    
C17   H45   S    
C6    C8    A    
C50   H29   S    
C63   H10   S    
C25   C27   A    
C29   C35   A    
C52   H35   S    
C41   H8    S    
C17   C22   A    
C40   C64   A    
C55   H44   S    
C12   O5    A    
C14   C22   S    
C36   C38   A    
C4    H13   S    
C29   C31   A    
C27   H2    S    
C9    H23   S    
C30   C32   A    
C57   H47   S    
O11   Zn2   S    
C53   H39   S    
C59   H50   S    
C6    C23   S    
C33   C35   A    
C52   H32   S    
C18   C20   A    
C46   H19   S    
C50   H27   S    
C31   H5    S    
C20   C21   A    
C37   C39   A    
C55   O4    S    
C48   H26   S    
N2    Zn2   S    
C30   H4    S    
C1    O6    A    
