data_mof_unit_30543.cif
_audit_creation_date              2012-12-10T18:57:44-0500
_audit_creation_method            fapswitch 2.2
_symmetry_space_group_name_H-M    P1
_symmetry_Int_Tables_number       1
_space_group_crystal_system       triclinic
_cell_length_a                    10.938931
_cell_length_b                    10.834449
_cell_length_c                    9.551504
_cell_angle_alpha                 90.117912
_cell_angle_beta                  89.946171
_cell_angle_gamma                 90.22506
_cell_volume                      1132.00674845

loop_
_atom_site_label
_atom_site_type_symbol
_atom_type_description
_atom_site_fract_x
_atom_site_fract_y
_atom_site_fract_z
_atom_type_partial_charge
C1    C     C_R   0.496441 0.262519 0.499817 0.826211
C2    C     C_R   0.481162 0.129911 0.498896 -0.230298
C3    C     C_R   0.467573 0.065799 0.372216 -0.294630
C4    C     C_R   0.466726 0.936675 0.370095 0.472885
C5    C     C_R   0.482448 0.871331 0.497569 -0.200688
C6    C     C_R   0.476117 0.937192 0.623417 -0.016845
C7    C     C_3   0.555204 0.932624 0.751010 -0.510341
C8    C     C_3   0.555100 0.073076 0.750094 0.361664
C9    C     C_R   0.605264 0.521840 0.073565 0.179404
C10   C     C_R   0.398964 0.465962 0.074279 -0.089166
C11   C     C_R   0.398901 0.466129 0.925710 -0.053005
C12   C     C_R   0.265413 0.501012 0.500114 0.840934
C13   C     C_R   0.605637 0.520458 0.926344 0.230912
C14   C     C_3   0.685446 0.631887 0.919055 0.282621
C15   C     C_3   0.682768 0.635335 0.078406 -0.545079
C16   C     C_R   0.497149 0.737907 0.499633 0.829232
C17   C     C_R   0.734597 0.498359 0.500152 0.848944
C18   C     C_2   0.933247 0.493972 0.385522 -0.175666
C19   C     C_2   0.866495 0.492909 0.503134 -0.310006
C20   C     C_2   0.067189 0.490367 0.386008 -0.157381
C21   C     C_2   0.133535 0.505783 0.502634 -0.317857
C22   C     C_R   0.475834 0.064172 0.623702 0.127675
Cu1   Cu    Cu3+1 0.499990 0.499980 0.640670 0.963163
Cu2   Cu    Cu3+1 0.500010 0.500020 0.359330 0.950811
H1    H     H_    0.888897 0.495561 0.284013 0.167568
H2    H     H_    0.316593 0.439405 0.129070 0.140045
H3    H     H_    0.638907 0.710141 0.866526 0.098862
H4    H     H_    0.112006 0.475799 0.285809 0.159240
H5    H     H_    0.092859 0.523806 0.603785 0.144361
N1    N     N_R   0.500780 0.500930 0.147930 -0.178909
N2    N     N_R   0.500780 0.500890 0.852020 -0.220541
O1    O     O_R   0.500000 0.319640 0.618810 -0.558710
O2    O     O_R   0.500010 0.319680 0.381230 -0.591537
O3    O     O_R   0.321940 0.499980 0.618760 -0.595456
O4    O     O_R   0.321950 0.500020 0.381180 -0.592469
O5    O     O_R   0.499990 0.680320 0.618770 -0.592107
O6    O     O_R   0.500000 0.680360 0.381190 -0.528896
O7    O     O_R   0.678050 0.499980 0.618820 -0.556068
O8    O     O_R   0.678060 0.500020 0.381240 -0.585027
H6    H     H_    0.645333 0.116762 0.725916 0.059340
H7    H     H_    0.316433 0.439865 0.870958 0.153764
O9    O     O_3   0.801868 0.600118 0.866308 -0.553900
C23   C     C_3   0.865941 0.708360 0.829677 -0.337871
H8    H     H_    0.870305 0.774915 0.918551 0.161017
H9    H     H_    0.823977 0.752173 0.736281 0.157932
H10   H     H_    0.961062 0.683090 0.801662 0.182271
H11   H     H_    0.773169 0.618492 0.127297 0.206753
H12   H     H_    0.632982 0.716415 0.120852 0.219753
H13   H     H_    0.906959 0.485425 0.605948 0.177851
H14   H     H_    0.464618 0.114847 0.273840 0.178185
O10   O     O_3   0.467934 0.876637 0.242189 -0.577197
C24   C     C_3   0.348127 0.874451 0.188092 -0.288270
H15   H     H_    0.315950 0.969018 0.162446 0.162538
H16   H     H_    0.283474 0.828392 0.261684 0.153733
H17   H     H_    0.348379 0.820139 0.089468 0.183958
H18   H     H_    0.506527 0.891758 0.842200 0.220292
H19   H     H_    0.646899 0.893500 0.728746 0.141254
O11   O     O_3   0.489008 0.124325 0.863094 -0.547558
C25   C     C_3   0.571139 0.159778 0.969416 -0.282326
H20   H     H_    0.636781 0.231064 0.931607 0.152681
H21   H     H_    0.620653 0.078429 0.011628 0.166336
H22   H     H_    0.518320 0.202028 0.056019 0.185614

loop_
_geom_bond_atom_site_label_1
_geom_bond_atom_site_label_2
_ccdc_geom_bond_type
C2    C22   A    
C8    C22   S    
C23   H8    S    
C6    C7    S    
Cu1   O5    S    
C14   H3    S    
Cu1   O7    S    
C8    H6    S    
O9    C23   S    
C19   H13   S    
Cu2   O2    S    
Cu1   Cu2   S    
C24   H17   S    
C15   H11   S    
C16   O6    A    
C14   O9    S    
Cu1   O3    S    
Cu1   O1    S    
C10   H2    S    
C2    C3    A    
C9    C15   S    
C11   N2    A    
C7    C8    S    
C13   C14   S    
C16   O5    A    
C12   O4    A    
C23   H9    S    
C18   H1    S    
C21   H5    S    
C7    H18   S    
C9    N1    A    
C17   C19   S    
C3    H14   S    
C24   H16   S    
C11   H7    S    
C18   C20   S    
C17   O7    A    
C5    C6    A    
C13   N2    A    
C23   H10   S    
Cu2   N1    S    
C25   H21   S    
Cu2   O4    S    
C10   C11   A    
C4    O10   S    
C1    O2    A    
O10   C24   S    
C6    C22   A    
C25   H20   S    
Cu2   O8    S    
C20   C21   D    
Cu2   O6    S    
C1    C2    S    
C17   O8    A    
C10   N1    A    
C14   C15   S    
C18   C19   D    
C5    C16   S    
C9    C13   A    
C20   H4    S    
C12   O3    A    
C8    O11   S    
O11   C25   S    
C15   H12   S    
C12   C21   S    
C7    H19   S    
C1    O1    A    
C3    C4    A    
C24   H15   S    
C4    C5    A    
C25   H22   S    
Cu1   N2    S    
