data_mof_unit_21671.cif
_audit_creation_date              2013-03-05T16:07:15-0500
_audit_creation_method            fapswitch 2.2
_symmetry_space_group_name_H-M    P1
_symmetry_Int_Tables_number       1
_space_group_crystal_system       triclinic
_cell_length_a                    10.926453
_cell_length_b                    9.675416
_cell_length_c                    17.749123
_cell_angle_alpha                 89.448248
_cell_angle_beta                  95.863142
_cell_angle_gamma                 88.076848
_cell_volume                      1865.37316065

loop_
_atom_site_label
_atom_site_type_symbol
_atom_site_description
_atom_site_fract_x
_atom_site_fract_y
_atom_site_fract_z
_atom_type_partial_charge
O1    O     O_R   0.319640 0.618740 0.499990 -0.557815
O2    O     O_R   0.680360 0.381260 0.500010 -0.557832
O3    O     O_R   0.680360 0.618740 0.500010 -0.556405
O4    O     O_R   0.319640 0.381260 0.499990 -0.556408
C1    C     C_R   0.262624 0.502160 0.500677 0.883309
C2    C     C_R   0.737375 0.497840 0.499323 0.883322
O5    O     O_R   0.500000 0.618830 0.391250 -0.581316
O6    O     O_R   0.500000 0.381170 0.608750 -0.581316
O7    O     O_R   0.500000 0.618830 0.608750 -0.598195
O8    O     O_R   0.500000 0.381170 0.391250 -0.598197
C3    C     C_R   0.074751 0.395130 0.538607 0.244591
C4    C     C_R   0.925248 0.604872 0.461393 0.244590
C5    C     C_R   0.946770 0.388285 0.533880 0.242563
C6    C     C_R   0.053230 0.611719 0.466122 0.242542
C7    C     C_R   0.500185 0.500444 0.355832 0.816729
C8    C     C_R   0.499815 0.499556 0.644168 0.816749
Cu1   Cu    Cu3+1 0.500000 0.640660 0.500000 1.000657
Cu2   Cu    Cu3+1 0.500000 0.359340 0.500000 1.000647
C9    C     C_R   0.871252 0.494500 0.496675 -0.366665
C10   C     C_R   0.128748 0.505502 0.503325 -0.366656
N1    N     N_R   0.500000 0.852070 0.500000 -0.188444
N2    N     N_R   0.500000 0.147930 0.500000 -0.188446
C11   C     C_R   0.515922 0.623876 0.846142 0.167140
C12   C     C_R   0.484085 0.376120 0.153859 0.167140
C13   C     C_R   0.520239 0.624473 0.154731 0.154176
C14   C     C_R   0.479752 0.375528 0.845268 0.154174
C15   C     C_R   0.515738 0.622394 0.767346 -0.181213
C16   C     C_R   0.484269 0.377602 0.232655 -0.181219
C17   C     C_R   0.520536 0.623210 0.233608 -0.128958
C18   C     C_R   0.479456 0.376791 0.766391 -0.128947
H1    H     H_    0.529392 0.717761 0.737443 0.165752
H2    H     H_    0.470621 0.282234 0.262558 0.165754
H3    H     H_    0.536986 0.717868 0.264365 0.180157
H4    H     H_    0.463001 0.282136 0.735633 0.180161
C19   C     C_R   0.498550 0.499300 0.727093 -0.101357
C20   C     C_R   0.501450 0.500699 0.272906 -0.101361
C21   C     C_R   0.423948 0.077897 0.447441 0.269634
C22   C     C_R   0.576051 0.922103 0.552559 0.269637
C23   C     C_R   0.573585 0.070429 0.553641 0.240038
C24   C     C_R   0.426414 0.929571 0.446359 0.240068
C25   C     C_R   0.498410 0.499672 0.885227 0.111285
C26   C     C_R   0.501589 0.500326 0.114772 0.111280
C27   C     C_1   0.499488 0.499811 0.966203 -0.019882
C28   C     C_1   0.500510 0.500186 0.033796 -0.019882
C29   C     C_3   0.534948 0.758029 0.887663 -0.847668
H5    H     H_    0.547104 0.845441 0.848372 0.229843
H6    H     H_    0.453839 0.783477 0.918512 0.239451
H7    H     H_    0.618440 0.747986 0.928862 0.237289
C30   C     C_3   0.465068 0.241963 0.112338 -0.847666
H8    H     H_    0.452918 0.154550 0.151630 0.229840
H9    H     H_    0.381574 0.251998 0.071139 0.237288
H10   H     H_    0.546178 0.216521 0.081489 0.239451
C31   C     C_3   0.539941 0.758261 0.114065 -0.835530
H11   H     H_    0.552915 0.845646 0.153916 0.235364
H12   H     H_    0.623153 0.747355 0.083268 0.243424
H13   H     H_    0.458761 0.784308 0.072912 0.231692
C32   C     C_3   0.460041 0.241743 0.885933 -0.835530
H14   H     H_    0.447060 0.154361 0.846081 0.235369
H15   H     H_    0.541218 0.215689 0.927086 0.231691
H16   H     H_    0.376829 0.252656 0.916730 0.243425
C33   C     C_3   0.331092 0.153613 0.390729 -0.733010
H17   H     H_    0.328131 0.265563 0.391727 0.259501
H18   H     H_    0.348331 0.125432 0.332166 0.181156
H19   H     H_    0.236694 0.125213 0.401376 0.246495
C34   C     C_3   0.668907 0.846387 0.609271 -0.732995
H20   H     H_    0.671870 0.734437 0.608272 0.259502
H21   H     H_    0.763305 0.874790 0.598626 0.246500
H22   H     H_    0.651665 0.874565 0.667834 0.181153
C35   C     C_3   0.644640 0.140331 0.619425 -0.642482
H23   H     H_    0.670699 0.244472 0.605640 0.281883
H24   H     H_    0.589540 0.142024 0.668447 0.180351
H25   H     H_    0.734113 0.087903 0.637871 0.244866
C36   C     C_3   0.355355 0.859668 0.380576 -0.642491
H26   H     H_    0.329303 0.755523 0.394359 0.281867
H27   H     H_    0.265875 0.912095 0.362137 0.244877
H28   H     H_    0.410449 0.857986 0.331549 0.180343
N3    N     N_R   0.149424 0.291711 0.582183 0.183485
O9    O     O_R   0.223333 0.327382 0.640360 -0.354274
O10   O     O_R   0.141533 0.161660 0.564994 -0.259456
N4    N     N_R   0.850576 0.708298 0.417823 0.183492
O11   O     O_R   0.776666 0.672635 0.359643 -0.354271
O12   O     O_R   0.858464 0.838345 0.435020 -0.259464
N5    N     N_R   0.895137 0.274593 0.569757 0.133786
O13   O     O_R   0.867001 0.165982 0.529798 -0.292339
O14   O     O_R   0.910254 0.263610 0.643280 -0.359632
N6    N     N_R   0.104863 0.725429 0.430259 0.133783
O15   O     O_R   0.133046 0.833999 0.470241 -0.292348
O16   O     O_R   0.089700 0.736477 0.356740 -0.359596

loop_
_geom_bond_atom_site_label_1
_geom_bond_atom_site_label_2
_geom_bond_distance
_ccdc_geom_bond_type
C11   C29   1.508761 S    
O2    Cu2   1.989121 S    
C12   C26   1.410151 A    
C36   H26   1.088560 S    
C31   H12   1.110319 S    
O3    C2    1.307476 A    
C30   H8    1.111033 S    
C30   H9    1.110322 S    
C1    C10   1.467630 S    
C31   H11   1.111002 S    
C2    C9    1.467630 S    
C17   C20   1.401945 A    
C18   C19   1.401937 A    
O1    C1    1.307282 A    
O7    C8    1.308972 A    
C13   C31   1.508435 S    
C21   C24   1.434813 A    
O8    C7    1.308973 A    
C8    C19   1.473313 S    
C22   C23   1.434810 A    
N6    O16   1.301390 A    
C29   H7    1.110317 S    
C17   H3    1.081542 S    
C24   C36   1.512868 S    
C35   H24   1.107452 S    
C29   H6    1.110360 S    
C33   H18   1.110082 S    
C3    N3    1.437536 S    
N1    C22   1.382573 A    
C34   H21   1.110372 S    
C11   C15   1.398567 A    
O4    Cu2   1.974967 S    
C30   H10   1.110366 S    
O5    C7    1.311937 A    
O6    C8    1.311935 A    
C25   C27   1.436110 S    
O2    C2    1.307283 A    
C26   C28   1.436109 S    
N3    O10   1.301196 A    
C13   C17   1.399614 A    
C3    C10   1.409092 A    
C18   H4    1.081535 S    
C15   H1    1.082277 S    
C6    C10   1.411284 A    
C16   H2    1.082285 S    
C6    N6    1.426674 S    
N4    O12   1.301194 A    
C5    C9    1.411280 A    
N6    O15   1.301281 A    
N4    O11   1.301059 A    
C32   H16   1.110312 S    
C15   C19   1.402906 A    
N3    O9    1.301060 A    
N2    C21   1.382575 A    
Cu1   N1    2.045480 S    
C33   H19   1.110374 S    
C27   C28   1.198667 T    
N5    O13   1.301275 A    
C22   C34   1.518730 S    
C34   H22   1.110078 S    
O6    Cu2   1.943760 S    
Cu1   Cu2   2.721888 S    
C23   C35   1.512862 S    
O7    Cu1   1.939716 S    
N5    O14   1.301385 A    
C4    C6    1.396164 A    
C14   C18   1.399613 A    
C36   H28   1.107478 S    
C36   H27   1.103828 S    
C7    C20   1.473311 S    
C35   H25   1.103796 S    
C31   H13   1.110359 S    
C12   C30   1.508771 S    
Cu2   N2    2.045481 S    
C12   C16   1.398567 A    
O4    C1    1.307480 A    
O5    Cu1   1.943760 S    
C13   C26   1.410912 A    
C21   C33   1.518731 S    
C5    N5    1.426671 S    
O1    Cu1   1.989120 S    
C11   C25   1.410144 A    
C3    C5    1.396162 A    
C32   H14   1.110996 S    
N1    C24   1.380071 A    
O8    Cu2   1.939716 S    
N2    C23   1.380069 A    
C4    N4    1.437535 S    
C4    C9    1.409093 A    
O3    Cu1   1.974967 S    
C33   H17   1.082924 S    
C14   C32   1.508426 S    
C35   H23   1.088544 S    
C32   H15   1.110353 S    
C29   H5    1.111028 S    
C16   C20   1.402915 A    
C34   H20   1.082922 S    
C14   C25   1.410902 A    
