data_mof_unit_48648.cif
_audit_creation_date              2012-10-26T20:43:02-0400
_audit_creation_method            fapswitch 2.2
_symmetry_space_group_name_H-M    P1
_symmetry_Int_Tables_number       1
_space_group_crystal_system       triclinic
_cell_length_a                    10.858854
_cell_length_b                    9.673359
_cell_length_c                    14.993165
_cell_angle_alpha                 90.000032
_cell_angle_beta                  94.026523
_cell_angle_gamma                 89.999958
_cell_volume                      1571.01852109

loop_
_atom_site_label
_atom_site_type_symbol
_atom_type_description
_atom_site_fract_x
_atom_site_fract_y
_atom_site_fract_z
_atom_type_partial_charge
C1    C     C_R   0.262449 0.499997 0.499682 0.523048
C2    C     C_R   0.128363 0.500009 0.500007 0.014145
C3    C     C_R   0.420018 0.073929 0.442632 0.193807
C4    C     C_R   0.579798 0.926043 0.557562 0.191566
C5    C     C_R   0.579982 0.073929 0.557368 0.193807
C6    C     C_R   0.420202 0.926043 0.442438 0.191565
C7    C     C_R   0.497618 0.499773 0.329050 0.495475
C8    C     C_R   0.502382 0.499773 0.670950 0.495475
C9    C     C_R   0.615941 0.478802 0.819963 0.028625
C10   C     C_R   0.384058 0.478803 0.180036 0.028624
C11   C     C_R   0.503231 0.496082 0.768409 -0.049291
C12   C     C_R   0.737551 0.499997 0.500318 0.523048
C13   C     C_R   0.496769 0.496081 0.231591 -0.049291
C14   C     C_R   0.389947 0.496782 0.808496 0.021383
C15   C     C_R   0.610053 0.496780 0.191504 0.021384
C16   C     C_R   0.387678 0.462137 0.900123 0.049171
C17   C     C_R   0.612322 0.462136 0.099876 0.049171
C18   C     C_R   0.500478 0.455990 0.953054 -0.008365
C19   C     C_R   0.499522 0.455990 0.046946 -0.008365
C20   C     C_R   0.614040 0.450601 0.912719 0.052338
C21   C     C_R   0.385960 0.450602 0.087280 0.052337
C22   C     C_R   0.278298 0.421188 0.939736 0.009704
C23   C     C_R   0.280081 0.406924 0.033689 0.014290
C24   C     C_R   0.721702 0.421186 0.060264 0.009704
C25   C     C_2   0.733402 0.509908 0.777878 0.318242
C26   C     C_2   0.266598 0.509909 0.222121 0.318242
C27   C     C_2   0.278342 0.550192 0.755937 0.300648
C28   C     C_2   0.721659 0.550188 0.244064 0.300648
C29   C     C_2   0.168891 0.371376 0.883791 0.276753
C30   C     C_2   0.831108 0.371374 0.116208 0.276753
C31   C     C_2   0.183726 0.320343 0.072498 0.306996
C32   C     C_2   0.816274 0.320341 0.927501 0.306996
C33   C     C_R   0.719918 0.406922 0.966310 0.014289
C34   C     C_R   0.063801 0.374565 0.500215 -0.094373
C35   C     C_R   0.936195 0.625468 0.499824 -0.091578
C36   C     C_R   0.936199 0.374565 0.499785 -0.094374
C37   C     C_R   0.063805 0.625468 0.500176 -0.091579
C38   C     C_R   0.871636 0.500009 0.499993 0.014145
Cu1   Cu    Cu3+1 0.500000 0.640660 0.500000 1.030770
Cu2   Cu    Cu3+1 0.500000 0.359340 0.500000 1.036678
H1    H     H_    0.111502 0.276280 0.500767 0.167571
H2    H     H_    0.922383 0.407189 0.102800 0.131433
H3    H     H_    0.091458 0.315425 0.041232 0.073151
H4    H     H_    0.908541 0.315423 0.958767 0.073152
H5    H     H_    0.888474 0.723747 0.499349 0.166591
H6    H     H_    0.888498 0.276280 0.499233 0.167571
H7    H     H_    0.111526 0.723747 0.500651 0.166591
H8    H     H_    0.741823 0.490145 0.707399 0.131062
H9    H     H_    0.258177 0.490146 0.292601 0.131061
H10   H     H_    0.263098 0.527415 0.685336 0.116653
H11   H     H_    0.736902 0.527410 0.314664 0.116653
H12   H     H_    0.077616 0.407192 0.897199 0.131433
I1    I     I_    0.291177 0.177475 0.350893 -0.179493
I2    I     I_    0.707558 0.822631 0.650560 -0.180014
I3    I     I_    0.708824 0.177475 0.649107 -0.179494
I4    I     I_    0.292442 0.822631 0.349440 -0.180014
N1    N     N_R   0.500000 0.852070 0.500000 -0.257038
N2    N     N_R   0.500000 0.147930 0.500000 -0.256649
O1    O     O_R   0.319640 0.618740 0.499990 -0.497830
O2    O     O_2   0.180017 0.564856 0.179426 -0.459475
O3    O     O_2   0.204981 0.625259 0.790686 -0.453744
O4    O     O_2   0.795019 0.625256 0.209315 -0.453744
O5    O     O_2   0.180475 0.289105 0.823162 -0.457232
O6    O     O_2   0.819525 0.289102 0.176837 -0.457232
O7    O     O_2   0.209002 0.246652 0.137240 -0.435592
O8    O     O_2   0.790997 0.246650 0.862760 -0.435592
O9    O     O_R   0.680360 0.381260 0.500010 -0.495837
O10   O     O_R   0.680360 0.618740 0.500010 -0.497829
O11   O     O_R   0.319640 0.381260 0.499990 -0.495837
O12   O     O_R   0.499970 0.618800 0.370260 -0.481225
O13   O     O_R   0.500030 0.381200 0.629740 -0.475479
O14   O     O_R   0.500030 0.618800 0.629740 -0.481225
O15   O     O_R   0.499970 0.381200 0.370260 -0.475479
O16   O     O_2   0.819983 0.564854 0.820574 -0.459477

loop_
_geom_bond_atom_site_label_1
_geom_bond_atom_site_label_2
_ccdc_geom_bond_type
C29   O5    D    
Cu2   O13   S    
C30   O6    D    
Cu1   O10   S    
C3    C6    A    
C7    O12   A    
C9    C25   S    
C7    O15   A    
C12   O10   A    
C22   C29   S    
C31   H3    S    
C5    N2    A    
C19   C21   A    
C25   O16   D    
C1    O1    A    
C28   H11   S    
Cu1   N1    S    
Cu2   O15   S    
C15   C17   A    
C1    C2    S    
C27   O3    D    
C17   C19   A    
C21   C23   A    
Cu2   O9    S    
C4    N1    A    
Cu1   O14   S    
C36   H6    S    
C14   C27   S    
C37   H7    S    
C34   C36   A    
C27   H10   S    
C4    I2    S    
C2    C34   A    
C6    N1    A    
C34   H1    S    
C10   C21   A    
C12   O9    A    
C8    O14   A    
C17   C24   A    
Cu2   N2    S    
Cu2   O11   S    
C35   C38   A    
C26   H9    S    
Cu1   Cu2   S    
C18   C19   A    
C1    O11   A    
C23   C31   S    
C9    C20   A    
Cu1   O1    S    
C32   H4    S    
C9    C11   A    
C25   H8    S    
C20   C33   A    
C13   C15   A    
C14   C16   A    
C35   H5    S    
C32   O8    D    
C31   O7    D    
C8    O13   A    
C16   C22   A    
C35   C37   A    
C5    I3    S    
C6    I4    S    
C4    C5    A    
C10   C13   A    
C24   C33   A    
C32   C33   S    
C36   C38   A    
C3    I1    S    
C2    C37   A    
C10   C26   S    
C15   C28   S    
C8    C11   S    
C11   C14   A    
Cu1   O12   S    
C18   C20   A    
C12   C38   S    
C24   C30   S    
C3    N2    A    
C7    C13   S    
C16   C18   A    
C22   C23   A    
C30   H2    S    
C26   O2    D    
C29   H12   S    
C28   O4    D    
