data_mof_unit_43858.cif
_audit_creation_date              2012-12-11T14:39:39-0500
_audit_creation_method            fapswitch 2.2
_symmetry_space_group_name_H-M    P1
_symmetry_Int_Tables_number       1
_space_group_crystal_system       triclinic
_cell_length_a                    7.217505
_cell_length_b                    14.017692
_cell_length_c                    16.37139
_cell_angle_alpha                 89.99981
_cell_angle_beta                  97.343943
_cell_angle_gamma                 89.999621
_cell_volume                      1642.75129981

loop_
_atom_site_label
_atom_site_type_symbol
_atom_type_description
_atom_site_fract_x
_atom_site_fract_y
_atom_site_fract_z
_atom_type_partial_charge
O1    O     O_R   0.525340 0.338340 0.164530 -0.553099
O2    O     O_R   0.474660 0.661660 0.835470 -0.553098
O3    O     O_R   0.974660 0.838340 0.835470 -0.553102
O4    O     O_R   0.025340 0.161660 0.164530 -0.553102
O5    O     O_R   0.253520 0.352000 0.336710 -0.509997
O6    O     O_R   0.746480 0.648000 0.663290 -0.509997
O7    O     O_R   0.246480 0.852000 0.663290 -0.510000
O8    O     O_R   0.753520 0.148000 0.336710 -0.510000
O9    O     O_R   0.083330 0.168380 0.337300 -0.502260
O10   O     O_R   0.916670 0.831620 0.662700 -0.502260
O11   O     O_R   0.416670 0.668380 0.662700 -0.502262
O12   O     O_R   0.583330 0.331620 0.337300 -0.502262
C1    C     C_R   0.432341 0.369433 0.363209 0.961710
C2    C     C_R   0.567659 0.630567 0.636791 0.961710
C3    C     C_R   0.067658 0.869431 0.636790 0.961697
C4    C     C_R   0.932342 0.130568 0.363210 0.961697
O13   O     O_R   0.195840 0.349670 0.165140 -0.553573
O14   O     O_R   0.804160 0.650330 0.834860 -0.553573
O15   O     O_R   0.304160 0.849670 0.834860 -0.553567
O16   O     O_R   0.695840 0.150330 0.165140 -0.553567
C5    C     C_R   0.356961 0.371499 0.137278 0.788123
C6    C     C_R   0.643039 0.628501 0.862722 0.788123
C7    C     C_R   0.143039 0.871498 0.862722 0.788129
C8    C     C_R   0.856961 0.128502 0.137277 0.788129
O17   O     O_3   0.387830 0.193120 0.250910 -0.381953
O18   O     O_3   0.612170 0.806880 0.749090 -0.381953
O19   O     O_3   0.112170 0.693120 0.749090 -0.381951
O20   O     O_3   0.887830 0.306880 0.250910 -0.381951
V1    V     V_3+5 0.113010 0.264540 0.250910 1.649457
V2    V     V_3+5 0.886990 0.735460 0.749090 1.649456
V3    V     V_3+5 0.386990 0.764540 0.749090 1.649458
V4    V     V_3+5 0.613010 0.235460 0.250910 1.649458
C9    C     C_R   0.967793 0.199434 0.530865 0.450280
C10   C     C_R   0.032207 0.800566 0.469135 0.450280
C11   C     C_R   0.532231 0.699430 0.469136 0.450279
C12   C     C_R   0.467769 0.300570 0.530864 0.450279
C13   C     C_R   0.982990 0.233841 0.611051 0.506019
C14   C     C_R   0.017010 0.766159 0.388949 0.506019
C15   C     C_R   0.517040 0.733836 0.388950 0.506015
C16   C     C_R   0.482960 0.266164 0.611049 0.506015
C17   C     C_R   0.013224 0.172333 0.677715 0.283921
C18   C     C_R   0.986776 0.827667 0.322285 0.283921
C19   C     C_R   0.486802 0.672328 0.322288 0.283933
C20   C     C_R   0.513198 0.327671 0.677712 0.283933
C21   C     C_R   0.029476 0.073767 0.663897 0.438916
C22   C     C_R   0.970524 0.926233 0.336103 0.438916
C23   C     C_R   0.470548 0.573764 0.336107 0.438914
C24   C     C_R   0.529452 0.426236 0.663893 0.438914
C25   C     C_R   0.015430 0.035937 0.582344 -0.118600
C26   C     C_R   0.984569 0.964063 0.417656 -0.118600
C27   C     C_R   0.484581 0.535935 0.417658 -0.118594
C28   C     C_R   0.515419 0.464065 0.582342 -0.118594
C29   C     C_R   0.983355 0.099937 0.514550 -0.155973
C30   C     C_R   0.016645 0.900063 0.485450 -0.155973
C31   C     C_R   0.516658 0.599934 0.485451 -0.155986
C32   C     C_R   0.483342 0.400066 0.514549 -0.155986
C33   C     C_R   0.032364 0.936375 0.567280 0.010268
C34   C     C_R   0.967636 0.063625 0.432720 0.010268
C35   C     C_R   0.467632 0.436376 0.432720 0.010278
C36   C     C_R   0.532368 0.563624 0.567280 0.010278
H1    H     H_    0.138107 0.066351 0.056574 0.152225
H2    H     H_    0.861893 0.933649 0.943426 0.152225
H3    H     H_    0.361893 0.566347 0.943422 0.152228
H4    H     H_    0.638107 0.433653 0.056578 0.152228
C37   C     C_2   0.150207 0.941636 0.930968 -0.257570
C38   C     C_2   0.849793 0.058364 0.069031 -0.257570
C39   C     C_2   0.349792 0.441635 0.069031 -0.257587
C40   C     C_2   0.650208 0.558365 0.930969 -0.257587
C41   C     C_2   0.996207 0.965503 0.965602 -0.113177
C42   C     C_2   0.003793 0.034497 0.034398 -0.113176
C43   C     C_2   0.503793 0.465504 0.034399 -0.113162
C44   C     C_2   0.496207 0.534496 0.965601 -0.113162
H5    H     H_    0.715902 0.026513 0.046121 0.123792
H6    H     H_    0.284098 0.973487 0.953879 0.123792
H7    H     H_    0.784098 0.526516 0.953882 0.123788
H8    H     H_    0.215902 0.473484 0.046117 0.123788
O21   O     O_3   0.973660 0.788688 0.244239 -0.576665
H9    H     H_    0.952107 0.839892 0.202454 0.354419
O22   O     O_3   0.026340 0.211312 0.755761 -0.576665
H10   H     H_    0.047893 0.160108 0.797546 0.354419
O23   O     O_3   0.526314 0.288695 0.755759 -0.576666
H11   H     H_    0.547968 0.339892 0.797545 0.354421
O24   O     O_3   0.473686 0.711305 0.244241 -0.576666
H12   H     H_    0.452031 0.660108 0.202455 0.354421
F1    F     F_    0.938135 0.265776 0.470196 -0.650224
F2    F     F_    0.061865 0.734224 0.529804 -0.650225
F3    F     F_    0.561893 0.765772 0.529804 -0.650227
F4    F     F_    0.438107 0.234228 0.470196 -0.650227
F5    F     F_    0.968020 0.329019 0.624162 -0.624266
F6    F     F_    0.031980 0.670981 0.375838 -0.624266
F7    F     F_    0.532011 0.829014 0.375838 -0.624273
F8    F     F_    0.467988 0.170986 0.624162 -0.624273
F9    F     F_    0.058429 0.016308 0.730916 -0.721764
F10   F     F_    0.941571 0.983692 0.269084 -0.721765
F11   F     F_    0.441599 0.516306 0.269091 -0.721774
F12   F     F_    0.558401 0.483694 0.730909 -0.721774

loop_
_geom_bond_atom_site_label_1
_geom_bond_atom_site_label_2
_ccdc_geom_bond_type
H1    C42   S    
O1    C5    A    
O13   V1    S    
O3    C7    A    
O15   V3    S    
O23   H11   S    
C25   C33   A    
O21   H9    S    
C12   F4    S    
C40   H7    S    
C26   C30   A    
O20   V1    S    
O9    C4    A    
C14   C18   A    
O10   C3    A    
C18   C22   A    
O4    C8    A    
O11   C2    A    
C25   C29   A    
C19   O24   S    
C10   F2    S    
H4    C43   S    
C9    F1    S    
C28   C36   A    
C11   F3    S    
O16   C8    A    
O2    C6    A    
O14   V2    S    
C16   C20   A    
O5    C1    A    
O4    V1    S    
C8    C38   S    
O17   V4    S    
O7    C3    A    
O11   V3    S    
O18   V3    S    
O8    C4    A    
C10   C14   A    
C31   C36   A    
O12   V4    S    
O19   V2    S    
C3    C33   S    
C15   F7    S    
O5    V1    S    
C9    C29   A    
O7    V3    S    
C11   C31   A    
C26   C34   A    
C12   C16   A    
C20   O23   S    
O15   C7    A    
C23   C27   A    
C27   C31   A    
C38   H5    S    
O1    V4    S    
O13   C5    A    
C37   H6    S    
H2    C41   S    
O2    V3    S    
O8    V4    S    
O3    V2    S    
C11   C15   A    
C12   C32   A    
O6    C2    A    
O10   V2    S    
O24   H12   S    
C22   F10   S    
C21   C25   A    
C40   C44   D    
C4    C34   S    
C16   F8    S    
C6    C40   S    
O6    V2    S    
C21   F9    S    
C10   C30   A    
C27   C35   A    
O16   V4    S    
C14   F6    S    
C17   C21   A    
C24   F12   S    
O14   C6    A    
C17   O22   S    
C15   C19   A    
C29   C34   A    
C1    C35   S    
O9    V1    S    
C2    C36   S    
C22   C26   A    
C32   C35   A    
C13   F5    S    
C7    C37   S    
C43   C44   S    
C38   C42   D    
C37   C41   D    
H3    C44   S    
C39   C43   D    
C13   C17   A    
C41   C42   S    
C9    C13   A    
O22   H10   S    
C28   C32   A    
C24   C28   A    
O12   C1    A    
C18   O21   S    
C23   F11   S    
C39   H8    S    
C19   C23   A    
C5    C39   S    
C20   C24   A    
C30   C33   A    
