data_mof_unit_59677.cif
_audit_creation_date              2012-12-10T17:01:35-0500
_audit_creation_method            fapswitch 2.2
_symmetry_space_group_name_H-M    P1
_symmetry_Int_Tables_number       1
_space_group_crystal_system       triclinic
_cell_length_a                    9.804298
_cell_length_b                    11.029723
_cell_length_c                    12.923895
_cell_angle_alpha                 89.593378
_cell_angle_beta                  76.177872
_cell_angle_gamma                 110.896394
_cell_volume                      1261.26059699

loop_
_atom_site_label
_atom_site_type_symbol
_atom_type_description
_atom_site_fract_x
_atom_site_fract_y
_atom_site_fract_z
_atom_type_partial_charge
C1    C     C_R   0.439595 0.253912 0.508335 0.837522
C2    C     C_R   0.560362 0.746096 0.492100 0.874004
C3    C     C_2   0.084835 0.510630 0.488312 -0.044519
C4    C     C_2   0.919894 0.475683 0.491450 -0.067228
C5    C     C_R   0.468718 0.478805 0.703318 0.833773
C6    C     C_R   0.527132 0.509288 0.296766 0.814526
C7    C     C_R   0.538924 0.512088 0.181549 -0.127917
C8    C     C_R   0.441396 0.444687 0.819998 -0.146616
C9    C     C_R   0.282264 0.406164 0.004210 0.095616
C10   C     C_R   0.684586 0.577059 0.996039 0.156546
C11   C     C_R   0.293283 0.403129 0.892998 0.092888
C12   C     C_R   0.669335 0.598670 0.105045 0.084065
C13   C     C_R   0.565635 0.458777 0.861864 0.141325
C14   C     C_R   0.416534 0.425581 0.146262 0.112559
C15   C     C_R   0.556004 0.499380 0.964111 -0.046675
C16   C     C_R   0.415683 0.445744 0.039408 -0.006307
C17   C     C_2   0.405464 0.114644 0.512816 -0.353852
C18   C     C_2   0.594495 0.885424 0.487720 -0.348465
C19   C     C_2   0.516989 0.069631 0.498415 -0.147655
C20   C     C_2   0.482982 0.930483 0.502221 -0.142159
Cu1   Cu    Cu3+1 0.647370 0.522180 0.481340 0.949446
Cu2   Cu    Cu3+1 0.352630 0.477820 0.518660 0.939312
H1    H     H_    0.365676 0.864535 0.517144 0.184053
H2    H     H_    0.634276 0.135593 0.483601 0.180136
H3    H     H_    0.711612 0.951654 0.472776 0.151652
H4    H     H_    0.288366 0.048450 0.527588 0.158512
H5    H     H_    0.841437 0.380033 0.527501 0.154794
H6    H     H_    0.168060 0.593385 0.434050 0.163171
H7    H     H_    0.947442 0.646281 0.420730 0.197923
H8    H     H_    0.049845 0.364431 0.595423 0.192057
N1    N     N_2   0.131210 0.444490 0.546730 -0.288826
N2    N     N_2   0.868790 0.555510 0.453270 -0.270243
O1    O     O_R   0.578710 0.332530 0.490040 -0.586291
O2    O     O_R   0.421290 0.667470 0.509960 -0.575303
O3    O     O_R   0.329810 0.295070 0.521560 -0.579577
O4    O     O_R   0.670190 0.704930 0.478440 -0.581432
O5    O     O_R   0.604230 0.515670 0.637800 -0.556782
O6    O     O_R   0.395770 0.484330 0.362200 -0.576455
O7    O     O_R   0.355330 0.478200 0.669330 -0.572865
O8    O     O_R   0.644670 0.521800 0.330670 -0.572061
C21   C     C_3   0.309410 0.296032 0.211589 -0.363192
C22   C     C_3   0.394872 0.210412 0.232943 -0.819423
H9    H     H_    0.459323 0.191043 0.155915 0.252280
H10   H     H_    0.474466 0.257067 0.281775 0.254330
H11   H     H_    0.313129 0.115788 0.277084 0.239233
H12   H     H_    0.238932 0.310889 0.287538 0.244306
H13   H     H_    0.229305 0.237005 0.166994 0.221998
C23   C     C_3   0.629728 0.350821 0.847526 -0.379330
C24   C     C_3   0.725050 0.353595 0.736195 -0.800610
H14   H     H_    0.650551 0.316678 0.681902 0.251201
H15   H     H_    0.807733 0.454026 0.707797 0.290237
H16   H     H_    0.788107 0.287838 0.737672 0.216760
H17   H     H_    0.701715 0.355558 0.903453 0.224734
H18   H     H_    0.535154 0.254348 0.869090 0.197885
C25   C     C_3   0.788425 0.714692 0.135903 -0.364022
C26   C     C_3   0.778482 0.843183 0.100475 -0.808693
H19   H     H_    0.795261 0.855954 0.012584 0.279647
H20   H     H_    0.666149 0.845774 0.140932 0.247423
H21   H     H_    0.867087 0.926123 0.122975 0.247015
H22   H     H_    0.776288 0.714381 0.222928 0.216340
H23   H     H_    0.903121 0.714389 0.100298 0.242064
C27   C     C_3   0.148490 0.344855 0.855848 -0.333363
C28   C     C_3   0.139638 0.218819 0.804172 -0.802076
H24   H     H_    0.239199 0.233843 0.736139 0.253326
H25   H     H_    0.036479 0.182169 0.774244 0.234452
H26   H     H_    0.133351 0.143324 0.864410 0.254175
H27   H     H_    0.045506 0.317294 0.922532 0.228088
H28   H     H_    0.134772 0.416397 0.802652 0.238178
I1    I     I_    0.075893 0.397977 0.116166 -0.456695
I2    I     I_    0.895504 0.667284 0.877802 -0.428916

loop_
_geom_bond_atom_site_label_1
_geom_bond_atom_site_label_2
_ccdc_geom_bond_type
C13   C23   S    
C3    N1    D    
C25   C26   S    
C28   H25   S    
C17   H4    S    
C8    C13   A    
C5    O5    A    
C23   H17   S    
C2    C18   S    
C21   C22   S    
C1    C17   S    
C19   C20   S    
C20   H1    S    
C27   H28   S    
C21   H12   S    
C24   H16   S    
C11   C27   S    
C27   C28   S    
C13   C15   A    
C19   H2    S    
C21   H13   S    
C28   H26   S    
C1    O1    A    
Cu1   O4    S    
C4    N2    D    
Cu1   Cu2   S    
C23   H18   S    
Cu2   O3    S    
C9    C11   A    
C2    O2    A    
C6    C7    S    
C18   H3    S    
C10   C12   A    
C27   H27   S    
C14   C21   S    
Cu2   O7    S    
C25   H23   S    
C23   C24   S    
C17   C19   D    
C9    C16   A    
C9    I1    S    
H7    N2    S    
C18   C20   D    
C10   C15   A    
C5    O7    A    
H8    N1    S    
Cu2   O2    S    
Cu1   N2    S    
C14   C16   A    
C7    C12   A    
C5    C8    S    
Cu1   O1    S    
Cu2   N1    S    
C8    C11   A    
C3    C4    S    
Cu2   O6    S    
C10   I2    S    
C12   C25   S    
C6    O8    A    
Cu1   O5    S    
C26   H19   S    
C1    O3    A    
C24   H14   S    
C22   H9    S    
C2    O4    A    
C26   H21   S    
C3    H6    S    
C4    H5    S    
C6    O6    A    
C25   H22   S    
C7    C14   A    
C22   H10   S    
C15   C16   A    
C26   H20   S    
C28   H24   S    
C24   H15   S    
C22   H11   S    
Cu1   O8    S    
