data_mof_unit_48333.cif
_audit_creation_date              2012-12-10T18:12:40-0500
_audit_creation_method            fapswitch 2.2
_symmetry_space_group_name_H-M    P1
_symmetry_Int_Tables_number       1
_space_group_crystal_system       triclinic
_cell_length_a                    12.629774
_cell_length_b                    13.021771
_cell_length_c                    15.714123
_cell_angle_alpha                 89.568132
_cell_angle_beta                  102.589298
_cell_angle_gamma                 81.44241
_cell_volume                      2492.02088551

loop_
_atom_site_label
_atom_site_type_symbol
_atom_type_description
_atom_site_fract_x
_atom_site_fract_y
_atom_site_fract_z
_atom_type_partial_charge
C1    C     C_R   0.437873 0.691646 0.486727 0.905846
C2    C     C_3   0.502495 0.487137 0.917058 -0.048539
C3    C     C_3   0.479375 0.397505 0.025090 0.329494
C4    C     C_3   0.501027 0.489436 0.083657 -0.075970
C5    C     C_3   0.580126 0.408979 0.986634 -0.393554
C6    C     C_3   0.599924 0.502543 0.044960 0.553109
C7    C     C_1   0.503173 0.490162 0.826310 0.035746
C8    C     C_1   0.500199 0.492263 0.174394 0.078692
C9    C     C_R   0.711134 0.053409 0.456733 -0.249548
C10   C     C_R   0.599671 0.196451 0.508140 -0.164757
C11   C     C_R   0.296250 0.841293 0.496088 -0.204433
C12   C     C_R   0.500983 0.499267 0.661714 0.873332
C13   C     C_R   0.266748 0.947643 0.501607 -0.138760
C14   C     C_R   0.341004 0.014238 0.494035 -0.120278
C15   C     C_R   0.443767 0.975180 0.474668 0.035895
C16   C     C_R   0.461923 0.871525 0.450862 -0.122620
C17   C     C_R   0.529192 0.034736 0.478575 -0.004895
C18   C     C_R   0.624598 0.994922 0.448186 -0.121332
C19   C     C_R   0.629653 0.899321 0.407028 0.399167
C20   C     C_R   0.545380 0.839864 0.405039 0.401992
C21   C     C_R   0.522957 0.132303 0.513989 -0.271195
C22   C     C_R   0.699292 0.154645 0.486608 0.515538
C23   C     C_R   0.562044 0.307892 0.510204 0.862557
C24   C     C_R   0.396010 0.802501 0.474016 -0.103324
C25   C     C_R   0.082437 0.367185 0.361073 0.344502
C26   C     C_R   0.799438 0.629085 0.603265 0.583566
C27   C     C_R   0.903068 0.661718 0.619757 0.315244
C28   C     C_R   0.981626 0.615481 0.575723 -0.320181
C29   C     C_R   0.959427 0.534997 0.518227 0.024066
C30   C     C_R   0.852879 0.508318 0.501081 0.081101
C31   C     C_R   0.038978 0.481040 0.476410 -0.131213
C32   C     C_R   0.006280 0.413862 0.408371 -0.102637
C33   C     C_R   0.900749 0.387530 0.394249 -0.134879
C34   C     C_R   0.499541 0.499186 0.338401 0.902432
C35   C     C_R   0.826546 0.432588 0.441116 -0.086210
C36   C     C_R   0.152084 0.481632 0.506384 0.451579
C37   C     C_R   0.191943 0.386548 0.384906 0.409684
C38   C     C_3   0.426283 0.565806 0.013132 0.391819
C39   C     C_3   0.525880 0.581057 0.974741 -0.366071
C40   C     C_1   0.503328 0.494673 0.751056 -0.193344
C41   C     C_1   0.499564 0.495465 0.249530 -0.204668
C42   C     C_3   0.402859 0.473795 0.955534 0.365439
H1    H     H_    0.546493 0.655187 0.952400 0.161576
H2    H     H_    0.455288 0.162990 0.542666 0.163348
H3    H     H_    0.242608 0.789488 0.511173 0.162777
H4    H     H_    0.314792 0.095668 0.501703 0.135339
H5    H     H_    0.188562 0.978287 0.516024 0.138243
H6    H     H_    0.875789 0.328073 0.350109 0.196365
H7    H     H_    0.059141 0.644183 0.587173 0.221449
H8    H     H_    0.749420 0.405389 0.429876 0.229989
H9    H     H_    0.643130 0.345783 0.973539 0.153131
H10   H     H_    0.785762 0.023382 0.436076 0.188710
N1    N     N_R   0.222180 0.444680 0.455580 -0.209261
N2    N     N_R   0.776980 0.554790 0.543960 -0.189442
O1    O     O_R   0.366730 0.627160 0.478790 -0.619573
O2    O     O_R   0.544830 0.662520 0.507160 -0.550840
O3    O     O_R   0.410960 0.482330 0.609040 -0.599956
O4    O     O_R   0.589060 0.517690 0.637410 -0.560853
O5    O     O_R   0.455170 0.337480 0.492840 -0.581682
O6    O     O_R   0.633270 0.372840 0.521210 -0.606542
O7    O     O_R   0.410940 0.482310 0.362590 -0.609309
O8    O     O_R   0.589040 0.517670 0.390960 -0.593787
Zn1   Zn    Zn3+2 0.381080 0.476390 0.481050 0.976925
Zn2   Zn    Zn3+2 0.618920 0.523610 0.518950 1.014251
O9    O     O_3   0.539990 0.754685 0.352787 -0.604471
C43   C     C_3   0.486801 0.789148 0.265893 0.086178
H11   H     H_    0.527409 0.740362 0.220888 0.182252
H12   H     H_    0.494456 0.871138 0.249917 0.111678
C44   C     C_3   0.365137 0.776433 0.246246 -0.355483
H13   H     H_    0.357558 0.693099 0.237525 0.227398
H14   H     H_    0.327020 0.803232 0.300895 0.227347
C45   C     C_3   0.301517 0.839950 0.164116 -0.895407
H15   H     H_    0.293471 0.924194 0.177075 0.247310
H16   H     H_    0.218092 0.818407 0.144047 0.268556
H17   H     H_    0.344850 0.825627 0.110120 0.287344
O10   O     O_3   0.274827 0.331302 0.350633 -0.570943
C46   C     C_3   0.257045 0.344773 0.258694 0.210917
H18   H     H_    0.322250 0.384491 0.242720 0.153547
H19   H     H_    0.179194 0.395140 0.227231 0.057935
C47   C     C_3   0.265277 0.238643 0.217163 -0.352727
H20   H     H_    0.203108 0.194336 0.233106 0.260274
H21   H     H_    0.248065 0.250853 0.145152 0.167041
C48   C     C_3   0.379116 0.174334 0.248450 -0.799246
H22   H     H_    0.442862 0.215328 0.230730 0.267033
H23   H     H_    0.381596 0.098046 0.217299 0.215658
H24   H     H_    0.397818 0.159964 0.320277 0.291640
O11   O     O_3   0.054503 0.294899 0.298901 -0.602361
C49   C     C_3   0.984337 0.344536 0.222025 -0.341861
H25   H     H_    0.978126 0.430938 0.218707 0.155115
H26   H     H_    0.900917 0.323607 0.214126 0.203053
H27   H     H_    0.015545 0.314360 0.164940 0.169902
O12   O     O_3   0.193835 0.501604 0.592500 -0.632129
C50   C     C_3   0.227401 0.406016 0.642253 0.170472
H28   H     H_    0.284577 0.421298 0.703651 0.194815
H29   H     H_    0.274238 0.345669 0.608843 0.126622
C51   C     C_3   0.130994 0.363427 0.667496 -0.402804
H30   H     H_    0.085825 0.423673 0.701499 0.242243
H31   H     H_    0.073584 0.342968 0.608386 0.214754
C52   C     C_3   0.171257 0.265326 0.726402 -0.997343
H32   H     H_    0.209075 0.202066 0.690398 0.265207
H33   H     H_    0.100882 0.239289 0.747612 0.269029
H34   H     H_    0.233012 0.280576 0.785033 0.279075
O13   O     O_3   0.721413 0.665080 0.650328 -0.570055
C53   C     C_3   0.693324 0.774466 0.641679 -0.220430
H35   H     H_    0.706968 0.808629 0.580474 0.123206
H36   H     H_    0.738834 0.810393 0.699350 0.181794
H37   H     H_    0.604685 0.795216 0.640933 0.169044
O14   O     O_3   0.346066 0.644606 0.031691 -0.615565
C54   C     C_3   0.305356 0.713164 0.958017 -0.354144
H38   H     H_    0.280386 0.671555 0.896987 0.194721
H39   H     H_    0.366952 0.763255 0.950449 0.171615
H40   H     H_    0.231232 0.764691 0.968025 0.188053
O15   O     O_3   0.930979 0.728358 0.686443 -0.629466
C55   C     C_3   0.956211 0.821665 0.654222 0.063291
H41   H     H_    0.892973 0.886480 0.664577 0.151036
H42   H     H_    0.955382 0.824043 0.582969 0.129299
C56   C     C_3   0.068609 0.840611 0.705907 -0.309641
H43   H     H_    0.073056 0.830376 0.776978 0.232432
H44   H     H_    0.133671 0.782883 0.688294 0.217296
C57   C     C_3   0.089442 0.950115 0.687102 -1.003418
H45   H     H_    0.079397 0.964358 0.615948 0.256563
H46   H     H_    0.174319 0.959244 0.720591 0.272354
H47   H     H_    0.030795 0.008745 0.711258 0.263203
O16   O     O_3   0.700687 0.518678 0.098686 -0.591890
C58   C     C_3   0.779149 0.519618 0.047384 -0.313426
H48   H     H_    0.750957 0.578858 0.992578 0.172441
H49   H     H_    0.800459 0.441378 0.022355 0.166339
H50   H     H_    0.855250 0.540381 0.088938 0.182140
O17   O     O_3   0.453282 0.304785 0.056698 -0.647488
C59   C     C_3   0.450968 0.230252 0.991800 0.109017
H51   H     H_    0.535528 0.203881 0.982568 0.138751
H52   H     H_    0.397236 0.262253 0.928427 0.165518
C60   C     C_3   0.405956 0.136422 0.020739 -0.338810
H53   H     H_    0.460086 0.101767 0.082875 0.225464
H54   H     H_    0.322349 0.161971 0.031899 0.225804
C61   C     C_3   0.399567 0.053892 0.952126 -0.998896
H55   H     H_    0.343757 0.086153 0.889896 0.269349
H56   H     H_    0.367100 0.986793 0.975488 0.265563
H57   H     H_    0.482431 0.026039 0.940324 0.265643
O18   O     O_3   0.300306 0.455804 0.905683 -0.665436
C62   C     C_3   0.223356 0.460971 0.959552 0.120307
H58   H     H_    0.184270 0.542983 0.961175 0.183853
H59   H     H_    0.261051 0.431192 0.027879 0.154169
C63   C     C_3   0.134188 0.396161 0.922025 -0.334379
H60   H     H_    0.094046 0.424718 0.854281 0.243710
H61   H     H_    0.172016 0.313601 0.921066 0.223400
C64   C     C_3   0.047240 0.402904 0.976499 -1.017010
H62   H     H_    0.085550 0.374683 0.044657 0.251037
H63   H     H_    0.984476 0.353864 0.948479 0.269958
H64   H     H_    0.006020 0.484436 0.976577 0.269708
O19   O     O_3   0.779505 0.215513 0.485176 -0.624859
C65   C     C_3   0.868371 0.183936 0.556357 -0.331121
H65   H     H_    0.908959 0.103488 0.549638 0.159972
H66   H     H_    0.842014 0.190486 0.619532 0.161343
H67   H     H_    0.930404 0.236108 0.557542 0.200105
O20   O     O_3   0.720489 0.858707 0.375162 -0.588219
C66   C     C_3   0.715436 0.906124 0.292800 -0.315068
H68   H     H_    0.799749 0.916539 0.288558 0.189945
H69   H     H_    0.663116 0.984028 0.279876 0.140120
H70   H     H_    0.685822 0.853741 0.240536 0.180886

loop_
_geom_bond_atom_site_label_1
_geom_bond_atom_site_label_2
_ccdc_geom_bond_type
C43   H12   S    
O11   C49   S    
C3    C42   S    
C50   H28   S    
C45   H16   S    
N1    Zn1   S    
C2    C7    S    
C6    O16   S    
C4    C8    S    
C53   H36   S    
C55   H41   S    
C14   H4    S    
C9    H10   S    
C46   H18   S    
C10   C22   A    
C23   O5    A    
C30   N2    A    
C26   C27   A    
C66   H68   S    
C30   C35   A    
O20   C66   S    
C64   H63   S    
C1    O2    A    
C38   C42   S    
C61   H57   S    
C5    C6    S    
C47   H20   S    
C9    C22   A    
C43   C44   S    
C15   C16   A    
C51   C52   S    
C11   C24   A    
C25   O11   S    
O14   C54   S    
O7    Zn1   S    
C18   C19   A    
C44   H14   S    
O8    Zn2   S    
C36   N1    A    
C54   H39   S    
C25   C37   A    
C62   H58   S    
C2    C39   S    
C64   H62   S    
C51   H31   S    
C60   C61   S    
O19   C65   S    
C65   H67   S    
C31   C36   A    
C57   H47   S    
C16   C20   A    
C12   O4    A    
C36   O12   S    
C25   C32   A    
C43   H11   S    
C16   C24   A    
C13   C14   A    
C60   H54   S    
C19   O20   S    
C34   C41   S    
C63   C64   S    
C26   N2    A    
C53   H35   S    
C57   H46   S    
O3    Zn1   S    
O10   C46   S    
C46   H19   S    
C10   C21   A    
O4    Zn2   S    
C23   O6    A    
C42   O18   S    
C20   O9    S    
C64   H64   S    
C38   C39   S    
C8    C41   T    
C4    C6    S    
C54   H40   S    
C13   H5    S    
C63   H60   S    
C39   H1    S    
C34   O7    A    
C17   C21   A    
O1    Zn1   S    
C62   H59   S    
C12   C40   S    
C44   C45   S    
C59   H52   S    
C29   C30   A    
C26   O13   S    
C58   H50   S    
C21   H2    S    
C28   H7    S    
C48   H22   S    
C49   H27   S    
C7    C40   T    
C6    C39   S    
C51   H30   S    
C52   H34   S    
C35   H8    S    
O2    Zn2   S    
C17   C18   A    
O18   C62   S    
C12   O3    A    
C27   O15   S    
C63   H61   S    
C48   H23   S    
C37   O10   S    
C49   H26   S    
C66   H70   S    
C58   H48   S    
C56   C57   S    
C59   C60   S    
C66   H69   S    
C3    C4    S    
C34   O8    A    
O13   C53   S    
C57   H45   S    
C61   H56   S    
C47   C48   S    
O15   C55   S    
C46   C47   S    
C15   C17   A    
C22   O19   S    
C28   C29   A    
C52   H33   S    
C3    O17   S    
C31   C32   A    
C65   H66   S    
C45   H15   S    
C3    C5    S    
C55   H42   S    
C62   C63   S    
C10   C23   S    
C50   C51   S    
O5    Zn1   S    
C52   H32   S    
O6    Zn2   S    
C32   C33   A    
C19   C20   A    
C56   H44   S    
C59   H51   S    
O17   C59   S    
C37   N1    A    
C29   C31   A    
C56   H43   S    
C11   C13   A    
C45   H17   S    
C60   H53   S    
N2    Zn2   S    
C2    C42   S    
O12   C50   S    
C33   C35   A    
C47   H21   S    
C1    O1    A    
C38   O14   S    
C44   H13   S    
C55   C56   S    
C11   H3    S    
C2    C5    S    
C9    C18   A    
C48   H24   S    
C49   H25   S    
C1    C24   S    
C50   H29   S    
O9    C43   S    
C54   H38   S    
C27   C28   A    
C58   H49   S    
C33   H6    S    
C14   C15   A    
C5    H9    S    
C65   H65   S    
C4    C38   S    
C53   H37   S    
C61   H55   S    
O16   C58   S    
