data_mof_unit_16361.cif
_audit_creation_date              2012-12-11T16:35:16-0500
_audit_creation_method            fapswitch 2.2
_symmetry_space_group_name_H-M    P1
_symmetry_Int_Tables_number       1
_space_group_crystal_system       triclinic
_cell_length_a                    6.926017
_cell_length_b                    17.712275
_cell_length_c                    19.538228
_cell_angle_alpha                 108.814008
_cell_angle_beta                  89.853893
_cell_angle_gamma                 90.340784
_cell_volume                      2268.75831088

loop_
_atom_site_label
_atom_site_type_symbol
_atom_type_description
_atom_site_fract_x
_atom_site_fract_y
_atom_site_fract_z
_atom_type_partial_charge
O1    O     O_R   0.505700 0.440210 0.561730 -0.563011
O2    O     O_R   0.169350 0.406300 0.412660 -0.554505
O3    O     O_R   0.005650 0.559790 0.438270 -0.550379
C1    C     C_R   0.339369 0.381436 0.385673 0.794094
O4    O     O_R   0.175560 0.430650 0.559600 -0.505466
O5    O     O_R   0.011900 0.584320 0.586250 -0.523066
C2    C     C_R   0.345023 0.417204 0.582858 0.740050
O6    O     O_R   0.499450 0.415680 0.413750 -0.503040
O7    O     O_3   0.341370 0.550390 0.508570 -0.377542
V1    V     V_3+5 0.063940 0.490650 0.498410 1.485493
O8    O     O_R   0.682570 0.593700 0.587340 -0.561764
C3    C     C_R   0.849020 0.617374 0.615641 0.774410
O9    O     O_R   0.676370 0.569350 0.440400 -0.508006
C4    C     C_R   0.844938 0.582433 0.416874 0.808825
V2    V     V_3+5 0.564750 0.509350 0.501590 1.477215
O10   O     O_3   0.837190 0.449610 0.491430 -0.366921
C5    C     C_R   0.010222 0.669798 0.269707 0.184157
C6    C     C_R   0.006984 0.623277 0.316293 0.107291
C7    C     C_R   0.854320 0.631103 0.366759 -0.201013
C8    C     C_R   0.706440 0.685805 0.368312 -0.235604
H1    H     H_    0.587634 0.693429 0.406066 0.159583
C9    C     C_R   0.712096 0.733134 0.323014 0.640740
C10   C     C_R   0.864030 0.725866 0.273585 0.044212
C11   C     C_R   0.026019 0.833439 0.235091 0.077615
C12   C     C_R   0.044885 0.877511 0.186904 0.567981
C13   C     C_R   0.911403 0.867592 0.130654 -0.272552
C14   C     C_R   0.755724 0.814413 0.124507 -0.346032
H2    H     H_    0.649299 0.806560 0.082195 0.183292
C15   C     C_R   0.737732 0.769580 0.171684 0.675402
C16   C     C_R   0.874122 0.777817 0.226796 -0.021085
H3    H     H_    0.592078 0.665109 0.926475 0.164121
C17   C     C_R   0.061626 0.900732 0.742979 0.053847
C18   C     C_R   0.138532 0.905378 0.678322 0.626992
C19   C     C_R   0.124044 0.841781 0.615678 -0.264187
C20   C     C_R   0.027974 0.772160 0.614736 0.102735
C21   C     C_R   0.956412 0.762235 0.680167 0.043631
C22   C     C_R   0.977675 0.827940 0.746454 -0.049409
C23   C     C_R   0.849858 0.692464 0.680402 -0.135433
C24   C     C_R   0.748174 0.694640 0.745016 -0.016460
C25   C     C_R   0.810147 0.749267 0.811686 0.029459
C26   C     C_R   0.911197 0.819101 0.813058 -0.102809
C27   C     C_R   0.582165 0.646845 0.747375 0.106746
C28   C     C_R   0.531925 0.634143 0.812868 0.261081
C29   C     C_R   0.630337 0.674600 0.876069 -0.093394
C30   C     C_R   0.760441 0.734640 0.876499 -0.208695
H4    H     H_    0.178854 0.848139 0.565805 0.173615
H5    H     H_    0.819679 0.770212 0.928150 0.108880
C31   C     C_R   0.312990 0.207670 0.377593 0.113739
C32   C     C_R   0.367677 0.133457 0.380822 -0.142476
C33   C     C_R   0.465589 0.079744 0.324043 0.183246
C34   C     C_R   0.490201 0.095911 0.258995 0.214584
C35   C     C_R   0.425414 0.169867 0.252407 -0.016653
C36   C     C_R   0.361219 0.231269 0.316075 -0.034146
C37   C     C_R   0.426196 0.184361 0.184796 -0.082570
C38   C     C_R   0.414388 0.264148 0.183818 -0.173882
C39   C     C_R   0.400755 0.328415 0.250425 -0.190387
C40   C     C_R   0.356456 0.312552 0.316228 -0.084399
C41   C     C_R   0.427666 0.282251 0.118008 0.516962
C42   C     C_R   0.444357 0.360842 0.117924 -0.015140
C43   C     C_R   0.453267 0.422794 0.183591 0.509688
C44   C     C_R   0.433584 0.407157 0.248645 0.454200
H6    H     H_    0.337155 0.118014 0.429138 0.163447
C45   C     C_R   0.525249 0.325083 0.723931 0.680681
C46   C     C_R   0.520948 0.371226 0.677605 0.002634
C47   C     C_R   0.358413 0.367165 0.631720 -0.323664
C48   C     C_R   0.208052 0.313333 0.632575 0.548378
C49   C     C_R   0.217406 0.265180 0.677446 0.095780
C50   C     C_R   0.375423 0.271616 0.724209 -0.068192
C51   C     C_R   0.243174 0.230656 0.827095 0.584123
C52   C     C_R   0.255031 0.186587 0.875417 0.093437
C53   C     C_R   0.414221 0.135670 0.872111 -0.191823
C54   C     C_R   0.556680 0.129218 0.819396 -0.301828
H7    H     H_    0.677286 0.089265 0.814692 0.160198
C55   C     C_R   0.541452 0.171466 0.770282 0.710471
C56   C     C_R   0.385807 0.223305 0.774072 -0.070146
O11   O     O_R   0.273230 0.084330 0.086440 -0.531698
O12   O     O_R   0.596660 0.069390 0.940470 -0.541338
O13   O     O_R   0.760270 0.915710 0.913690 -0.551297
C57   C     C_R   0.427202 0.085642 0.920150 0.884043
O14   O     O_R   0.603330 0.093680 0.087390 -0.520067
O15   O     O_R   0.766990 0.940160 0.061660 -0.549400
C58   C     C_R   0.434842 0.116006 0.115714 0.903486
O16   O     O_R   0.266510 0.059870 0.938470 -0.520838
O17   O     O_3   0.431050 0.949630 0.991510 -0.387118
V3    V     V_3+5 0.708490 0.009340 0.001580 1.516560
O18   O     O_R   0.096270 0.930570 0.059390 -0.517144
C59   C     C_R   0.926594 0.915656 0.081023 0.787703
O19   O     O_R   0.089600 0.906290 0.912460 -0.541212
C60   C     C_R   0.921535 0.885383 0.883415 0.755538
V4    V     V_3+5 0.207670 0.990600 0.998190 1.544903
O20   O     O_3   0.935250 0.050360 0.008480 -0.358733
N1    N     N_3   0.162436 0.659890 0.217612 -0.560382
H8    H     H_    0.160875 0.600651 0.183583 0.295135
H9    H     H_    0.294219 0.670746 0.245151 0.330959
N2    N     N_3   0.065387 0.971962 0.803805 -0.639477
H10   H     H_    0.208635 0.991266 0.810571 0.247000
H11   H     H_    0.985283 0.015471 0.791080 0.253135
F1    F     F_    0.222339 0.973970 0.675798 -0.669890
N3    N     N_3   0.990856 0.715468 0.545329 -0.654467
H12   H     H_    0.123232 0.699825 0.518766 0.240181
H13   H     H_    0.908174 0.743390 0.515825 0.219170
N4    N     N_3   0.430636 0.634031 0.694827 -0.674334
H14   H     H_    0.441403 0.673447 0.665035 0.257292
H15   H     H_    0.428628 0.574600 0.662052 0.238354
N5    N     N_3   0.369730 0.585292 0.817282 -0.627178
H16   H     H_    0.245316 0.609660 0.802791 0.255477
H17   H     H_    0.389401 0.528481 0.779947 0.240769
F2    F     F_    0.482970 0.499197 0.185127 -0.629341
N6    N     N_3   0.197044 0.254166 0.436157 -0.596452
H18   H     H_    0.074709 0.274178 0.416147 0.258491
H19   H     H_    0.281488 0.300447 0.468358 0.231828
N7    N     N_3   0.159350 0.567466 0.309960 -0.567450
H20   H     H_    0.241588 0.586275 0.357267 0.285955
H21   H     H_    0.099110 0.511229 0.303084 0.247484
N8    N     N_3   0.541391 0.007966 0.332061 -0.629868
H22   H     H_    0.642607 0.024064 0.373968 0.244161
H23   H     H_    0.429101 0.977847 0.348059 0.261703
N9    N     N_3   0.598088 0.040189 0.202454 -0.655536
H24   H     H_    0.736024 0.034779 0.221976 0.241015
H25   H     H_    0.529880 0.984517 0.188578 0.299503
F3    F     F_    0.429049 0.224471 0.052640 -0.688120
N10   N     N_3   0.461713 0.375785 0.050079 -0.542904
H26   H     H_    0.485275 0.436331 0.058018 0.297875
H27   H     H_    0.329376 0.361168 0.023359 0.255013
F4    F     F_    0.460447 0.469979 0.309362 -0.667198
F5    F     F_    0.676748 0.333442 0.769920 -0.597969
N11   N     N_3   0.684313 0.421963 0.679493 -0.554357
H28   H     H_    0.755858 0.402001 0.629835 0.297198
H29   H     H_    0.637810 0.480372 0.689294 0.207894
F6    F     F_    0.053104 0.305206 0.588266 -0.675161
N12   N     N_3   0.067032 0.208452 0.674474 -0.500059
H30   H     H_    0.060999 0.168537 0.621743 0.270167
H31   H     H_    0.936729 0.239455 0.684891 0.353939
F7    F     F_    0.093611 0.281636 0.832795 -0.614536
N13   N     N_3   0.106360 0.194531 0.928431 -0.561882
H32   H     H_    0.096877 0.254605 0.959804 0.273342
H33   H     H_    0.975083 0.177726 0.901314 0.258031
F8    F     F_    0.676268 0.159871 0.717571 -0.646641
F9    F     F_    0.571628 0.787837 0.328986 -0.688228
N14   N     N_3   0.159046 0.846261 0.293676 -0.590847
H34   H     H_    0.143154 0.905122 0.327419 0.246825
H35   H     H_    0.298643 0.839636 0.272232 0.333218
F10   F     F_    0.189886 0.931822 0.196692 -0.707916
F11   F     F_    0.589608 0.716722 0.162441 -0.641666

loop_
_geom_bond_atom_site_label_1
_geom_bond_atom_site_label_2
_ccdc_geom_bond_type
C26   C60   S    
C38   C39   A    
C51   F7    S    
C14   C15   A    
N2    H10   S    
C1    O6    A    
O14   V3    S    
N7    H21   S    
V3    O20   S    
N13   H32   S    
C12   F10   S    
C11   N14   S    
C50   C56   S    
C55   F8    S    
C13   C14   A    
C5    C10   A    
C21   C22   A    
N14   H35   S    
C18   F1    S    
N6    H19   S    
O5    C3    A    
C23   C24   A    
V2    O10   S    
C34   N9    S    
C39   C40   A    
C5    C6    A    
C19   C20   A    
C28   N5    S    
N9    H24   S    
N4    H14   S    
C45   C50   A    
O8    V2    S    
O17   V3    S    
C7    C8    A    
C13   C59   S    
N8    H23   S    
C1    C40   S    
C51   C56   A    
C52   C53   A    
C19   H4    S    
O7    V1    S    
C43   F2    S    
H3    C29   S    
C42   N10   S    
C30   H5    S    
C31   N6    S    
O12   V3    S    
C42   C43   A    
O9    C4    A    
C22   C26   A    
C25   C30   A    
C5    N1    S    
O17   V4    S    
C20   N3    S    
C27   N4    S    
C53   C57   S    
N7    H20   S    
C35   C37   A    
C33   C34   A    
C24   C27   A    
C11   C16   A    
O12   C57   A    
O13   C60   A    
C31   C36   A    
C6    N7    S    
C55   C56   A    
C34   C35   A    
C10   C16   S    
C11   C12   A    
C54   C55   A    
O18   V4    S    
O11   C58   A    
C24   C25   A    
O4    C2    A    
C36   C40   A    
O18   C59   A    
C6    C7    A    
C41   C42   A    
C15   F11   S    
C9    F9    S    
C49   C50   A    
C43   C44   A    
C20   C21   A    
O2    C1    A    
C28   C29   A    
N11   H29   S    
C15   C16   A    
C2    C47   S    
N5    H17   S    
N3    H12   S    
C46   N11   S    
C8    H1    S    
N1    H9    S    
C18   C19   A    
C17   C22   A    
N14   H34   S    
N4    H15   S    
O15   C59   A    
O3    C4    A    
O1    V2    S    
O13   V3    S    
O14   C58   A    
C31   C32   A    
N3    H13   S    
O19   V4    S    
C47   C48   A    
O6    V2    S    
O9    V2    S    
C52   N13   S    
C27   C28   A    
N10   H27   S    
N12   H30   S    
O2    V1    S    
C37   C58   S    
C35   C36   A    
N13   H33   S    
O16   V4    S    
C37   C38   A    
C25   C26   A    
C41   F3    S    
C32   H6    S    
O1    C2    A    
C4    C7    S    
C9    C10   A    
C49   N12   S    
C29   C30   A    
C8    C9    A    
C54   H7    S    
N12   H31   S    
O5    V1    S    
O8    C3    A    
N2    H11   S    
N11   H28   S    
N5    H16   S    
C17   C18   A    
C21   C23   A    
C12   C13   A    
O4    V1    S    
O3    V1    S    
V1    O10   S    
N6    H18   S    
C33   N8    S    
C57   O16   A    
V4    O20   S    
C46   C47   A    
N1    H8    S    
C48   C49   A    
C3    C23   S    
C51   C52   A    
N9    H25   S    
C45   F5    S    
C45   C46   A    
C53   C54   A    
C17   N2    S    
O19   C60   A    
C32   C33   A    
C38   C41   A    
C14   H2    S    
C39   C44   A    
C44   F4    S    
N10   H26   S    
O15   V3    S    
N8    H22   S    
O7    V2    S    
O11   V4    S    
C48   F6    S    
