data_mof_unit_36916.cif
_audit_creation_date              2013-03-05T15:52:12-0500
_audit_creation_method            fapswitch 2.2
_symmetry_space_group_name_H-M    P1
_symmetry_Int_Tables_number       1
_space_group_crystal_system       triclinic
_cell_length_a                    8.281176
_cell_length_b                    17.409701
_cell_length_c                    27.047551
_cell_angle_alpha                 95.3642
_cell_angle_beta                  92.845089
_cell_angle_gamma                 83.4804
_cell_volume                      3854.33353178

loop_
_atom_site_label
_atom_site_type_symbol
_atom_site_description
_atom_site_fract_x
_atom_site_fract_y
_atom_site_fract_z
_atom_type_partial_charge
P1    P     P_3+3 0.078810 0.562990 0.610370 0.480504
O1    O     O_2   0.910880 0.540430 0.617910 -0.359846
O2    O     O_3   0.142880 0.540370 0.557740 -0.400741
O3    O     O_3   0.675650 0.402220 0.588450 -0.358683
O4    O     O_2   0.820216 0.454090 0.672531 -0.361448
O5    O     O_3   0.052453 0.664090 0.622317 -0.554557
O6    O     O_3   0.694202 0.332061 0.684064 -0.571599
C1    C     C_3   0.557218 0.227776 0.704704 -0.172017
H1    H     H_    0.670141 0.204540 0.724655 0.197403
H2    H     H_    0.487329 0.267976 0.732072 0.145205
P2    P     P_3+3 0.645380 0.325580 0.462150 0.517944
P3    P     P_3+3 0.119123 0.262263 0.562729 0.540373
O7    O     O_2   0.823810 0.314230 0.476690 -0.335210
O8    O     O_3   0.086630 0.363340 0.564170 -0.419226
O9    O     O_2   0.957912 0.229586 0.545184 -0.260466
O10   O     O_3   0.666952 0.327216 0.397634 -0.623398
O11   O     O_3   0.155759 0.236393 0.623782 -0.518144
C2    C     C_3   0.087381 0.296193 0.657441 0.309710
H3    H     H_    0.959474 0.313102 0.646094 0.176305
H4    H     H_    0.156864 0.347347 0.658633 0.042748
C3    C     C_3   0.094887 0.267313 0.709474 -0.060570
H5    H     H_    0.059011 0.207438 0.707100 0.198170
C4    C     C_3   0.082357 0.289399 0.402162 0.039901
H6    H     H_    0.095683 0.302660 0.442962 0.113505
H7    H     H_    0.954071 0.297566 0.388822 0.140922
C5    C     C_3   0.154128 0.204352 0.388075 0.515335
H8    H     H_    0.285967 0.199873 0.397462 -0.038870
Ba1   Ba    Ba6+2 0.856110 0.463800 0.523550 1.631518
C6    C     C_3   0.992820 0.698155 0.579348 0.399334
H9    H     H_    0.876473 0.676373 0.566637 0.092634
H10   H     H_    0.080857 0.685442 0.549338 0.132289
C7    C     C_3   0.965570 0.785621 0.591612 -0.895694
H11   H     H_    0.871483 0.800087 0.619877 0.276531
H12   H     H_    0.924643 0.814963 0.557893 0.222046
H13   H     H_    0.080865 0.807588 0.606382 0.266111
C8    C     C_3   0.571727 0.276994 0.368279 0.850885
H14   H     H_    0.448591 0.282694 0.382299 0.016929
C9    C     C_3   0.648173 0.192083 0.366003 -0.911196
H15   H     H_    0.767928 0.187483 0.385915 0.263411
H16   H     H_    0.667058 0.165937 0.327438 0.317510
H17   H     H_    0.566624 0.155672 0.382100 0.204151
P4    P     P_3+3 0.110900 0.436950 0.389630 0.551717
O12   O     O_2   0.278810 0.459550 0.382060 -0.281876
O13   O     O_3   0.046820 0.459570 0.442260 -0.386140
O14   O     O_3   0.514050 0.597710 0.411540 -0.368744
O15   O     O_3   0.172814 0.337302 0.378707 -0.542435
P5    P     P_3+3 0.072018 0.737817 0.433272 0.464879
O16   O     O_3   0.627090 0.591350 0.524530 -0.385402
O17   O     O_3   0.103080 0.636600 0.435820 -0.367000
O18   O     O_2   0.205631 0.773221 0.467046 -0.379576
O19   O     O_3   0.117060 0.757942 0.373702 -0.484529
Ba2   Ba    Ba6+2 0.333710 0.536130 0.476450 1.626849
P6    P     P_3+3 0.664878 0.417741 0.653767 0.475021
C10   C     C_3   0.601016 0.274333 0.662507 0.639311
H18   H     H_    0.486088 0.299264 0.643983 -0.037075
O20   O     O_3   0.562610 0.408580 0.475460 -0.344052
C11   C     C_3   0.502475 0.657096 0.626898 0.410510
H19   H     H_    0.379534 0.644902 0.612246 0.103513
H20   H     H_    0.587985 0.603067 0.623307 0.101011
C12   C     C_3   0.490041 0.685674 0.681628 -0.913870
H21   H     H_    0.412359 0.742086 0.685661 0.279929
H22   H     H_    0.434490 0.643464 0.701865 0.219152
H23   H     H_    0.612990 0.693268 0.698408 0.264847
P7    P     P_3+3 0.550318 0.688491 0.537954 0.443385
O21   O     O_2   0.365880 0.685750 0.523280 -0.368319
O22   O     O_3   0.560433 0.714842 0.601953 -0.560594
H24   H     H_    0.220769 0.265215 0.724941 0.127023
C13   C     C_3   0.976826 0.753457 0.342784 0.351225
H25   H     H_    0.934560 0.694908 0.341695 0.065410
H26   H     H_    0.878895 0.798954 0.355583 0.057537
C14   C     C_3   0.015938 0.768019 0.290413 -0.785831
H27   H     H_    0.107457 0.721319 0.275155 0.278630
H28   H     H_    0.903403 0.769192 0.266319 0.241198
H29   H     H_    0.064913 0.824867 0.290695 0.246891
P8    P     P_3+3 0.525749 0.596334 0.347153 0.520293
C15   C     C_3   0.513831 0.744110 0.363243 0.499172
H30   H     H_    0.648033 0.730791 0.367198 -0.050000
O23   O     O_2   0.406501 0.540594 0.322709 -0.319181
O24   O     O_3   0.443556 0.687985 0.330830 -0.501061
H31   H     H_    0.460787 0.747566 0.400427 0.137436
H32   H     H_    0.532104 0.821301 0.305885 0.250005
C16   C     C_3   0.478689 0.823047 0.342890 -0.894337
H33   H     H_    0.533297 0.867519 0.368551 0.220486
H34   H     H_    0.345490 0.839560 0.339253 0.290026
C17   C     C_R   0.004503 0.446518 0.177700 0.567706
O25   O     O_2   0.015113 0.386464 0.198268 -0.520208
N1    N     N_R   0.949993 0.516420 0.203668 -0.168075
C18   C     C_R   0.935884 0.584184 0.179750 0.523960
C19   C     C_2   0.765274 0.557051 0.272188 -0.137366
C20   C     C_3   0.740711 0.570744 0.327565 0.089602
C21   C     C_1   0.979362 0.479447 0.340369 0.200722
C22   C     C_2   0.024191 0.481326 0.293823 -0.141541
C23   C     C_2   0.908469 0.519115 0.255943 0.115277
C24   C     C_R   0.028367 0.512118 0.102479 -0.066208
C25   C     C_R   0.045942 0.443699 0.127187 -0.086523
C26   C     C_R   0.103115 0.373642 0.100730 -0.041156
C27   C     C_R   0.972266 0.582678 0.129075 -0.046598
C28   C     C_2   0.832317 0.506876 0.354827 -0.343172
H35   H     H_    0.142737 0.453957 0.282711 0.208608
H36   H     H_    0.116788 0.319805 0.118404 0.184079
C29   C     C_2   0.342775 0.478107 0.642673 -0.460390
C30   C     C_R   0.173825 0.437661 0.974633 0.039067
C31   C     C_R   0.074835 0.576694 0.974745 0.041458
C32   C     C_R   0.143453 0.506268 0.949345 0.090497
C33   C     C_R   0.249003 0.370053 0.948164 -0.189221
C34   C     C_R   0.289071 0.369398 0.898641 -0.045022
C35   C     C_R   0.255810 0.435943 0.872884 -0.070292
C36   C     C_R   0.182229 0.504481 0.898096 -0.065072
C37   C     C_R   0.147644 0.571290 0.872080 -0.060290
C38   C     C_R   0.186206 0.568690 0.821437 0.539806
N2    N     N_R   0.259112 0.501094 0.797022 -0.159729
C39   C     C_R   0.294835 0.435220 0.822401 0.616455
C40   C     C_2   0.452918 0.480628 0.729982 -0.213619
C41   C     C_3   0.491082 0.486305 0.676112 0.149540
C42   C     C_1   0.205244 0.515146 0.658064 0.263338
C43   C     C_2   0.167805 0.519752 0.705666 -0.135591
C44   C     C_2   0.297970 0.499541 0.744770 0.137454
O26   O     O_2   0.358660 0.375498 0.800852 -0.594428
C45   C     C_R   0.129383 0.438915 0.025271 0.039338
C46   C     C_R   0.067021 0.510081 0.051198 0.089076
C47   C     C_R   0.042947 0.579313 0.026432 0.041208
C48   C     C_R   0.144182 0.371191 0.051144 -0.193920
H37   H     H_    0.551344 0.468100 0.757073 0.187423
H38   H     H_    0.346655 0.315878 0.880455 0.175563
H39   H     H_    0.281664 0.316437 0.964890 0.134321
H40   H     H_    0.184673 0.314502 0.033886 0.135872
O27   O     O_2   0.892892 0.646304 0.202711 -0.620113
C49   C     C_R   0.954777 0.650799 0.104650 -0.077000
H41   H     H_    0.676834 0.584573 0.246570 0.165753
H42   H     H_    0.913832 0.706230 0.124215 0.170726
C50   C     C_R   0.039362 0.642252 0.947172 -0.198137
C51   C     C_R   0.074890 0.639466 0.897179 -0.071438
O28   O     O_2   0.156732 0.627053 0.799283 -0.584396
C52   C     C_R   0.988840 0.649287 0.054652 -0.199792
H43   H     H_    0.980862 0.696853 0.962845 0.132264
H44   H     H_    0.044857 0.691599 0.878141 0.173342
H45   H     H_    0.043902 0.537839 0.716465 0.190191
H46   H     H_    0.974258 0.704792 0.039518 0.132488
H47   H     H_    0.767666 0.474450 0.378406 0.175642
H48   H     H_    0.344513 0.436018 0.610343 0.162930
H49   H     H_    0.473154 0.855036 0.523696 0.164136
H50   H     H_    0.276306 0.102025 0.533373 0.164523
C53   C     C_R   0.383743 0.276246 0.506805 -0.463226
C54   C     C_R   0.531231 0.251643 0.484635 0.253544
C55   C     C_R   0.586412 0.172152 0.479330 -0.204929
C56   C     C_R   0.493431 0.117486 0.495542 0.066668
C57   C     C_R   0.346030 0.143225 0.518786 -0.076466
C58   C     C_R   0.292187 0.223011 0.524649 0.257708
C59   C     C_R   0.580979 0.833833 0.503282 -0.224804
C60   C     C_R   0.637585 0.754776 0.500651 0.281808
C61   C     C_R   0.869817 0.778207 0.455593 0.185075
C62   C     C_R   0.814299 0.858038 0.458118 -0.272042
C63   C     C_R   0.667143 0.885815 0.481288 0.055995
C64   C     C_1   0.607385 0.967711 0.485516 0.042368
C65   C     C_1   0.554508 0.035780 0.490028 0.080137
C66   C     C_R   0.776720 0.727050 0.474879 -0.499987
H51   H     H_    0.886360 0.898012 0.443239 0.174764
H52   H     H_    0.702349 0.152650 0.463518 0.195414
H53   H     H_    0.342467 0.337617 0.511640 0.168927
H54   H     H_    0.820320 0.665925 0.473653 0.166321
N3    N     N_R   0.699517 0.223204 0.627179 0.251503
O29   O     O_R   0.654875 0.218165 0.580621 -0.384568
O30   O     O_R   0.825149 0.178228 0.642171 -0.372143
N4    N     N_R   0.088718 0.147420 0.415800 0.194815
O31   O     O_R   0.147045 0.074736 0.409294 -0.359173
O32   O     O_R   0.988913 0.168810 0.451199 -0.460731
S1    S     S_3+6 0.129773 0.177525 0.322430 0.050778
O33   O     O_2   0.979007 0.137343 0.311856 -0.259276
O34   O     O_2   0.118029 0.247494 0.293276 -0.198071
O35   O     O_3   0.292240 0.116086 0.304651 -0.494939
H55   H     H_    0.274290 0.104424 0.268377 0.388894
S2    S     S_3+6 0.556244 0.306926 0.306420 0.051968
O36   O     O_2   0.460281 0.253234 0.273103 -0.197974
O37   O     O_2   0.472401 0.387732 0.306098 -0.259029
O38   O     O_3   0.743296 0.304084 0.284294 -0.439985
H56   H     H_    0.796810 0.343740 0.305809 0.340723
N5    N     N_R   0.464078 0.162843 0.687851 0.254772
O39   O     O_R   0.414088 0.121940 0.720729 -0.343850
O40   O     O_R   0.440749 0.141233 0.640917 -0.334095
N6    N     N_R   0.990361 0.317987 0.743480 0.272714
O41   O     O_R   0.010588 0.391008 0.752049 -0.394591
O42   O     O_R   0.892299 0.288297 0.770633 -0.353231

loop_
_geom_bond_atom_site_label_1
_geom_bond_atom_site_label_2
_geom_bond_distance
_ccdc_geom_bond_type
C39   O26   1.221725 D    
N1    C18   1.388471 Am   
O3    P6    1.767188 S    
C2    C3    1.534212 S    
C17   C25   1.420220 A    
C35   C39   1.417276 A    
C57   C58   1.406638 A    
C15   O24   1.407253 S    
C32   C36   1.435049 A    
C11   O22   1.401725 S    
H32   C16   1.110654 S    
Ba1   O20   2.916591 S    
H49   C59   1.083710 S    
N4    O32   1.296338 A    
P5    O17   1.759021 S    
C17   O25   1.222038 D    
C43   C44   1.508189 S    
C5    H8    1.104259 S    
C12   H23   1.110682 S    
P2    Ba1   3.393029 S    
O4    P6    1.540402 D    
N4    O31   1.301358 A    
P4    C21   1.834781 S    
C6    C7    1.521428 S    
C50   H43   1.076328 S    
C9    H15   1.103172 S    
O2    Ba2   2.761366 S    
O12   Ba2   2.808578 S    
C11   H20   1.110914 S    
C34   C35   1.401007 A    
C42   C43   1.332252 D    
N1    C23   1.466897 S    
C19   H41   1.085387 S    
C36   C37   1.409757 A    
C30   C33   1.416280 A    
C12   H22   1.108250 S    
P1    O1    1.515569 D    
P4    O15   1.754149 S    
C4    C5    1.551740 S    
Ba2   O21   2.822715 S    
C59   C63   1.404096 A    
C38   N2    1.385091 Am   
C31   C32   1.421701 A    
P8    C20   1.875493 S    
O3    Ba1   2.727668 S    
C10   H18   1.115686 S    
C24   C46   1.435229 A    
C1    N5    1.465401 S    
C3    N6    1.458592 S    
Ba1   O16   2.750696 S    
C56   C65   1.451203 S    
N2    C39   1.387075 Am   
N6    O42   1.300567 A    
C13   H25   1.112096 S    
N5    O40   1.301235 A    
P3    O11   1.755015 S    
P1    Ba1   3.381223 S    
C61   C62   1.409939 A    
O7    Ba1   2.822420 S    
O14   P8    1.746772 S    
C47   C52   1.415489 A    
S1    O35   1.681298 S    
P2    C54   1.843943 S    
C18   C27   1.415134 A    
S2    O38   1.681992 S    
O13   Ba2   2.923468 S    
C10   N3    1.457475 S    
C4    O15   1.395383 S    
C60   C66   1.391764 A    
C3    H5    1.111271 S    
C3    H24   1.101802 S    
C43   H45   1.084654 S    
C29   C41   1.500720 S    
P4    O13   1.544600 S    
C27   C49   1.400682 A    
P4    Ba2   3.381654 S    
N3    O30   1.300928 A    
C29   H48   1.086672 S    
S2    O37   1.497040 D    
C55   C56   1.403164 A    
P5    O18   1.545296 D    
C17   N1    1.387448 Am   
C53   C58   1.395091 A    
C5    S1    1.800582 S    
C8    S2    1.792743 S    
C56   C57   1.409013 A    
P1    O5    1.750294 S    
C7    H13   1.110837 S    
C66   H54   1.082245 S    
C15   H30   1.111133 S    
C9    H17   1.107008 S    
S1    O34   1.503398 D    
C1    C10   1.540099 S    
C21   C22   1.334444 D    
C14   H28   1.109712 S    
C1    H1    1.110927 S    
C11   C12   1.521596 S    
P5    O19   1.747223 S    
O14   Ba2   2.727234 S    
Ba1   O13   2.760781 S    
P6    C41   1.850103 S    
P7    C60   1.830702 S    
C12   H21   1.110747 S    
P1    O2    1.544571 S    
C7    H12   1.106638 S    
C48   H40   1.076384 S    
C6    H9    1.102731 S    
C49   C52   1.392312 A    
P2    O10   1.766110 S    
O38   H56   0.990185 S    
C40   H37   1.085840 S    
P3    O9    1.546026 D    
C51   H44   1.083602 S    
O17   Ba2   2.703202 S    
C37   C51   1.400079 A    
O11   C2    1.404788 S    
C61   C66   1.393701 A    
C30   C32   1.423086 A    
C64   C65   1.213023 T    
C40   C44   1.358399 D    
C1    H2    1.107453 S    
P3    O8    1.746774 S    
N5    O39   1.300466 A    
C16   H34   1.109749 S    
C29   C42   1.310100 D    
P4    O12   1.515839 D    
O6    P6    1.755589 S    
C35   C36   1.408592 A    
C15   C16   1.520238 S    
C50   C51   1.393317 A    
C31   C47   1.431159 A    
S1    O33   1.501814 D    
C46   C47   1.422806 A    
C40   C41   1.520664 S    
C45   C48   1.416996 A    
C62   H51   1.083021 S    
O2    Ba1   2.922715 S    
N6    O41   1.298968 A    
H50   C57   1.083099 S    
C15   H31   1.111127 S    
P5    C61   1.848344 S    
C54   C55   1.403706 A    
C49   H42   1.083676 S    
C52   H46   1.076328 S    
C14   H29   1.110628 S    
C45   C46   1.421872 A    
C53   H53   1.082082 S    
Ba1   Ba2   4.558780 S    
C33   H39   1.076379 S    
C18   O27   1.221072 D    
C33   C34   1.394570 A    
C24   C27   1.407362 A    
C26   C48   1.395539 A    
C28   H47   1.087138 S    
N2    C44   1.462086 S    
C7    H11   1.110646 S    
P3    C58   1.836934 S    
C8    C9    1.537579 S    
C19   C20   1.514651 S    
C14   H27   1.110913 S    
C6    H10   1.108088 S    
N3    O29   1.292537 A    
C59   C60   1.399158 A    
P7    O21   1.563805 D    
C9    H16   1.109485 S    
C55   H52   1.076836 S    
P2    O7    1.505849 D    
C11   H19   1.109928 S    
C31   C50   1.416473 A    
C8    H14   1.096276 S    
C13   C14   1.518882 S    
C26   H36   1.083570 S    
C5    N4    1.462677 S    
C22   C23   1.512052 S    
C2    H4    1.111056 S    
O19   C13   1.402145 S    
C4    H7    1.102835 S    
C21   C28   1.320634 D    
C19   C23   1.362003 D    
C24   C25   1.409411 A    
P8    O23   1.544956 D    
O16   P7    1.749312 S    
P2    O20   1.545887 S    
C4    H6    1.108741 S    
S2    O36   1.502484 D    
Ba2   O20   2.750095 S    
O16   Ba2   2.915647 S    
O5    C6    1.397034 S    
C62   C63   1.413147 A    
C13   H26   1.111603 S    
C16   H33   1.110652 S    
O35   H55   0.990477 S    
C34   H38   1.083624 S    
C25   C26   1.401131 A    
C2    H3    1.103000 S    
C38   O28   1.222310 D    
O1    Ba1   2.808060 S    
P1    C42   1.822903 S    
O6    C10   1.402657 S    
O8    Ba1   2.702422 S    
C63   C64   1.451115 S    
C37   C38   1.417325 A    
P8    O24   1.749134 S    
C20   C28   1.503920 S    
O10   C8    1.407621 S    
C30   C45   1.433323 A    
C53   C54   1.393088 A    
C22   H35   1.085074 S    
P7    O22   1.749196 S    
