data_mof_unit_57538.cif
_audit_creation_date              2012-10-26T20:03:40-0400
_audit_creation_method            fapswitch 2.2
_symmetry_space_group_name_H-M    P1
_symmetry_Int_Tables_number       1
_space_group_crystal_system       triclinic
_cell_length_a                    12.402446
_cell_length_b                    13.282665
_cell_length_c                    15.834123
_cell_angle_alpha                 76.721721
_cell_angle_beta                  101.230459
_cell_angle_gamma                 117.148143
_cell_volume                      2246.82681368

loop_
_atom_site_label
_atom_site_type_symbol
_atom_type_description
_atom_site_fract_x
_atom_site_fract_y
_atom_site_fract_z
_atom_type_partial_charge
C1    C     C_R   0.854789 0.286800 0.509379 0.517059
C2    C     C_R   0.227283 0.834781 0.471630 0.009100
C3    C     C_R   0.810097 0.089090 0.581976 -0.119294
C4    C     C_R   0.999686 0.499541 0.659852 0.537585
C5    C     C_R   0.727448 0.977641 0.608864 -0.121216
C6    C     C_R   0.604979 0.940316 0.577475 -0.089267
C7    C     C_R   0.562969 0.012622 0.513931 0.011417
C8    C     C_R   0.649817 0.123445 0.481472 -0.033961
C9    C     C_R   0.438134 0.978395 0.480843 -0.029255
C10   C     C_R   0.403261 0.053072 0.413853 0.056554
C11   C     C_R   0.491794 0.157877 0.378419 0.370033
C12   C     C_3   0.996392 0.498069 0.916841 0.027398
C13   C     C_R   0.613244 0.190927 0.410148 -0.075801
C14   C     C_R   0.346779 0.870888 0.510698 -0.120804
C15   C     C_R   0.192948 0.910714 0.408901 -0.143144
C16   C     C_R   0.144886 0.713124 0.487994 0.557975
C17   C     C_R   0.771792 0.164024 0.520851 0.006621
C18   C     C_R   0.337047 0.316944 0.631829 -0.147838
C19   C     C_R   0.756751 0.637225 0.376861 0.093792
C20   C     C_R   0.652035 0.649968 0.339467 0.366867
C21   C     C_R   0.546295 0.589128 0.381153 -0.057024
C22   C     C_R   0.546052 0.521572 0.464408 -0.039977
C23   C     C_3   0.961305 0.577536 0.007594 -0.103082
C24   C     C_R   0.651193 0.501317 0.494888 0.162471
C25   C     C_R   0.443204 0.467249 0.515312 -0.008460
C26   C     C_R   0.439456 0.377989 0.585227 0.024235
C27   C     C_R   0.539454 0.352314 0.609671 -0.154413
C28   C     C_R   0.000044 0.500130 0.340142 0.567159
C29   C     C_R   0.644641 0.415463 0.567535 -0.060877
C30   C     C_R   0.346796 0.501296 0.503089 0.195752
C31   C     C_R   0.239896 0.346695 0.611380 0.028899
C32   C     C_3   0.109763 0.523505 0.040136 -0.094228
C33   C     C_3   0.031964 0.419131 0.992369 -0.124812
C34   C     C_3   0.997065 0.498425 0.082765 0.030855
C35   C     C_1   0.999187 0.498999 0.749654 0.007543
C36   C     C_1   0.999358 0.499527 0.250332 0.014244
C37   C     C_3   0.074038 0.602400 0.963349 -0.125729
C38   C     C_2   0.366722 0.615824 0.453330 0.587670
C39   C     C_2   0.758056 0.444875 0.916971 0.578038
C40   C     C_3   0.884975 0.473272 0.960294 0.088721
C41   C     C_3   0.919118 0.393797 0.036702 -0.104891
C42   C     C_1   0.998191 0.498543 0.825229 -0.000061
C43   C     C_1   0.998338 0.498974 0.174617 -0.018452
C44   C     C_R   0.280399 0.019812 0.380684 -0.090209
Cu1   Cu    Cu3+1 0.098270 0.475420 0.519690 0.998244
Cu2   Cu    Cu3+1 0.901730 0.524580 0.480310 0.948795
F1    F     F_    0.651378 0.717367 0.260940 -0.616596
F2    F     F_    0.461346 0.227998 0.311435 -0.626488
H1    H     H_    0.061149 0.354334 0.984994 0.133520
H2    H     H_    0.838070 0.681770 0.343279 0.150212
H3    H     H_    0.202577 0.544246 0.074502 0.150221
H4    H     H_    0.464574 0.591849 0.344830 0.174783
H5    H     H_    0.717818 0.392071 0.592600 0.184972
H6    H     H_    0.855184 0.308398 0.067817 0.138695
H7    H     H_    0.931823 0.642151 0.014933 0.137501
H8    H     H_    0.137735 0.687866 0.932180 0.128645
H9    H     H_    0.100147 0.883741 0.378349 0.135982
H10   H     H_    0.252474 0.076110 0.330103 0.184969
H11   H     H_    0.477235 0.785065 0.437958 0.345549
H12   H     H_    0.366097 0.810703 0.561991 0.140517
H13   H     H_    0.643347 0.419207 0.806389 0.339510
H14   H     H_    0.903208 0.118164 0.612146 0.125329
H15   H     H_    0.546568 0.853901 0.603950 0.144557
H16   H     H_    0.757685 0.920879 0.656989 0.131143
H17   H     H_    0.678462 0.269430 0.376529 0.175474
H18   H     H_    0.160019 0.298198 0.646338 0.126678
H19   H     H_    0.537989 0.285022 0.663925 0.121676
H20   H     H_    0.332292 0.246590 0.684067 0.107735
N1    N     N_R   0.246280 0.438200 0.549540 -0.257600
N2    N     N_R   0.754330 0.561180 0.450980 -0.283382
O1    O     O_R   0.972510 0.318130 0.524770 -0.510883
O2    O     O_R   0.466136 0.712166 0.480648 -0.729799
O3    O     O_2   0.677587 0.426772 0.960176 -0.491862
O4    O     O_R   0.732159 0.439162 0.827810 -0.705120
O5    O     O_R   0.806530 0.359650 0.491510 -0.530746
O6    O     O_R   0.082970 0.479240 0.637550 -0.506669
O7    O     O_R   0.916990 0.520750 0.604290 -0.503420
O8    O     O_R   0.193470 0.640350 0.508490 -0.470299
O9    O     O_R   0.027490 0.681870 0.475230 -0.512041
O10   O     O_R   0.083010 0.479250 0.395710 -0.447958
O11   O     O_R   0.917030 0.520760 0.362450 -0.508789
O12   O     O_2   0.303831 0.626305 0.385296 -0.500248

loop_
_geom_bond_atom_site_label_1
_geom_bond_atom_site_label_2
_ccdc_geom_bond_type
C31   H18   S    
C8    C13   A    
Cu1   O1    S    
C19   C20   A    
C18   C26   A    
C24   N2    A    
C7    C8    A    
C13   H17   S    
Cu1   Cu2   S    
C26   C27   A    
C1    O1    A    
Cu1   O6    S    
C15   C44   A    
C5    C6    A    
C27   C29   A    
C18   H20   S    
C23   C40   S    
C30   C38   S    
C39   O4    S    
C12   C37   S    
C35   C42   T    
C24   C29   A    
C12   C42   S    
C37   H8    S    
C44   H10   S    
C22   C25   A    
Cu1   O8    S    
C2    C16   S    
C9    C10   A    
H11   O2    S    
C4    C35   S    
C21   C22   A    
C38   O12   D    
C15   H9    S    
C11   F2    S    
C34   C41   S    
C2    C14   A    
Cu2   O5    S    
C38   O2    S    
C4    O6    A    
Cu1   N1    S    
C1    O5    A    
C39   C40   S    
C25   C26   A    
C23   C37   S    
C10   C44   A    
C5    H16   S    
C32   C34   S    
C6    H15   S    
C12   C40   S    
C9    C14   A    
C32   H3    S    
Cu2   O11   S    
C23   C34   S    
C32   C37   S    
C2    C15   A    
C40   C41   S    
C22   C24   A    
C30   N1    A    
C3    H14   S    
C25   C30   A    
C7    C9    A    
C28   O11   A    
C34   C43   S    
C3    C5    A    
Cu2   O7    S    
C23   H7    S    
C6    C7    A    
H13   O4    S    
C14   H12   S    
C1    C17   S    
C8    C17   A    
C16   O9    A    
C33   C41   S    
C32   C33   S    
C4    O7    A    
C11   C13   A    
C19   H2    S    
Cu2   O9    S    
C29   H5    S    
C3    C17   A    
Cu1   O10   S    
C16   O8    A    
C39   O3    D    
C28   O10   A    
C41   H6    S    
Cu2   N2    S    
C20   F1    S    
C27   H19   S    
C10   C11   A    
C31   N1    A    
C20   C21   A    
C28   C36   S    
C36   C43   T    
C18   C31   A    
C12   C33   S    
C19   N2    A    
C33   H1    S    
C21   H4    S    
