data_mof_unit_49313.cif
_audit_creation_date              2012-12-10T18:58:46-0500
_audit_creation_method            fapswitch 2.2
_symmetry_space_group_name_H-M    P1
_symmetry_Int_Tables_number       1
_space_group_crystal_system       triclinic
_cell_length_a                    13.116467
_cell_length_b                    10.763762
_cell_length_c                    9.589292
_cell_angle_alpha                 90.93526
_cell_angle_beta                  95.608941
_cell_angle_gamma                 89.102742
_cell_volume                      1347.04446227

loop_
_atom_site_label
_atom_site_type_symbol
_atom_type_description
_atom_site_fract_x
_atom_site_fract_y
_atom_site_fract_z
_atom_type_partial_charge
C1    C     C_R   0.503710 0.262927 0.499109 0.784286
C2    C     C_R   0.027266 0.482938 0.560835 -0.225458
C3    C     C_R   0.973020 0.516158 0.431922 -0.258201
C4    C     C_R   0.865219 0.514585 0.418452 0.420473
C5    C     C_R   0.867594 0.475038 0.669102 0.343405
C6    C     C_R   0.974346 0.476128 0.681355 0.469317
C7    C     C_R   0.409710 0.070349 0.494356 -0.037545
C8    C     C_R   0.502350 0.130048 0.493338 -0.028619
C9    C     C_R   0.591226 0.060321 0.475511 -0.237623
C10   C     C_R   0.587947 0.930594 0.478802 -0.165880
C11   C     C_R   0.496076 0.871466 0.500606 -0.058682
C12   C     C_R   0.300791 0.493057 0.473563 0.853638
C13   C     C_R   0.405052 0.942462 0.497206 0.004237
C14   C     C_3   0.320028 0.951653 0.593815 0.890867
C15   C     C_3   0.328219 0.092597 0.588368 -0.500706
C16   C     C_R   0.547462 0.591692 0.080534 0.117343
C17   C     C_R   0.467573 0.400015 0.068408 -0.108407
C18   C     C_R   0.470030 0.398907 0.920360 -0.121148
C19   C     C_R   0.549558 0.590490 0.934741 0.204709
C20   C     C_3   0.539963 0.728563 0.924201 0.192000
C21   C     C_3   0.535433 0.731396 0.083512 0.211167
C22   C     C_R   0.495022 0.737567 0.500291 0.800174
C23   C     C_R   0.699296 0.498963 0.525347 0.871831
C24   C     C_R   0.812118 0.495957 0.538021 -0.359817
C25   C     C_R   0.187606 0.491273 0.455817 -0.326353
C26   C     C_R   0.027909 0.546582 0.318250 0.448219
C27   C     C_R   0.133797 0.529272 0.328510 0.311128
C28   C     C_R   0.132722 0.455051 0.566914 0.436121
Cu1   Cu    Cu3+1 0.499990 0.499980 0.640670 0.965887
Cu2   Cu    Cu3+1 0.500010 0.500020 0.359330 0.960700
H1    H     H_    0.438430 0.320264 0.117993 0.149450
N1    N     N_R   0.500660 0.500930 0.148010 -0.194820
N2    N     N_R   0.500660 0.500890 0.852110 -0.206803
O1    O     O_R   0.500000 0.319640 0.618810 -0.598087
O2    O     O_R   0.500010 0.319680 0.381230 -0.596298
O3    O     O_R   0.348990 0.499960 0.599490 -0.598073
O4    O     O_R   0.349000 0.500000 0.361910 -0.560064
O5    O     O_R   0.499990 0.680320 0.618770 -0.569303
O6    O     O_R   0.500000 0.680360 0.381190 -0.553109
O7    O     O_R   0.651000 0.500000 0.638090 -0.514005
O8    O     O_R   0.651010 0.500040 0.400510 -0.552439
O9    O     O_3   0.811457 0.531765 0.288320 -0.516908
C29   C     C_3   0.803502 0.415894 0.216724 -0.137754
H2    H     H_    0.879062 0.382861 0.186358 0.158552
H3    H     H_    0.769947 0.343560 0.279542 0.104702
H4    H     H_    0.751555 0.427925 0.119421 0.180896
O10   O     O_3   0.348931 0.904251 0.729201 -0.637523
C30   C     C_3   0.271987 0.928618 0.820024 -0.340254
H5    H     H_    0.219473 0.848579 0.817916 0.175351
H6    H     H_    0.226546 0.015244 0.796006 0.178255
H7    H     H_    0.309381 0.939971 0.928060 0.198271
H8    H     H_    0.260049 0.139546 0.533344 0.221329
H9    H     H_    0.358141 0.136888 0.689388 0.174640
H10   H     H_    0.448241 0.315481 0.862261 0.139252
O11   O     O_3   0.631380 0.778661 0.883963 -0.555542
C31   C     C_3   0.619382 0.908549 0.871284 -0.289899
H11   H     H_    0.604871 0.953319 0.972976 0.159276
H12   H     H_    0.556870 0.933120 0.789278 0.201020
H13   H     H_    0.691399 0.946855 0.839166 0.173699
H14   H     H_    0.469268 0.758224 0.859811 0.176328
H15   H     H_    0.603867 0.774851 0.141049 0.144290
O12   O     O_3   0.443524 0.787112 0.125431 -0.579150
C32   C     C_3   0.353809 0.718279 0.088695 -0.247992
H16   H     H_    0.347200 0.681735 0.979403 0.115118
H17   H     H_    0.286351 0.779638 0.100122 0.172152
H18   H     H_    0.349428 0.642078 0.162609 0.258436
O13   O     O_3   0.818160 0.459756 0.788563 -0.510449
C33   C     C_3   0.811967 0.331256 0.812857 -0.233878
H19   H     H_    0.889084 0.290325 0.843986 0.165119
H20   H     H_    0.774422 0.280588 0.719836 0.119573
H21   H     H_    0.764115 0.317761 0.900308 0.156494
O14   O     O_3   0.979152 0.592147 0.194686 -0.519350
C34   C     C_3   0.977757 0.723068 0.203713 -0.230840
H22   H     H_    0.056684 0.760583 0.209811 0.150510
H23   H     H_    0.937892 0.757247 0.294573 0.155680
H24   H     H_    0.934776 0.759698 0.107355 0.179678
O15   O     O_3   0.025532 0.482379 0.813968 -0.572289
C35   C     C_3   0.040352 0.609120 0.849892 -0.300973
H25   H     H_    0.085236 0.656628 0.774149 0.117378
H26   H     H_    0.084918 0.616045 0.953742 0.227609
H27   H     H_    0.965852 0.658418 0.857676 0.200805
O16   O     O_3   0.184171 0.552349 0.212324 -0.585855
C36   C     C_3   0.189333 0.440565 0.134331 -0.295132
H28   H     H_    0.112431 0.415150 0.083736 0.207753
H29   H     H_    0.222450 0.362041 0.199090 0.159580
H30   H     H_    0.240917 0.455142 0.051660 0.156173
O17   O     O_3   0.167407 0.350063 0.639454 -0.580129
C37   C     C_3   0.216632 0.379554 0.772094 -0.199257
H31   H     H_    0.227831 0.480737 0.794335 0.161987
H32   H     H_    0.291578 0.332480 0.779948 0.152527
H33   H     H_    0.173651 0.337670 0.852921 0.180457
H34   H     H_    0.663142 0.105829 0.465203 0.122708
H35   H     H_    0.657494 0.876691 0.469477 0.140030
O18   O     O_3   0.222808 0.912708 0.532234 -0.601170
C38   C     C_3   0.223001 0.783917 0.506147 -0.338407
H36   H     H_    0.252827 0.730510 0.600063 0.180263
H37   H     H_    0.267072 0.760549 0.415782 0.172874
H38   H     H_    0.142643 0.755610 0.478338 0.170470

loop_
_geom_bond_atom_site_label_1
_geom_bond_atom_site_label_2
_ccdc_geom_bond_type
O17   C37   S    
C32   H17   S    
C16   C21   S    
C1    C8    S    
C26   O14   S    
C34   H22   S    
C19   C20   S    
C5    O13   S    
C38   H38   S    
C7    C8    A    
O15   C35   S    
C25   C28   A    
Cu1   O3    S    
C26   C27   A    
Cu1   Cu2   S    
Cu2   O2    S    
C36   H28   S    
C15   H9    S    
C33   H21   S    
C5    C6    A    
C4    C24   A    
C35   H26   S    
C23   O7    A    
C22   O5    A    
Cu1   N2    S    
C31   H11   S    
C12   O4    A    
C30   H7    S    
C38   H36   S    
C33   H19   S    
Cu1   O5    S    
C23   C24   S    
Cu2   O8    S    
C12   O3    A    
C9    C10   A    
C21   H15   S    
C30   H6    S    
C32   H18   S    
C13   C14   S    
C34   H23   S    
C2    C6    A    
C28   O17   S    
C20   O11   S    
C9    H34   S    
C29   H4    S    
C1    O1    A    
C27   O16   S    
O13   C33   S    
C19   N2    A    
C35   H25   S    
C8    C9    A    
C6    O15   S    
C10   H35   S    
Cu1   O1    S    
Cu2   O4    S    
C29   H2    S    
O12   C32   S    
O10   C30   S    
C37   H33   S    
O11   C31   S    
C17   C18   A    
C15   H8    S    
C20   C21   S    
C29   H3    S    
C21   O12   S    
C30   H5    S    
C36   H29   S    
C37   H32   S    
C25   C27   A    
C17   H1    S    
C34   H24   S    
C20   H14   S    
O9    C29   S    
C3    C4    A    
C1    O2    A    
C3    C26   A    
O14   C34   S    
C38   H37   S    
C14   O10   S    
C16   N1    A    
C11   C22   S    
C23   O8    A    
C31   H13   S    
C12   C25   S    
C2    C3    A    
Cu2   N1    S    
C11   C13   A    
C35   H27   S    
C5    C24   A    
C4    O9    S    
C16   C19   A    
C22   O6    A    
Cu1   O7    S    
C7    C15   S    
C31   H12   S    
Cu2   O6    S    
O18   C38   S    
C18   N2    A    
C10   C11   A    
C18   H10   S    
C32   H16   S    
C7    C13   A    
C36   H30   S    
C37   H31   S    
C33   H20   S    
O16   C36   S    
C17   N1    A    
C14   C15   S    
C2    C28   A    
C14   O18   S    
