data_mof_unit_37818.cif
_audit_creation_date              2012-10-26T18:59:36-0400
_audit_creation_method            fapswitch 2.2
_symmetry_space_group_name_H-M    P1
_symmetry_Int_Tables_number       1
_space_group_crystal_system       triclinic
_cell_length_a                    23.506925
_cell_length_b                    10.859219
_cell_length_c                    9.537317
_cell_angle_alpha                 90.010617
_cell_angle_beta                  89.82802
_cell_angle_gamma                 90.149466
_cell_volume                      2434.54154609

loop_
_atom_site_label
_atom_site_type_symbol
_atom_type_description
_atom_site_fract_x
_atom_site_fract_y
_atom_site_fract_z
_atom_type_partial_charge
C1    C     C_R   0.500148 0.262680 0.499838 0.554901
C2    C     C_R   0.119789 0.608779 0.515465 0.401783
C3    C     C_R   0.238785 0.513239 0.627910 -0.056175
C4    C     C_R   0.390895 0.499806 0.500238 0.552781
C5    C     C_R   0.298101 0.513104 0.627469 -0.142430
C6    C     C_R   0.328244 0.499534 0.500843 0.005069
C7    C     C_R   0.297943 0.485647 0.374902 -0.140849
C8    C     C_R   0.238614 0.485132 0.375799 -0.055540
C9    C     C_R   0.208940 0.499130 0.502193 0.244477
C10   C     C_R   0.760441 0.456491 0.620096 -0.055415
C11   C     C_R   0.701118 0.456851 0.618925 -0.144598
C12   C     C_R   0.969924 0.276517 0.481513 -0.121775
C13   C     C_R   0.671615 0.500075 0.500883 0.006008
C14   C     C_R   0.702429 0.543899 0.384777 -0.142692
C15   C     C_R   0.761735 0.544001 0.386348 -0.054375
C16   C     C_R   0.500294 0.737318 0.499846 0.554659
C17   C     C_R   0.790904 0.500059 0.503825 0.241205
C18   C     C_R   0.498249 0.062008 0.620970 0.023689
C19   C     C_R   0.501005 0.130083 0.498142 0.013693
C20   C     C_R   0.504715 0.064577 0.370521 -0.155665
C21   C     C_R   0.504844 0.935399 0.370560 -0.155859
C22   C     C_R   0.501233 0.869919 0.498222 0.012444
C23   C     C_R   0.029282 0.276433 0.480545 -0.121793
C24   C     C_R   0.498433 0.938040 0.621045 0.023053
C25   C     C_3   0.492559 0.929219 0.776321 -0.263483
C26   C     C_3   0.492307 0.071044 0.776177 -0.269634
C27   C     C_R   0.527140 0.591433 0.073428 0.157195
C28   C     C_R   0.609058 0.500206 0.499972 0.551067
C29   C     C_R   0.468713 0.416853 0.074679 -0.013152
C30   C     C_R   0.468707 0.416852 0.925728 -0.014060
C31   C     C_R   0.527058 0.591568 0.925929 0.155291
C32   C     C_3   0.588828 0.622309 0.919216 -0.271804
C33   C     C_3   0.589018 0.621167 0.078110 -0.281197
C34   C     C_R   0.059756 0.387447 0.491820 0.028928
C35   C     C_R   0.880500 0.609342 0.516279 0.400831
C36   C     C_R   0.880136 0.390088 0.493949 0.401416
C37   C     C_R   0.939810 0.387639 0.493509 0.029182
C38   C     C_R   0.969944 0.499498 0.504845 -0.028041
C39   C     C_R   0.940178 0.611486 0.516546 0.029319
C40   C     C_R   0.029986 0.499382 0.504325 -0.028176
C41   C     C_R   0.060119 0.611213 0.516192 0.028786
C42   C     C_R   0.030009 0.722329 0.528174 -0.121761
C43   C     C_R   0.970654 0.722475 0.528222 -0.121810
C44   C     C_R   0.119436 0.389695 0.491090 0.401384
Cu1   Cu    Cu3+1 0.500000 0.499980 0.640670 0.940521
Cu2   Cu    Cu3+1 0.500000 0.500020 0.359330 0.942369
H1    H     H_    0.947757 0.189310 0.472627 0.169566
H2    H     H_    0.530429 0.112735 0.826168 0.143461
H3    H     H_    0.444263 0.348086 0.130738 0.115223
H4    H     H_    0.051165 0.189168 0.470973 0.169530
H5    H     H_    0.444212 0.348191 0.870007 0.113563
H6    H     H_    0.614891 0.547243 0.873160 0.154010
H7    H     H_    0.596731 0.715065 0.873967 0.125974
H8    H     H_    0.614554 0.544187 0.121140 0.151074
H9    H     H_    0.052178 0.809511 0.537354 0.169725
H10   H     H_    0.948773 0.809773 0.537420 0.169366
H11   H     H_    0.215938 0.524005 0.725891 0.128024
H12   H     H_    0.678371 0.422098 0.709599 0.121198
H13   H     H_    0.320283 0.524134 0.726056 0.130928
H14   H     H_    0.320010 0.474712 0.275851 0.129075
H15   H     H_    0.215631 0.474262 0.278331 0.127868
H16   H     H_    0.782797 0.422604 0.711326 0.131794
H17   H     H_    0.597417 0.713047 0.125213 0.124807
H18   H     H_    0.680831 0.579989 0.293929 0.114751
H19   H     H_    0.785099 0.578190 0.296341 0.131550
H20   H     H_    0.507296 0.112351 0.271011 0.134404
H21   H     H_    0.507525 0.887598 0.271068 0.134919
H22   H     H_    0.451264 0.887777 0.808605 0.147736
H23   H     H_    0.530848 0.889045 0.826449 0.133697
H24   H     H_    0.450813 0.111208 0.808217 0.133207
N1    N     N_R   0.851872 0.499802 0.504993 -0.400564
N2    N     N_R   0.148017 0.499197 0.502890 -0.400980
N3    N     N_R   0.500360 0.500930 0.147930 -0.230038
N4    N     N_R   0.500360 0.500890 0.852020 -0.231624
O1    O     O_R   0.500000 0.319640 0.618810 -0.504441
O2    O     O_R   0.582120 0.500020 0.618760 -0.506405
O3    O     O_R   0.582120 0.500060 0.381180 -0.502133
O4    O     O_2   0.851254 0.715641 0.527961 -0.488728
O5    O     O_2   0.850542 0.283942 0.482325 -0.487631
O6    O     O_2   0.148732 0.283466 0.479388 -0.486349
O7    O     O_2   0.149425 0.714918 0.526492 -0.485281
O8    O     O_R   0.500010 0.319680 0.381230 -0.512243
O9    O     O_R   0.417880 0.499940 0.618820 -0.504230
O10   O     O_R   0.417880 0.499980 0.381240 -0.502054
O11   O     O_R   0.499990 0.680320 0.618770 -0.497075
O12   O     O_R   0.500000 0.680360 0.381190 -0.505440

loop_
_geom_bond_atom_site_label_1
_geom_bond_atom_site_label_2
_ccdc_geom_bond_type
C30   H5    S    
C41   C42   A    
C7    H14   S    
C35   C39   A    
C19   C20   A    
C18   C26   S    
C9    N2    S    
C7    C8    A    
C29   H3    S    
Cu1   Cu2   S    
C27   C33   S    
C12   C23   A    
C29   C30   A    
Cu1   O2    S    
C34   C40   A    
C20   H20   S    
C36   C37   A    
C5    C6    A    
C30   N4    A    
C29   N3    A    
C10   C17   A    
C15   H19   S    
C18   C19   A    
C12   C37   A    
C32   H6    S    
Cu2   O8    S    
C8    C9    A    
C13   C28   S    
C18   C24   A    
C11   H12   S    
C36   N1    A    
C26   H2    S    
C8    H15   S    
C35   N1    A    
C13   C14   A    
C21   H21   S    
C16   O12   A    
C10   H16   S    
C25   H22   S    
C12   H1    S    
C2    N2    A    
C1    C19   S    
C5    H13   S    
C27   C31   A    
C1    O1    A    
Cu1   O9    S    
C34   C44   A    
C24   C25   S    
C4    C6    S    
C23   H4    S    
C39   C43   A    
C1    O8    A    
Cu1   N4    S    
Cu1   O11   S    
C37   C38   A    
C3    C9    A    
C42   H9    S    
C31   C32   S    
C4    O10   A    
C44   O6    S    
C33   H17   S    
C23   C34   A    
C14   H18   S    
C28   O3    A    
Cu2   O10   S    
C3    H11   S    
C40   C41   A    
C17   N1    S    
C16   O11   A    
C26   H24   S    
C22   C24   A    
C25   H23   S    
C42   C43   A    
C28   O2    A    
C32   H7    S    
C33   H8    S    
C15   C17   A    
C16   C22   S    
C3    C5    A    
C36   O5    S    
Cu2   O3    S    
C6    C7    A    
C35   O4    S    
Cu1   O1    S    
C32   C33   S    
C25   C26   S    
C27   N3    A    
C38   C40   A    
C11   C13   A    
C38   C39   A    
C4    O9    A    
C44   N2    A    
C31   N4    A    
C10   C11   A    
C43   H10   S    
C20   C21   A    
C14   C15   A    
C2    O7    S    
C2    C41   A    
C21   C22   A    
Cu2   N3    S    
Cu2   O12   S    
