data_mof_unit_20521.cif
_audit_creation_date              2012-12-10T17:10:23-0500
_audit_creation_method            fapswitch 2.2
_symmetry_space_group_name_H-M    P1
_symmetry_Int_Tables_number       1
_space_group_crystal_system       triclinic
_cell_length_a                    15.681654
_cell_length_b                    10.706636
_cell_length_c                    10.205414
_cell_angle_alpha                 90.347088
_cell_angle_beta                  93.011064
_cell_angle_gamma                 91.580516
_cell_volume                      1710.4012223

loop_
_atom_site_label
_atom_site_type_symbol
_atom_type_description
_atom_site_fract_x
_atom_site_fract_y
_atom_site_fract_z
_atom_type_partial_charge
C1    C     C_R   0.507391 0.264121 0.500164 0.949958
C2    C     C_2   0.493442 0.867950 0.494076 -0.134696
C3    C     C_2   0.544408 0.062120 0.403609 0.417814
C4    C     C_R   0.338384 0.500139 0.496970 0.842561
C5    C     C_2   0.534018 0.137466 0.506132 -0.510060
C6    C     C_2   0.544074 0.578913 0.932183 0.406050
C7    C     C_2   0.556499 0.556634 0.077553 -0.073424
C8    C     C_R   0.500411 0.736394 0.499913 1.007130
C9    C     C_R   0.661625 0.500015 0.502989 0.938625
C10   C     C_3   0.975071 0.406489 0.579091 -0.004435
C11   C     C_3   0.022446 0.392787 0.451372 0.412712
C12   C     C_3   0.083208 0.501574 0.495470 -0.250680
C13   C     C_1   0.249354 0.501016 0.490757 -0.068740
C14   C     C_1   0.750688 0.500303 0.509187 -0.071550
C15   C     C_3   0.035852 0.516715 0.623312 0.375322
C16   C     C_3   0.429335 0.429092 0.080152 -0.264824
C17   C     C_3   0.352759 0.389934 0.156679 -0.563599
C18   C     C_3   0.935469 0.302803 0.661735 -0.333320
C19   C     C_3   0.000905 0.215762 0.724551 -0.668758
C20   C     C_3   0.941482 0.730012 0.613278 -0.311106
C21   C     C_3   0.003155 0.842726 0.612417 -0.624765
C22   C     C_3   0.404116 0.914780 0.515822 -0.528825
C23   C     C_3   0.976990 0.611709 0.552856 -0.028968
C24   C     C_3   0.344834 0.895698 0.393362 -0.656874
C25   C     C_3   0.917117 0.501349 0.508333 -0.107831
C26   C     C_3   0.024398 0.595056 0.425375 0.424365
C27   C     C_3   0.963182 0.486023 0.379785 -0.256117
C28   C     C_1   0.173999 0.501553 0.490342 0.212337
C29   C     C_1   0.826098 0.500719 0.510598 0.051634
C30   C     C_2   0.556552 0.933076 0.436308 0.311326
H1    H     H_    0.543298 0.100169 0.604971 0.164778
H2    H     H_    0.397772 0.485908 0.002142 0.186483
H3    H     H_    0.453927 0.339452 0.044719 0.219683
H4    H     H_    0.039666 0.172916 0.649643 0.294075
H5    H     H_    0.043247 0.266341 0.798257 0.300716
H6    H     H_    0.966954 0.139593 0.775785 0.230471
H7    H     H_    0.899546 0.346395 0.740209 0.232628
H8    H     H_    0.889335 0.246556 0.597735 0.243184
H9    H     H_    0.000905 0.857289 0.200344 0.393343
H10   H     H_    0.069645 0.816230 0.638229 0.291720
H11   H     H_    0.000550 0.886635 0.514276 0.292814
H12   H     H_    0.504160 0.409314 0.877919 0.140768
H13   H     H_    0.984001 0.913466 0.684359 0.228768
H14   H     H_    0.881355 0.754538 0.558134 0.258366
H15   H     H_    0.925791 0.709268 0.715917 0.246201
H16   H     H_    0.049506 0.495710 0.978730 0.418021
H17   H     H_    0.723620 0.002643 0.285043 0.405091
H18   H     H_    0.371928 0.942800 0.307865 0.294293
H19   H     H_    0.335170 0.794490 0.370832 0.255221
H20   H     H_    0.281804 0.935863 0.410343 0.291494
H21   H     H_    0.376419 0.861558 0.597447 0.256843
H22   H     H_    0.403249 0.013572 0.547124 0.238249
H23   H     H_    0.609426 0.605184 0.129826 0.232960
H24   H     H_    0.549484 0.005453 0.051242 0.400532
H25   H     H_    0.931280 0.473501 0.280667 0.219548
H26   H     H_    0.998457 0.068716 0.338103 0.397563
H27   H     H_    0.675794 0.865485 0.960640 0.392857
H28   H     H_    0.370577 0.332369 0.242513 0.293922
H29   H     H_    0.314190 0.472049 0.179167 0.254164
H30   H     H_    0.309801 0.328812 0.092423 0.228428
N1    N     N_2   0.500900 0.501330 0.852150 -0.257378
N2    N     N_2   0.500930 0.501360 0.147810 -0.072265
O1    O     O_R   0.499990 0.319060 0.613040 -0.632623
O2    O     O_2   0.132628 0.204172 0.450322 -0.309897
O3    O     O_3   0.975000 0.144799 0.376551 -0.535325
O4    O     O_2   0.644338 0.700330 0.766632 -0.248814
O5    O     O_2   0.517867 0.808177 0.837567 -0.294008
O6    O     O_3   0.648855 0.791370 0.000980 -0.516152
O7    O     O_2   0.128500 0.793379 0.383319 -0.327793
O8    O     O_2   0.096304 0.648693 0.199115 -0.260262
O9    O     O_3   0.977314 0.798231 0.264365 -0.525884
O10   O     O_2   0.155983 0.439035 0.800116 -0.307693
O11   O     O_2   0.129556 0.662936 0.797266 -0.261966
O12   O     O_R   0.500010 0.319100 0.386900 -0.539329
O13   O     O_3   0.015842 0.515691 0.897091 -0.531984
O14   O     O_2   0.691972 0.807908 0.534242 -0.283864
O15   O     O_2   0.655262 0.782401 0.300103 -0.251259
O16   O     O_3   0.728731 0.991399 0.381361 -0.503023
O17   O     O_2   0.446467 0.136697 0.197842 -0.346314
O18   O     O_2   0.596744 0.209599 0.208866 -0.288054
O19   O     O_3   0.561025 0.978752 0.143079 -0.496747
O20   O     O_R   0.376760 0.499970 0.613050 -0.582237
O21   O     O_R   0.376790 0.500010 0.386910 -0.647473
O22   O     O_R   0.499990 0.680900 0.613100 -0.537923
O23   O     O_R   0.500010 0.680940 0.386960 -0.588411
O24   O     O_R   0.623210 0.499990 0.613090 -0.588478
O25   O     O_R   0.623240 0.500030 0.386950 -0.585663
O26   O     O_2   0.076574 0.279295 0.237076 -0.268139
S1    S     S_3+6 0.055142 0.252314 0.376076 0.035246
S2    S     S_3+6 0.588434 0.722288 0.878712 0.071073
S3    S     S_3+6 0.060297 0.711562 0.315236 0.037559
S4    S     S_3+6 0.088276 0.535096 0.782624 0.040502
S5    S     S_3+6 0.659648 0.873596 0.412801 0.076624
S6    S     S_3+6 0.536527 0.102005 0.235032 0.028631
Zn1   Zn    Zn3+2 0.499980 0.499970 0.650990 1.051467
Zn2   Zn    Zn3+2 0.500020 0.500030 0.349010 1.053410

loop_
_geom_bond_atom_site_label_1
_geom_bond_atom_site_label_2
_ccdc_geom_bond_type
N2    Zn2   S    
O8    S3    D    
O14   S5    D    
C19   H6    S    
O4    S2    D    
O3    S1    S    
C21   H10   S    
C26   C27   S    
C12   C28   S    
C1    C5    S    
C1    O12   A    
C6    N1    D    
C18   H7    S    
C18   C19   S    
C30   S5    S    
C10   C15   S    
C16   H3    S    
O23   Zn2   S    
C27   H25   S    
O16   S5    S    
H26   O3    S    
O1    Zn1   S    
C8    O23   A    
C23   C26   S    
C4    C13   S    
C15   S4    S    
C21   H13   S    
C16   C17   S    
C2    C22   S    
O6    S2    S    
C20   C23   S    
C13   C28   T    
C20   H15   S    
C17   H28   S    
C15   C23   S    
C25   C29   S    
C16   N2    S    
O2    S1    D    
C1    O1    A    
H16   O13   S    
C20   H14   S    
C24   H20   S    
C24   H18   S    
O12   Zn2   S    
O17   S6    D    
O24   Zn1   S    
C26   S3    S    
C6    S2    S    
O5    S2    D    
C12   C26   S    
O22   Zn1   S    
C3    C30   S    
C9    C14   S    
C7    N2    D    
C9    O24   A    
C11   S1    S    
C12   C15   S    
C11   C27   S    
O25   Zn2   S    
O9    S3    S    
O26   S1    D    
H12   N1    S    
O13   S4    S    
C17   H29   S    
C21   H11   S    
C10   C25   S    
C22   C24   S    
C25   C27   S    
C7    H23   S    
H27   O6    S    
O18   S6    D    
C22   H22   S    
C24   H19   S    
O20   Zn1   S    
C8    O22   A    
C2    C8    S    
O11   S4    D    
C3    C5    D    
C19   H4    S    
C11   C12   S    
N1    Zn1   S    
C6    C7    S    
C16   H2    S    
C2    C30   D    
C18   H8    S    
C19   H5    S    
C9    O25   A    
O19   S6    S    
C4    O21   A    
C10   C18   S    
O10   S4    D    
O21   Zn2   S    
O15   S5    D    
C3    S6    S    
C23   C25   S    
C10   C11   S    
C17   H30   S    
C4    O20   A    
C20   C21   S    
H9    O9    S    
C14   C29   T    
H17   O16   S    
O7    S3    D    
H24   O19   S    
C22   H21   S    
C5    H1    S    
