data_mof_unit_50105.cif
_audit_creation_date              2012-12-10T20:41:04-0500
_audit_creation_method            fapswitch 2.2
_symmetry_space_group_name_H-M    P1
_symmetry_Int_Tables_number       1
_space_group_crystal_system       triclinic
_cell_length_a                    27.731631
_cell_length_b                    10.67424
_cell_length_c                    9.850083
_cell_angle_alpha                 90.061559
_cell_angle_beta                  89.864596
_cell_angle_gamma                 90.078361
_cell_volume                      2915.75076338

loop_
_atom_site_label
_atom_site_type_symbol
_atom_type_description
_atom_site_fract_x
_atom_site_fract_y
_atom_site_fract_z
_atom_type_partial_charge
C1    C     C_R   0.500859 0.260101 0.499920 0.947937
C2    C     C_R   0.974118 0.380655 0.515500 0.075083
C3    C     C_R   0.974876 0.606168 0.568210 0.012345
C4    C     C_R   0.406029 0.500006 0.500364 0.914665
C5    C     C_R   0.949156 0.494366 0.541207 0.069603
C6    C     C_R   0.947254 0.273611 0.478027 -0.221969
C7    C     C_R   0.897417 0.276883 0.472205 -0.150611
C8    C     C_R   0.872491 0.386611 0.503845 -0.001932
C9    C     C_R   0.898069 0.496234 0.538866 -0.096992
C10   C     C_R   0.872544 0.607355 0.570460 -0.068638
C11   C     C_R   0.821729 0.604146 0.567154 0.518262
C12   C     C_R   0.276975 0.464062 0.391215 -0.092687
C13   C     C_R   0.822244 0.389580 0.498648 0.507071
C14   C     C_R   0.719372 0.434909 0.616610 -0.096592
C15   C     C_R   0.669495 0.436110 0.607449 -0.254604
C16   C     C_R   0.501320 0.739876 0.500140 0.877419
C17   C     C_R   0.674717 0.564832 0.403125 0.176851
C18   C     C_R   0.724791 0.563261 0.414255 -0.125387
C19   C     C_R   0.746957 0.498482 0.520210 0.266629
C20   C     C_R   0.025055 0.378052 0.524816 0.013575
C21   C     C_R   0.050749 0.491911 0.538683 0.069195
C22   C     C_R   0.025787 0.606898 0.556373 0.075084
C23   C     C_R   0.252965 0.495528 0.511537 0.311281
C24   C     C_R   0.051134 0.264763 0.521840 -0.289438
C25   C     C_R   0.102422 0.718457 0.549000 -0.147151
C26   C     C_R   0.948815 0.714094 0.605946 -0.286355
C27   C     C_R   0.898566 0.716483 0.605708 0.242745
C28   C     C_R   0.593948 0.501229 0.499765 0.865674
C29   C     C_R   0.052626 0.719480 0.558262 -0.223554
C30   C     C_R   0.498187 0.063253 0.620937 0.117989
C31   C     C_R   0.505852 0.128423 0.500661 -0.053857
C32   C     C_R   0.521291 0.064793 0.383775 -0.218842
C33   C     C_R   0.521817 0.935166 0.384041 -0.223546
C34   C     C_R   0.101809 0.491151 0.533373 -0.097294
C35   C     C_R   0.507625 0.871260 0.501900 -0.081590
C36   C     C_R   0.500692 0.936144 0.622820 0.102011
C37   C     C_3   0.462145 0.924273 0.728621 -0.532293
C38   C     C_3   0.458562 0.066638 0.725593 -0.228759
C39   C     C_R   0.474910 0.410701 0.071421 0.220982
C40   C     C_R   0.178042 0.381291 0.512646 0.510287
C41   C     C_R   0.527918 0.581534 0.071930 -0.139042
C42   C     C_R   0.527944 0.581497 0.927850 -0.126613
C43   C     C_R   0.474925 0.410632 0.928640 0.206846
C44   C     C_3   0.421812 0.389860 0.923592 -0.498270
C45   C     C_R   0.127337 0.376787 0.522636 -0.066797
C46   C     C_3   0.421821 0.390259 0.077383 -0.511029
C47   C     C_R   0.177545 0.604446 0.529032 0.499933
C48   C     C_R   0.278998 0.529315 0.627210 -0.100544
C49   C     C_R   0.328985 0.531713 0.622883 -0.218039
C50   C     C_R   0.327098 0.466007 0.386805 -0.193638
C51   C     C_3   0.638053 0.759086 0.332388 -0.751227
C52   C     C_3   0.868367 0.914942 0.527703 -0.681315
C53   C     C_2   0.409497 0.110054 0.678497 0.444941
C54   C     C_3   0.135470 0.098000 0.658038 -0.681458
C55   C     C_R   0.101399 0.262736 0.522263 0.245707
C56   C     C_R   0.127343 0.605408 0.537726 -0.000499
C57   C     C_R   0.353392 0.499723 0.502760 -0.028309
C58   C     C_R   0.646622 0.500208 0.501151 -0.092956
H1    H     H_    0.345134 0.439627 0.293740 0.151903
H2    H     H_    0.256754 0.437962 0.301598 0.141625
H3    H     H_    0.476660 0.887832 0.825989 0.198735
H4    H     H_    0.470348 0.111636 0.821823 0.130936
H5    H     H_    0.549605 0.649193 0.126322 0.143485
H6    H     H_    0.549731 0.648953 0.873312 0.151886
H7    H     H_    0.402132 0.470657 0.879580 0.216968
H8    H     H_    0.412303 0.297351 0.879789 0.191056
H9    H     H_    0.402395 0.471973 0.120840 0.216891
H10   H     H_    0.412329 0.298017 0.122460 0.211781
H11   H     H_    0.648692 0.386192 0.683398 0.169774
H12   H     H_    0.260378 0.553731 0.720299 0.139452
H13   H     H_    0.736677 0.385003 0.698791 0.149926
H14   H     H_    0.878465 0.192688 0.441772 0.182235
H15   H     H_    0.963792 0.186632 0.447629 0.137837
H16   H     H_    0.033341 0.174924 0.524922 0.137794
H17   H     H_    0.348433 0.559407 0.713185 0.148961
H18   H     H_    0.630084 0.586139 0.235264 0.246226
H19   H     H_    0.608152 0.753847 0.407343 0.227162
H20   H     H_    0.625000 0.808797 0.240622 0.227296
H21   H     H_    0.668430 0.813536 0.376353 0.263147
H22   H     H_    0.889895 0.874873 0.723511 0.217572
H23   H     H_    0.121328 0.807328 0.550016 0.182993
H24   H     H_    0.903893 0.949241 0.490549 0.195434
H25   H     H_    0.846505 0.996463 0.561058 0.251785
H26   H     H_    0.849041 0.867353 0.443412 0.258688
H27   H     H_    0.379052 0.101288 0.747186 0.067171
H28   H     H_    0.108645 0.077653 0.463705 0.213860
H29   H     H_    0.157148 0.010918 0.650240 0.251293
H30   H     H_    0.101335 0.076617 0.712749 0.202488
H31   H     H_    0.156521 0.168036 0.716875 0.257136
H32   H     H_    0.966552 0.798931 0.638191 0.140670
H33   H     H_    0.746694 0.612585 0.340326 0.150529
H34   H     H_    0.036131 0.810785 0.561808 0.136434
H35   H     H_    0.530376 0.114201 0.291137 0.165824
H36   H     H_    0.530765 0.885781 0.291203 0.164366
H37   H     H_    0.429791 0.873458 0.690486 0.206171
N1    N     N_R   0.201585 0.493694 0.516803 -0.361059
N2    N     N_R   0.798222 0.497196 0.529528 -0.353822
N3    N     N_R   0.499670 0.499140 0.142800 -0.107743
N4    N     N_R   0.499670 0.499180 0.857150 -0.109759
N5    N     N_2   0.654011 0.634772 0.295264 -0.312495
N6    N     N_2   0.874872 0.830274 0.640763 -0.249879
N7    N     N_2   0.125186 0.144585 0.523317 -0.248286
O1    O     O_R   0.500010 0.316790 0.614690 -0.622613
O2    O     O_R   0.571250 0.500000 0.614690 -0.621310
O3    O     O_R   0.571240 0.499960 0.385340 -0.629811
O4    O     O_2   0.203910 0.275116 0.498461 -0.517657
O5    O     O_2   0.403103 0.154124 0.565667 -0.568452
O6    O     O_2   0.797401 0.286049 0.462086 -0.566120
O7    O     O_2   0.202335 0.713415 0.531736 -0.559311
O8    O     O_2   0.795649 0.705914 0.601820 -0.527204
O9    O     O_R   0.500000 0.316760 0.385350 -0.623190
O10   O     O_R   0.428760 0.500040 0.614660 -0.620639
O11   O     O_R   0.428750 0.500000 0.385310 -0.619060
O12   O     O_R   0.500000 0.683240 0.614650 -0.620536
O13   O     O_R   0.499990 0.683210 0.385310 -0.623797
Zn1   Zn    Zn3+2 0.500000 0.500020 0.653130 0.952967
Zn2   Zn    Zn3+2 0.500000 0.499980 0.346870 0.952000

loop_
_geom_bond_atom_site_label_1
_geom_bond_atom_site_label_2
_ccdc_geom_bond_type
C10   C27   A    
C34   C56   A    
C8    C13   A    
C22   C29   A    
C14   H13   S    
C44   H8    S    
C35   C36   A    
C25   C56   A    
C33   H36   S    
C19   N2    S    
C7    C8    A    
C24   C55   A    
C5    C9    A    
C55   N7    S    
C37   H37   S    
C26   C27   A    
C6    H15   S    
C18   H33   S    
C36   C37   S    
C43   N4    A    
N4    Zn1   S    
C16   C35   S    
C30   C31   A    
C1    C31   S    
C49   C57   A    
C23   N1    S    
C30   C38   S    
C18   C19   A    
C41   C42   A    
C52   H26   S    
C53   O5    D    
O2    Zn1   S    
C20   C24   A    
C8    C9    A    
O13   Zn2   S    
C4    C57   S    
C47   N1    A    
C49   H17   S    
C9    C10   A    
C1    O1    A    
C17   C58   A    
C32   H35   S    
C4    O10   A    
C21   C22   A    
C11   O8    S    
C25   H23   S    
O3    Zn2   S    
C44   H7    S    
C2    C6    A    
C40   N1    A    
C13   O6    S    
C44   C46   S    
C25   C29   A    
C40   C45   A    
C15   H11   S    
C52   N6    S    
C11   N2    A    
C2    C20   A    
C4    O11   A    
C54   H31   S    
C7    H14   S    
C39   N3    A    
C39   C43   A    
C21   C34   A    
C47   O7    S    
C27   N6    S    
C52   H25   S    
C43   C44   S    
C51   H19   S    
C46   H10   S    
C37   C38   S    
C28   O2    A    
O12   Zn1   S    
C31   C32   A    
C12   C23   A    
C28   O3    A    
C17   C18   A    
C34   C45   A    
C52   H24   S    
C39   C46   S    
O11   Zn2   S    
C48   C49   A    
C15   C58   A    
C2    C5    A    
C26   H32   S    
C50   H1    S    
H28   N7    S    
C16   O13   A    
C42   H6    S    
O10   Zn1   S    
C37   H3    S    
N3    Zn2   S    
C40   O4    S    
C51   N5    S    
C23   C48   A    
C14   C15   A    
C50   C57   A    
C14   C19   A    
C54   N7    S    
C3    C26   A    
C48   H12   S    
C3    C5    A    
C16   O12   A    
C12   C50   A    
C6    C7    A    
C28   C58   S    
H18   N5    S    
C30   C36   A    
H22   N6    S    
O9    Zn2   S    
C32   C33   A    
O1    Zn1   S    
C51   H20   S    
C46   H9    S    
C42   N4    A    
C1    O9    A    
C54   H30   S    
C24   H16   S    
C54   H29   S    
C38   C53   S    
C33   C35   A    
C13   N2    A    
C17   N5    S    
C51   H21   S    
C10   C11   A    
C12   H2    S    
C20   C21   A    
C45   C55   A    
C41   H5    S    
C41   N3    A    
C3    C22   A    
C53   H27   S    
C29   H34   S    
C47   C56   A    
C38   H4    S    
