data_mof_unit_55405.cif
_audit_creation_date              2012-12-11T16:24:19-0500
_audit_creation_method            fapswitch 2.2
_symmetry_space_group_name_H-M    P1
_symmetry_Int_Tables_number       1
_space_group_crystal_system       triclinic
_cell_length_a                    14.75591
_cell_length_b                    14.764185
_cell_length_c                    33.281457
_cell_angle_alpha                 96.048841
_cell_angle_beta                  96.229257
_cell_angle_gamma                 61.219549
_cell_volume                      6305.71683867

loop_
_atom_site_label
_atom_site_type_symbol
_atom_type_description
_atom_site_fract_x
_atom_site_fract_y
_atom_site_fract_z
_atom_type_partial_charge
C1    C     C_R   0.390964 0.699588 0.446115 0.546273
C2    C     C_1   0.312287 0.337235 0.229603 -0.003108
C3    C     C_1   0.318190 0.341152 0.265924 -0.005584
C4    C     C_R   0.405770 0.386276 0.434055 0.544614
C5    C     C_R   0.290193 0.293959 0.101975 0.006249
C6    C     C_R   0.758542 0.372165 0.410838 0.022061
C7    C     C_R   0.795136 0.432128 0.395108 -0.129586
C8    C     C_R   0.826859 0.410571 0.355787 -0.118035
C9    C     C_R   0.822518 0.328701 0.331581 0.035217
C10   C     C_R   0.795616 0.262672 0.348684 -0.119940
C11   C     C_R   0.763835 0.284257 0.388058 -0.131367
C12   C     C_R   0.328553 0.345350 0.309184 0.040872
C13   C     C_R   0.841224 0.312478 0.206431 0.349446
C14   C     C_R   0.835063 0.319448 0.287852 0.346382
C15   C     C_R   0.850109 0.388590 0.144777 -0.119195
C16   C     C_R   0.701084 0.409831 0.447681 0.546787
C17   C     C_R   0.877619 0.376675 0.105232 -0.138941
C18   C     C_R   0.897635 0.202499 0.099004 -0.024830
C19   C     C_R   0.869597 0.215501 0.138855 -0.122004
C20   C     C_R   0.851040 0.306310 0.162580 0.019479
C21   C     C_R   0.907760 0.281844 0.082557 0.004563
C22   C     C_R   0.370758 0.754736 0.409135 0.021516
C23   C     C_R   0.410272 0.262921 0.328985 -0.109427
C24   C     C_R   0.276605 0.784525 0.385937 -0.129497
C25   C     C_R   0.266217 0.812904 0.346458 -0.118076
C26   C     C_R   0.349675 0.812277 0.329539 0.034608
C27   C     C_R   0.440308 0.792046 0.354006 -0.119148
C28   C     C_R   0.393535 0.701235 0.561274 0.542917
C29   C     C_R   0.450806 0.763421 0.393531 -0.130356
C30   C     C_R   0.342399 0.830170 0.204569 0.347545
C31   C     C_R   0.345331 0.823065 0.285809 0.347050
C32   C     C_R   0.257379 0.833363 0.135477 -0.116033
C33   C     C_R   0.238006 0.863444 0.095873 -0.123334
C34   C     C_R   0.430652 0.272871 0.370642 -0.123889
C35   C     C_R   0.381252 0.902125 0.104999 -0.130552
C36   C     C_R   0.400716 0.871888 0.144664 -0.118834
C37   C     C_R   0.335727 0.842040 0.160815 0.033509
C38   C     C_R   0.296540 0.902890 0.080961 0.018659
C39   C     C_R   0.371731 0.369218 0.585173 0.022339
C40   C     C_R   0.407402 0.388867 0.549030 0.545635
C41   C     C_R   0.285253 0.448688 0.604016 -0.131129
C42   C     C_R   0.266199 0.439464 0.643110 -0.121738
C43   C     C_R   0.333415 0.350714 0.663916 0.034882
C44   C     C_R   0.414167 0.267639 0.643636 -0.120924
C45   C     C_R   0.391051 0.252304 0.166323 -0.122864
C46   C     C_R   0.433068 0.276734 0.604585 -0.129774
C47   C     C_R   0.318782 0.348080 0.788574 0.346636
C48   C     C_R   0.325680 0.348034 0.707468 0.346738
C49   C     C_R   0.218493 0.403404 0.850471 -0.121600
C50   C     C_R   0.207260 0.383787 0.889210 -0.130765
C51   C     C_R   0.386304 0.249102 0.893052 -0.129208
C52   C     C_R   0.701255 0.413659 0.562708 0.542858
C53   C     C_R   0.397484 0.268649 0.854398 -0.120611
C54   C     C_R   0.312314 0.342521 0.832012 0.034226
C55   C     C_R   0.289720 0.303016 0.909980 0.022255
C56   C     C_R   0.383202 0.234243 0.124473 -0.127845
C57   C     C_R   0.753819 0.380760 0.602989 0.020081
C58   C     C_R   0.777500 0.448126 0.629635 -0.126272
C59   C     C_R   0.805570 0.427730 0.670432 -0.110479
C60   C     C_R   0.810778 0.339736 0.684975 0.040943
C61   C     C_R   0.793564 0.269079 0.658276 -0.110989
C62   C     C_R   0.765510 0.289228 0.617466 -0.125770
C63   C     C_R   0.886103 0.212790 0.822810 -0.110548
C64   C     C_R   0.369603 0.365824 0.392782 0.019745
C65   C     C_R   0.913838 0.201408 0.864185 -0.126618
C66   C     C_R   0.871532 0.382331 0.873466 -0.125507
C67   C     C_R   0.207816 0.376977 0.121720 -0.129581
C68   C     C_R   0.843660 0.393507 0.832151 -0.110813
C69   C     C_R   0.853823 0.308094 0.806628 0.041408
C70   C     C_1   0.838344 0.316922 0.763623 -0.022089
C71   C     C_1   0.826632 0.325988 0.727664 -0.022372
C72   C     C_R   0.910250 0.285273 0.889690 0.019804
C73   C     C_R   0.376507 0.754552 0.602035 0.020060
C74   C     C_R   0.281107 0.790027 0.619092 -0.125593
C75   C     C_R   0.271595 0.819150 0.660322 -0.110791
C76   C     C_R   0.283022 0.445381 0.372991 -0.126671
C77   C     C_R   0.357018 0.813478 0.684920 0.041516
C78   C     C_R   0.215206 0.394989 0.163729 0.002609
C79   C     C_R   0.450412 0.784390 0.667843 -0.111282
C80   C     C_R   0.460113 0.755424 0.626554 -0.127549
C81   C     C_R   0.396815 0.884189 0.832763 -0.110909
C82   C     C_R   0.376978 0.911742 0.873565 -0.125472
C83   C     C_R   0.227850 0.882128 0.862741 -0.126196
C84   C     C_R   0.247973 0.854498 0.821990 -0.110929
C85   C     C_R   0.330721 0.858229 0.806759 0.040103
C86   C     C_1   0.343145 0.842178 0.764019 -0.022878
C87   C     C_1   0.350523 0.829935 0.727987 -0.022550
C88   C     C_R   0.262933 0.435222 0.331304 -0.104884
C89   C     C_R   0.306363 0.330142 0.186184 0.027312
C90   C     C_R   0.290260 0.914204 0.888689 0.019542
C91   C     C_R   0.963514 0.264063 0.045689 0.542425
C92   C     C_R   0.272594 0.259382 0.060064 0.546454
C93   C     C_R   0.259174 0.959700 0.043790 0.544078
C94   C     C_R   0.962634 0.267614 0.930715 0.541284
C95   C     C_R   0.270839 0.264059 0.945375 0.545512
C96   C     C_R   0.256053 0.965128 0.928933 0.540752
C97   C     C_1   0.920012 0.105130 0.076962 0.219484
C98   C     C_1   0.126710 0.476623 0.183325 0.199187
Cr1   Cr    Cr6+3 0.576280 0.580550 0.506370 1.013209
Cr2   Cr    Cr6+3 0.346780 0.572400 0.496520 1.013510
Cr3   Cr    Cr6+3 0.576960 0.347070 0.497150 1.013120
Cr4   Cr    Cr6+3 0.087320 0.083240 0.984860 1.046083
Cr5   Cr    Cr6+3 0.087720 0.316210 0.996740 1.017516
Cr6   Cr    Cr6+3 0.317350 0.090340 0.995890 1.017203
H1    H     H_    0.447910 0.169884 0.110110 0.136434
H2    H     H_    0.173024 0.861880 0.077857 0.153721
H3    H     H_    0.461758 0.202413 0.183426 0.123746
H4    H     H_    0.194540 0.830249 0.328588 0.139996
H5    H     H_    0.505477 0.792240 0.341944 0.137488
H6    H     H_    0.207313 0.808561 0.146824 0.144286
H7    H     H_    0.428196 0.931500 0.094205 0.132914
H8    H     H_    0.462576 0.878071 0.163325 0.138231
H9    H     H_    0.236159 0.520700 0.589680 0.129374
H10   H     H_    0.499608 0.213688 0.590659 0.129989
H11   H     H_    0.131984 0.427063 0.901619 0.131599
H12   H     H_    0.736953 0.236046 0.399568 0.130247
H13   H     H_    0.202564 0.504285 0.657805 0.132031
H14   H     H_    0.466058 0.197345 0.658611 0.132740
H15   H     H_    0.461218 0.192959 0.311963 0.118856
H16   H     H_    0.151823 0.461757 0.834126 0.132811
H17   H     H_    0.451641 0.187332 0.908591 0.132003
H18   H     H_    0.471476 0.221948 0.841294 0.134121
H19   H     H_    0.943921 0.125524 0.875662 0.129167
H20   H     H_    0.894023 0.146279 0.803229 0.111514
H21   H     H_    0.797715 0.200597 0.669288 0.111367
H22   H     H_    0.747655 0.235866 0.597788 0.126392
H23   H     H_    0.881725 0.440138 0.093433 0.143149
H24   H     H_    0.768843 0.519399 0.619529 0.126683
H25   H     H_    0.818381 0.467691 0.819857 0.111449
H26   H     H_    0.867890 0.448342 0.892269 0.128732
H27   H     H_    0.497732 0.210216 0.385008 0.130151
H28   H     H_    0.819042 0.482742 0.690936 0.112671
H29   H     H_    0.426335 0.936357 0.892681 0.129819
H30   H     H_    0.461212 0.887047 0.821204 0.113405
H31   H     H_    0.516924 0.779895 0.686705 0.110691
H32   H     H_    0.534775 0.727957 0.614424 0.126994
H33   H     H_    0.215356 0.790199 0.601066 0.127264
H34   H     H_    0.849325 0.461593 0.343696 0.138553
H35   H     H_    0.196563 0.834185 0.802032 0.113821
H36   H     H_    0.160413 0.883406 0.873376 0.129134
H37   H     H_    0.198887 0.841866 0.673321 0.110673
H38   H     H_    0.234601 0.517927 0.389177 0.129930
H39   H     H_    0.135449 0.424022 0.104857 0.133816
H40   H     H_    0.199354 0.499272 0.316089 0.129534
H41   H     H_    0.793298 0.499537 0.412208 0.131181
H42   H     H_    0.792881 0.198117 0.330926 0.136657
H43   H     H_    0.833243 0.460750 0.162013 0.151615
H44   H     H_    0.867503 0.152373 0.151947 0.141373
H45   H     H_    0.213081 0.779761 0.397317 0.131781
H46   H     H_    0.524072 0.741655 0.410835 0.130653
N1    N     N_R   0.843324 0.391889 0.230283 -0.217944
N2    N     N_R   0.421989 0.829484 0.269213 -0.228828
N3    N     N_R   0.420182 0.833669 0.229368 -0.227942
N4    N     N_R   0.240039 0.422847 0.766806 -0.235995
N5    N     N_1   0.937860 0.027020 0.059407 -0.296192
N6    N     N_1   0.055797 0.541955 0.199029 -0.285360
N7    N     N_R   0.243759 0.423230 0.727042 -0.236001
N8    N     N_R   0.404216 0.273437 0.729271 -0.234730
N9    N     N_R   0.400681 0.273275 0.768969 -0.234789
N10   N     N_R   0.839898 0.395513 0.270156 -0.223689
N11   N     N_R   0.833165 0.239776 0.264038 -0.228488
N12   N     N_R   0.836885 0.236000 0.224101 -0.227475
N13   N     N_R   0.266060 0.823461 0.221205 -0.222983
N14   N     N_R   0.267683 0.819622 0.260985 -0.223787
O1    O     O_R   0.679450 0.499830 0.463150 -0.518992
O2    O     O_R   0.340240 0.172500 0.045430 -0.516872
O3    O     O_R   0.309670 0.000990 0.032050 -0.504185
O4    O     O_R   0.480650 0.664000 0.464630 -0.501171
O5    O     O_R   0.168330 0.982130 0.939200 -0.519080
O6    O     O_R   0.000140 0.178170 0.944610 -0.501259
O7    O     O_R   0.983010 0.336750 0.948660 -0.519448
O8    O     O_R   0.181800 0.312190 0.959860 -0.501883
O9    O     O_R   0.338500 0.175680 0.956950 -0.518466
O10   O     O_R   0.308050 0.003930 0.950020 -0.502358
O11   O     O_3   0.164130 0.163270 0.992500 -0.242859
O12   O     O_R   0.356040 0.477400 0.534170 -0.502132
O13   O     O_R   0.323930 0.675950 0.455370 -0.519688
O14   O     O_R   0.354700 0.475360 0.451930 -0.501667
O15   O     O_R   0.494470 0.320860 0.448390 -0.519340
O16   O     O_R   0.662580 0.357570 0.460050 -0.502197
O17   O     O_R   0.680900 0.502040 0.551870 -0.520484
O18   O     O_R   0.481990 0.666040 0.546870 -0.502610
O19   O     O_R   0.325370 0.678160 0.544080 -0.519159
O20   O     O_R   0.495910 0.323070 0.537100 -0.519708
O21   O     O_R   0.663920 0.359620 0.542290 -0.501791
O22   O     O_3   0.500010 0.500010 0.500010 -0.236427
O23   O     O_R   0.170070 0.978950 0.027680 -0.499980
O24   O     O_R   0.001760 0.175230 0.026640 -0.480701
O25   O     O_R   0.984760 0.333570 0.037150 -0.521851
O26   O     O_R   0.183410 0.309240 0.041890 -0.501564

loop_
_geom_bond_atom_site_label_1
_geom_bond_atom_site_label_2
_ccdc_geom_bond_type
Cr4   O6    S    
C66   C68   A    
C91   O24   A    
C63   C65   A    
C58   H24   S    
C22   C29   A    
C7    H41   S    
C27   C29   A    
C18   C21   A    
C41   C42   A    
C5    C56   A    
C35   C36   A    
C78   C98   S    
C5    C67   A    
Cr2   O14   S    
C63   H20   S    
C7    C8    A    
C39   C41   A    
C47   N9    A    
C53   C54   A    
C91   O25   A    
C12   C23   A    
C26   C27   A    
C96   O10   A    
C36   C37   A    
C28   O19   A    
C18   C19   A    
C53   H18   S    
C66   H26   S    
C21   C91   S    
C49   H16   S    
C28   C73   S    
C16   O16   A    
C49   C54   A    
C8    H34   S    
C50   H11   S    
C73   C74   A    
Cr2   O19   S    
C28   O18   A    
Cr1   O18   S    
C3    C12   S    
C75   H37   S    
Cr6   O2    S    
C80   H32   S    
C29   H46   S    
C1    O13   A    
C30   N3    A    
C66   C72   A    
C63   C69   A    
C84   H35   S    
C44   C46   A    
C8    C9    A    
C50   C55   A    
C36   H8    S    
C70   C71   T    
Cr5   O25   S    
C18   C97   S    
C45   C89   A    
C95   O8    A    
C76   C88   A    
C1    C22   S    
C61   C62   A    
C45   C56   A    
C14   N11   A    
C81   C85   A    
C72   C94   S    
Cr4   O5    S    
C97   N5    T    
C67   H39   S    
C59   C60   A    
Cr5   O7    S    
C68   H25   S    
C67   C78   A    
C30   N13   A    
Cr3   O21   S    
Cr2   O13   S    
Cr5   O11   S    
C83   H36   S    
C92   O26   A    
N11   N12   A    
Cr6   O11   S    
C77   C79   A    
C78   C89   A    
C15   C20   A    
C74   H33   S    
C98   N6    T    
C59   H28   S    
C74   C75   A    
C12   C88   A    
C5    C92   S    
C81   H30   S    
C13   N12   A    
C35   C38   A    
C84   C85   A    
C13   N1    A    
N4    N7    A    
C55   C95   S    
C10   C11   A    
C41   H9    S    
C6    C11   A    
C62   H22   S    
C46   H10   S    
C86   C87   T    
C68   C69   A    
Cr6   O10   S    
C60   C71   S    
C57   C62   A    
C25   C26   A    
C85   C86   S    
C48   N8    A    
C81   C82   A    
C30   C37   S    
C14   N10   A    
C60   C61   A    
C15   H43   S    
C2    C89   S    
Cr2   O22   S    
C9    C14   S    
Cr2   O12   S    
Cr3   O15   S    
C94   O7    A    
C83   C84   A    
C44   H14   S    
C16   O1    A    
C23   C34   A    
C34   C64   A    
C64   C76   A    
Cr5   O26   S    
C32   C37   A    
C24   C25   A    
C11   H12   S    
C75   C77   A    
C93   O3    A    
C6    C7    A    
Cr3   O20   S    
C32   H6    S    
C10   H42   S    
C47   C54   S    
C93   O23   A    
C34   H27   S    
C96   O5    A    
C39   C46   A    
C43   C44   A    
N8    N9    A    
C51   H17   S    
C22   C24   A    
C58   C59   A    
C42   C43   A    
C4    O15   A    
Cr3   O22   S    
C39   C40   S    
C35   H7    S    
C52   C57   S    
C40   O12   A    
Cr1   O4    S    
C9    C10   A    
C15   C17   A    
C83   C90   A    
C31   N14   A    
C13   C20   S    
C77   C87   S    
C17   H23   S    
C33   H2    S    
C19   H44   S    
C4    O14   A    
C82   C90   A    
C42   H13   S    
C90   C96   S    
Cr6   O9    S    
C47   N4    A    
C65   C72   A    
C79   H31   S    
C48   N7    A    
C4    C64   S    
Cr4   O23   S    
C1    O4    A    
C43   C48   S    
C32   C33   A    
C19   C20   A    
C2    C3    T    
Cr4   O11   S    
Cr3   O16   S    
N1    N10   A    
Cr6   O3    S    
C23   H15   S    
C31   N2    A    
C57   C58   A    
Cr5   O8    S    
C52   O17   A    
C82   H29   S    
C38   C93   S    
C73   C80   A    
C51   C55   A    
C65   H19   S    
C95   O9    A    
C69   C70   S    
Cr4   O24   S    
C56   H1    S    
Cr1   O17   S    
N13   N14   A    
C24   H45   S    
C51   C53   A    
C6    C16   S    
C79   C80   A    
C92   O2    A    
C26   C31   S    
N2    N3    A    
C27   H5    S    
C49   C50   A    
C52   O21   A    
C33   C38   A    
C61   H21   S    
Cr1   O1    S    
C88   H40   S    
Cr1   O22   S    
C94   O6    A    
C45   H3    S    
C25   H4    S    
C76   H38   S    
C40   O20   A    
C17   C21   A    
