data_mof_unit_18527.cif
_audit_creation_date              2012-12-10T20:49:09-0500
_audit_creation_method            fapswitch 2.2
_symmetry_space_group_name_H-M    P1
_symmetry_Int_Tables_number       1
_space_group_crystal_system       triclinic
_cell_length_a                    8.909705
_cell_length_b                    8.153156
_cell_length_c                    10.557608
_cell_angle_alpha                 89.786339
_cell_angle_beta                  89.987461
_cell_angle_gamma                 90.082783
_cell_volume                      766.921875631

loop_
_atom_site_label
_atom_site_type_symbol
_atom_type_description
_atom_site_fract_x
_atom_site_fract_y
_atom_site_fract_z
_atom_type_partial_charge
C1    C     C_R   0.218225 0.499923 0.499984 0.942191
C2    C     C_3   0.632762 0.537927 0.047752 0.442001
C3    C     C_3   0.509524 0.500824 0.876962 -0.216557
C4    C     C_3   0.490473 0.499175 0.123037 -0.216562
C5    C     C_1   0.065286 0.499889 0.499986 -0.176225
C6    C     C_1   0.934714 0.500111 0.500014 -0.176226
C7    C     C_3   0.278595 0.731055 0.085887 -0.393300
C8    C     C_3   0.186519 0.808541 0.979438 -0.824876
C9    C     C_3   0.721401 0.268943 0.914113 -0.393297
C10   C     C_3   0.813477 0.191457 0.020563 -0.824880
C11   C     C_3   0.595684 0.820245 0.915854 -0.347981
C12   C     C_R   0.781775 0.500076 0.500015 0.942190
C13   C     C_3   0.749708 0.812511 0.851711 -0.825893
C14   C     C_3   0.404313 0.179755 0.084147 -0.347979
C15   C     C_3   0.250285 0.187486 0.148282 -0.825905
C16   C     C_R   0.493192 0.500012 0.257324 0.956017
C17   C     C_R   0.506807 0.499987 0.742676 0.956018
C18   C     C_3   0.397105 0.612147 0.036323 -0.023119
C19   C     C_3   0.602892 0.387852 0.963677 -0.023124
C20   C     C_3   0.541694 0.651417 0.960882 0.066700
C21   C     C_3   0.458303 0.348582 0.039118 0.066696
C22   C     C_3   0.367235 0.462072 0.952247 0.442004
H1    H     H_    0.153629 0.430880 0.960020 0.327777
H2    H     H_    0.893460 0.102019 0.979682 0.245214
H3    H     H_    0.663695 0.171751 0.859472 0.225094
H4    H     H_    0.798259 0.335997 0.849127 0.202607
H5    H     H_    0.760625 0.702815 0.790576 0.249232
H6    H     H_    0.767058 0.922686 0.791552 0.248884
H7    H     H_    0.839742 0.809752 0.924036 0.252419
H8    H     H_    0.512854 0.872266 0.848473 0.215300
H9    H     H_    0.602398 0.902528 0.998900 0.205298
H10   H     H_    0.239368 0.297178 0.209421 0.249237
H11   H     H_    0.160256 0.190254 0.075952 0.252421
H12   H     H_    0.846369 0.569115 0.039978 0.327776
H13   H     H_    0.232924 0.077305 0.208435 0.248883
H14   H     H_    0.397608 0.097467 0.001103 0.205296
H15   H     H_    0.487139 0.127739 0.151534 0.215306
H16   H     H_    0.259882 0.873317 0.910844 0.259336
H17   H     H_    0.120459 0.714522 0.928316 0.268573
H18   H     H_    0.106535 0.897978 0.020320 0.245213
H19   H     H_    0.201738 0.664000 0.150873 0.202608
H20   H     H_    0.336301 0.828246 0.140529 0.225094
H21   H     H_    0.879538 0.285476 0.071684 0.268571
H22   H     H_    0.740113 0.126683 0.089158 0.259335
N1    N     N_1   0.500000 0.073640 0.500000 -0.041122
N2    N     N_1   0.500000 0.926360 0.500000 -0.041122
O1    O     O_R   0.285350 0.636850 0.500000 -0.622472
O2    O     O_3   0.768538 0.578827 0.106482 -0.768567
O3    O     O_R   0.714650 0.363150 0.500000 -0.622472
O4    O     O_R   0.714650 0.636850 0.500000 -0.611373
O5    O     O_R   0.285350 0.363150 0.500000 -0.611372
O6    O     O_R   0.499970 0.636850 0.313950 -0.617705
O7    O     O_R   0.500030 0.363150 0.686050 -0.617706
O8    O     O_R   0.500030 0.636850 0.686050 -0.622451
O9    O     O_R   0.499970 0.363150 0.313950 -0.622454
O10   O     O_3   0.231460 0.421176 0.893515 -0.768572
Zn1   Zn    Zn3+2 0.500000 0.682780 0.500000 0.985009
Zn2   Zn    Zn3+2 0.500000 0.317220 0.500000 0.985009

loop_
_geom_bond_atom_site_label_1
_geom_bond_atom_site_label_2
_ccdc_geom_bond_type
C4    C16   S    
N1    N2    T    
C2    C4    S    
O7    Zn2   S    
C13   H6    S    
C3    C19   S    
C8    H17   S    
O1    Zn1   S    
C11   C13   S    
C9    C10   S    
C12   O4    A    
C10   H22   S    
C7    C18   S    
C4    C18   S    
C12   O3    A    
C10   H21   S    
C16   O9    A    
C9    H3    S    
C7    C8    S    
O5    Zn2   S    
C3    C20   S    
C21   C22   S    
C14   H15   S    
C6    C12   S    
C4    C21   S    
C1    O5    A    
C2    O2    S    
C8    H16   S    
C1    C5    S    
C14   C21   S    
C15   H13   S    
C19   C21   S    
C15   H11   S    
C9    H4    S    
C3    C17   S    
C18   C20   S    
C7    H19   S    
N2    Zn1   S    
C14   H14   S    
C5    C6    T    
C11   C20   S    
N1    Zn2   S    
O9    Zn2   S    
H12   O2    S    
O6    Zn1   S    
C11   H9    S    
C17   O7    A    
H1    O10   S    
C7    H20   S    
C13   H7    S    
C14   C15   S    
C13   H5    S    
C3    C22   S    
C22   O10   S    
C8    H18   S    
C10   H2    S    
C2    C19   S    
C18   C22   S    
O4    Zn1   S    
C2    C20   S    
C17   O8    A    
C9    C19   S    
C1    O1    A    
O3    Zn2   S    
C16   O6    A    
C11   H8    S    
O8    Zn1   S    
C15   H10   S    
