data_mof_unit_24664.cif
_audit_creation_date              2013-03-05T16:42:34-0500
_audit_creation_method            fapswitch 2.2
_symmetry_space_group_name_H-M    P1
_symmetry_Int_Tables_number       1
_space_group_crystal_system       triclinic
_cell_length_a                    11.540318
_cell_length_b                    10.675051
_cell_length_c                    9.895521
_cell_angle_alpha                 89.379656
_cell_angle_beta                  90.431971
_cell_angle_gamma                 90.491648
_cell_volume                      1218.91356969

loop_
_atom_site_label
_atom_site_type_symbol
_atom_site_description
_atom_site_fract_x
_atom_site_fract_y
_atom_site_fract_z
_atom_type_partial_charge
O1    O     O_R   0.500010 0.316790 0.614690 -0.622423
O2    O     O_R   0.500000 0.316760 0.385350 -0.630012
C1    C     C_R   0.503846 0.259858 0.500686 0.920467
O3    O     O_R   0.334450 0.500030 0.614670 -0.566436
O4    O     O_R   0.334440 0.500000 0.385330 -0.582395
C2    C     C_R   0.281987 0.499939 0.499575 0.940879
Zn1   Zn    Zn3+2 0.500010 0.500020 0.653130 1.030092
Zn2   Zn    Zn3+2 0.499990 0.499980 0.346870 1.002387
O5    O     O_R   0.500000 0.683240 0.614650 -0.601452
O6    O     O_R   0.499990 0.683210 0.385310 -0.592596
O7    O     O_R   0.665560 0.500000 0.614670 -0.603143
O8    O     O_R   0.665550 0.499970 0.385330 -0.633849
C3    C     C_R   0.508713 0.739640 0.499344 0.909297
C4    C     C_R   0.718042 0.500096 0.500408 0.872923
C5    C     C_1   0.161538 0.499861 0.498854 -0.023999
C6    C     C_1   0.059363 0.499832 0.499353 0.122562
C7    C     C_1   0.940711 0.499904 0.500501 0.074533
C8    C     C_1   0.838521 0.500010 0.501044 -0.111635
C9    C     C_R   0.521832 0.061768 0.623575 0.041911
C10   C     C_R   0.525755 0.128773 0.502481 -0.153379
C11   C     C_R   0.560111 0.068316 0.384154 -0.174966
H1    H     H_    0.576838 0.120593 0.291738 0.189951
C12   C     C_R   0.568925 0.938592 0.383182 0.456170
C13   C     C_R   0.534115 0.870751 0.500257 -0.262943
C14   C     C_R   0.523124 0.934136 0.621676 0.057277
C15   C     C_3   0.438081 0.923289 0.735180 0.660147
C16   C     C_3   0.438746 0.065818 0.738753 -0.560508
H2    H     H_    0.354843 0.109772 0.710404 0.229898
H3    H     H_    0.481464 0.103356 0.830997 0.203592
C17   C     C_R   0.401956 0.469651 0.070791 0.116846
N1    N     N_R   0.499240 0.499140 0.142800 -0.168368
C18   C     C_R   0.592236 0.544416 0.073079 -0.085644
H4    H     H_    0.666734 0.579922 0.128017 0.187829
C19   C     C_R   0.591559 0.548097 0.929784 0.497580
N2    N     N_R   0.499240 0.499180 0.857150 -0.187170
C20   C     C_R   0.401185 0.471228 0.928448 0.118246
C21   C     C_3   0.331722 0.352447 0.922782 -0.003510
C22   C     C_3   0.335609 0.349090 0.077616 0.017986
H5    H     H_    0.379601 0.276381 0.874223 0.085833
H6    H     H_    0.387295 0.270111 0.119949 0.109229
N3    N     N_R   0.222858 0.362427 0.142957 0.274323
O9    O     O_R   0.184504 0.272978 0.221339 -0.348188
O10   O     O_R   0.164403 0.465938 0.132288 -0.304818
O11   O     O_3   0.605347 0.883008 0.266037 -0.714535
H7    H     H_    0.649967 0.807455 0.291822 0.343114
N4    N     N_R   0.325878 0.867815 0.696114 0.201668
O12   O     O_R   0.270116 0.908798 0.589846 -0.387066
O13   O     O_R   0.282124 0.775073 0.765895 -0.305524
O14   O     O_3   0.487412 0.866941 0.850686 -0.731434
H8    H     H_    0.435871 0.886898 0.927225 0.361913
O15   O     O_3   0.684072 0.604693 0.867083 -0.704117
H9    H     H_    0.652859 0.649179 0.786964 0.382975
N5    N     N_R   0.215158 0.369094 0.865872 0.268837
O16   O     O_R   0.148839 0.271449 0.848161 -0.327950
O17   O     O_R   0.175701 0.479803 0.835142 -0.290403

loop_
_geom_bond_atom_site_label_1
_geom_bond_atom_site_label_2
_geom_bond_distance
_ccdc_geom_bond_type
O4    Zn2   1.950851 S    
C22   H6    1.113240 S    
C12   C13   1.418403 A    
C21   C22   1.532527 S    
C16   H3    1.111109 S    
C9    C16   1.496160 S    
N3    O9    1.300456 A    
C4    C8    1.390349 S    
N2    C20   1.367112 A    
C17   C20   1.408435 A    
Zn2   O8    1.945337 S    
C21   N5    1.465860 S    
C18   H4    1.081736 S    
C11   C12   1.389555 A    
O2    C1    1.287720 A    
C15   C16   1.522252 S    
C1    C10   1.424021 S    
C21   H5    1.102589 S    
O1    Zn1   1.996672 S    
N5    O16   1.300478 A    
C10   C11   1.404462 A    
Zn1   O7    1.950851 S    
N3    O10   1.302463 A    
C19   O15   1.371364 S    
C17   N1    1.361624 A    
O3    Zn1   1.945336 S    
O3    C2    1.285813 A    
C20   C21   1.495644 S    
C14   C15   1.500001 S    
O8    C4    1.285821 A    
C7    C8    1.179360 T    
N5    O17   1.302265 A    
O4    C2    1.286380 A    
C9    C14   1.363031 A    
O7    C4    1.286686 A    
N4    O13   1.301464 A    
C5    C6    1.179180 T    
C15   N4    1.470045 S    
O15   H9    0.987064 S    
Zn1   O5    1.988555 S    
C13   C14   1.392444 A    
C17   C22   1.493024 S    
C22   N3    1.466042 S    
Zn2   O6    1.996672 S    
C19   N2    1.382524 A    
C15   O14   1.404821 S    
C16   H2    1.112310 S    
O14   H8    0.992611 S    
O5    C3    1.288537 A    
N4    O12   1.302302 A    
O1    C1    1.288434 A    
C2    C5    1.389983 S    
C11   H1    1.083864 S    
Zn2   N1    2.019449 S    
Zn1   N2    2.018893 S    
N1    C18   1.362500 A    
O2    Zn2   1.988553 S    
O11   H7    0.990671 S    
C9    C10   1.389703 A    
C3    C13   1.427628 S    
C6    C7    1.369421 S    
C12   O11   1.378061 S    
O6    C3    1.287762 A    
C18   C19   1.418068 A    
