data_mof_unit_58599.cif
_audit_creation_date              2013-03-05T15:45:30-0500
_audit_creation_method            fapswitch 2.2
_symmetry_space_group_name_H-M    P1
_symmetry_Int_Tables_number       1
_space_group_crystal_system       triclinic
_cell_length_a                    27.716692
_cell_length_b                    10.724001
_cell_length_c                    10.011085
_cell_angle_alpha                 90.086564
_cell_angle_beta                  90.021422
_cell_angle_gamma                 90.113906
_cell_volume                      2975.6236766

loop_
_atom_site_label
_atom_site_type_symbol
_atom_site_description
_atom_site_fract_x
_atom_site_fract_y
_atom_site_fract_z
_atom_type_partial_charge
O1    O     O_R   0.499990 0.319060 0.613040 -0.615959
O2    O     O_R   0.500010 0.319100 0.386900 -0.613715
C1    C     C_R   0.499540 0.262573 0.499703 0.934625
O3    O     O_R   0.428750 0.500000 0.613050 -0.616900
O4    O     O_R   0.428760 0.500040 0.386920 -0.618517
C2    C     C_R   0.406015 0.499670 0.499912 0.879386
Zn1   Zn    Zn3+2 0.499990 0.499970 0.650990 0.949246
Zn2   Zn    Zn3+2 0.500010 0.500030 0.349010 0.947226
O5    O     O_R   0.499990 0.680900 0.613100 -0.615963
O6    O     O_R   0.500010 0.680940 0.386960 -0.614677
O7    O     O_R   0.571240 0.499960 0.613080 -0.618215
O8    O     O_R   0.571250 0.500000 0.386950 -0.614130
C3    C     C_R   0.501696 0.737337 0.500111 0.940848
C4    C     C_R   0.593679 0.501486 0.500026 0.878874
C5    C     C_R   0.177497 0.391568 0.553277 0.505656
O9    O     O_2   0.202677 0.298047 0.610249 -0.556372
N1    N     N_R   0.201281 0.489625 0.496181 -0.356453
C6    C     C_R   0.177102 0.585274 0.436200 0.505151
C7    C     C_R   0.278166 0.479876 0.377717 -0.098052
C8    C     C_R   0.328238 0.483092 0.378381 -0.209763
C9    C     C_R   0.327560 0.508848 0.619585 -0.212762
C10   C     C_R   0.277422 0.506147 0.618516 -0.096962
C11   C     C_R   0.252726 0.491616 0.497619 0.313029
C12   C     C_R   0.101277 0.484406 0.489631 -0.052226
C13   C     C_R   0.127041 0.387473 0.551818 -0.021487
C14   C     C_R   0.102083 0.288218 0.609737 -0.135247
C15   C     C_R   0.126695 0.584032 0.430908 -0.021563
C16   C     C_R   0.353293 0.497513 0.499382 -0.044001
H1    H     H_    0.346076 0.520252 0.714112 0.165246
H2    H     H_    0.257695 0.515735 0.711310 0.145475
H3    H     H_    0.121141 0.211385 0.655868 0.191731
C17   C     C_R   0.645947 0.498492 0.499219 -0.053173
C18   C     C_R   0.973972 0.386561 0.556463 0.044987
C19   C     C_R   0.973950 0.571494 0.409540 0.045075
C20   C     C_R   0.948715 0.478669 0.482659 0.069712
C21   C     C_R   0.947097 0.301280 0.634527 -0.216803
C22   C     C_R   0.897078 0.303962 0.636358 -0.143446
C23   C     C_R   0.871984 0.391433 0.560407 -0.022349
C24   C     C_R   0.897625 0.478562 0.482705 -0.054233
C25   C     C_R   0.872076 0.566366 0.405982 -0.016303
C26   C     C_R   0.821674 0.565527 0.408515 0.482974
N2    N     N_R   0.797640 0.480797 0.485686 -0.348587
C27   C     C_R   0.821547 0.395220 0.561784 0.524396
C28   C     C_R   0.718355 0.389302 0.429960 0.052888
C29   C     C_R   0.668218 0.397450 0.435866 -0.308383
C30   C     C_R   0.673734 0.594150 0.558511 0.134075
C31   C     C_R   0.723902 0.585176 0.553312 -0.148789
C32   C     C_R   0.746182 0.484553 0.489309 0.244778
O10   O     O_2   0.796507 0.314908 0.639091 -0.571068
C33   C     C_R   0.025043 0.383869 0.551593 0.043747
C34   C     C_R   0.050200 0.481871 0.486385 0.071060
C35   C     C_R   0.024874 0.577615 0.418337 0.044207
C36   C     C_R   0.052051 0.286143 0.609646 -0.217619
H4    H     H_    0.646318 0.324922 0.390400 0.154825
H5    H     H_    0.878134 0.237043 0.698202 0.185370
H6    H     H_    0.963612 0.233161 0.698787 0.142079
H7    H     H_    0.035653 0.204835 0.653547 0.143403
O11   O     O_2   0.201862 0.681460 0.382513 -0.555586
C37   C     C_R   0.101438 0.680546 0.369333 -0.136002
H8    H     H_    0.347242 0.473647 0.284415 0.164152
H9    H     H_    0.259030 0.468214 0.284171 0.144684
H10   H     H_    0.120191 0.759210 0.325479 0.191694
C38   C     C_R   0.947184 0.655148 0.329573 -0.217637
C39   C     C_R   0.897194 0.652582 0.328212 -0.145648
O12   O     O_2   0.796714 0.648298 0.334241 -0.584836
C40   C     C_R   0.051494 0.677678 0.363082 -0.217633
H11   H     H_    0.963787 0.722522 0.264384 0.142321
H12   H     H_    0.878295 0.719239 0.266134 0.183432
H13   H     H_    0.746146 0.657631 0.597321 0.144312
H14   H     H_    0.034787 0.757439 0.317193 0.143420
C41   C     C_2   0.506777 0.933079 0.387282 -0.154573
C42   C     C_2   0.508302 0.868531 0.500967 -0.340610
H15   H     H_    0.502960 0.887744 0.290690 0.176395
H16   H     H_    0.515874 0.910929 0.597130 0.152593
C43   C     C_2   0.509527 0.067231 0.389436 -0.160376
C44   C     C_2   0.496911 0.130663 0.498801 -0.324060
H17   H     H_    0.520709 0.114063 0.298312 0.172704
H18   H     H_    0.483284 0.087137 0.588879 0.152393
C45   C     C_2   0.527040 0.573702 0.925019 -0.120512
N3    N     N_2   0.500520 0.501330 0.852150 -0.191825
H19   H     H_    0.550001 0.641270 0.875346 0.152016
H20   H     H_    0.480682 0.432697 0.897725 0.163294
C46   C     C_2   0.528983 0.568638 0.075185 -0.123183
N4    N     N_2   0.500540 0.501360 0.147810 -0.194579
H21   H     H_    0.555507 0.626863 0.125085 0.160511
H22   H     H_    0.473641 0.451267 0.102038 0.162479
C47   C     C_3   0.651316 0.709058 0.620798 -0.433361
C48   C     C_3   0.635470 0.801474 0.513660 -0.845257
H23   H     H_    0.667120 0.832516 0.454254 0.261838
H24   H     H_    0.608541 0.758445 0.445523 0.255059
H25   H     H_    0.618923 0.884379 0.561665 0.248771
H26   H     H_    0.620215 0.683591 0.684919 0.219156
H27   H     H_    0.677718 0.756722 0.687304 0.207967
C49   C     C_R   0.740828 0.280753 0.362639 0.136557
C50   C     C_R   0.729141 0.158963 0.403368 -0.116289
C51   C     C_R   0.750844 0.056278 0.341788 -0.125216
C52   C     C_R   0.784082 0.074247 0.238657 -0.093654
C53   C     C_R   0.795515 0.194918 0.196524 -0.135758
C54   C     C_R   0.773910 0.297866 0.257833 -0.157867
H28   H     H_    0.703722 0.143634 0.483883 0.137500
H29   H     H_    0.742006 0.962763 0.374267 0.149827
H30   H     H_    0.800884 0.994663 0.191196 0.143541
H31   H     H_    0.821061 0.208709 0.116120 0.144515
H32   H     H_    0.782723 0.390614 0.222928 0.156980

loop_
_geom_bond_atom_site_label_1
_geom_bond_atom_site_label_2
_geom_bond_distance
_ccdc_geom_bond_type
C41   C43   1.440635 S    
C47   C48   1.526477 S    
C17   C29   1.399383 A    
C48   H24   1.110228 S    
C20   C24   1.416050 A    
C50   C51   1.398350 A    
C12   C15   1.408037 A    
C52   C53   1.397525 A    
C40   H14   1.076907 S    
Zn1   O7    2.011091 S    
N1    C11   1.426056 S    
C39   H12   1.083601 S    
C9    C10   1.389916 A    
C21   C22   1.386841 A    
N4    H22   1.025571 S    
C37   C40   1.385934 A    
O4    C2    1.295192 A    
O7    C4    1.291739 A    
C5    C13   1.399143 A    
C5    O9    1.349973 S    
C18   C21   1.414890 A    
Zn1   O5    1.977586 S    
C19   C20   1.419774 A    
C26   N2    1.366129 A    
O5    C3    1.284528 A    
C31   H13   1.083880 S    
C6    O11   1.350164 S    
C2    C16   1.461432 S    
C31   C32   1.398975 A    
C8    H8    1.083013 S    
C52   H30   1.082374 S    
C12   C34   1.416269 A    
C54   H32   1.082210 S    
C14   H3    1.083470 S    
O1    Zn1   1.976366 S    
C47   H26   1.108936 S    
O3    Zn1   2.010597 S    
C33   C34   1.419995 A    
C38   H11   1.077050 S    
C33   C36   1.414600 A    
C44   H18   1.083774 S    
C34   C35   1.419736 A    
C12   C13   1.408065 A    
N3    H20   1.025576 S    
C24   C25   1.407994 A    
C45   H19   1.084805 S    
C36   H7    1.076922 S    
C50   H28   1.083257 S    
C27   O10   1.349970 S    
C26   O12   1.350349 S    
C8    C16   1.404244 A    
C18   C33   1.416732 A    
C9    H1    1.083001 S    
C45   N3    1.292461 D    
O1    C1    1.285446 A    
C7    C11   1.398004 A    
C43   C44   1.335184 D    
C22   C23   1.395046 A    
C21   H6    1.076824 S    
C46   N4    1.292437 D    
C48   H25   1.110049 S    
Zn2   O8    2.010600 S    
C51   C52   1.397294 A    
N1    C6    1.366067 A    
N2    C32   1.427387 S    
C1    C44   1.416345 S    
C43   H17   1.086949 S    
C42   H16   1.084295 S    
C25   C26   1.397239 A    
C46   H21   1.084820 S    
C9    C16   1.404322 A    
O8    C4    1.291337 A    
C29   H4    1.085081 S    
O3    C2    1.295908 A    
N2    C27   1.365944 A    
C14   C36   1.386842 A    
C35   C40   1.414500 A    
C28   C29   1.393835 A    
C41   H15   1.086707 S    
C30   C47   1.514729 S    
C5    N1    1.366175 A    
C30   C31   1.395002 A    
C37   H10   1.083570 S    
C10   H2    1.082978 S    
Zn2   N4    2.014362 S    
C17   C30   1.411566 A    
O2    Zn2   1.977587 S    
C6    C15   1.398141 A    
C4    C17   1.449133 S    
O6    C3    1.284094 A    
O4    Zn2   2.011088 S    
C3    C42   1.418450 S    
C19   C35   1.415557 A    
C25   C39   1.394895 A    
C7    C8    1.388214 A    
O2    C1    1.282561 A    
C13   C14   1.395335 A    
C41   C42   1.333681 D    
C15   C37   1.394919 A    
C45   C46   1.505338 S    
C23   C24   1.408244 A    
C49   C54   1.405691 A    
C7    H9    1.083050 S    
C47   H27   1.112280 S    
C19   C38   1.414360 A    
C18   C20   1.419924 A    
C49   C50   1.406071 A    
C28   C49   1.482589 S    
C38   C39   1.385840 A    
C22   H5    1.083548 S    
C28   C32   1.409245 A    
C23   C27   1.398701 A    
C48   H23   1.110804 S    
Zn2   O6    1.976365 S    
C53   C54   1.398218 A    
C10   C11   1.398590 A    
C51   H29   1.082364 S    
C53   H31   1.082350 S    
Zn1   N3    2.013909 S    
