data_mof_unit_24962.cif
_audit_creation_date              2012-10-26T21:33:05-0400
_audit_creation_method            fapswitch 2.2
_symmetry_space_group_name_H-M    P1
_symmetry_Int_Tables_number       1
_space_group_crystal_system       triclinic
_cell_length_a                    28.118327
_cell_length_b                    18.448925
_cell_length_c                    17.073036
_cell_angle_alpha                 89.79206
_cell_angle_beta                  60.871549
_cell_angle_gamma                 89.679662
_cell_volume                      7736.46221467

loop_
_atom_site_label
_atom_site_type_symbol
_atom_type_description
_atom_site_fract_x
_atom_site_fract_y
_atom_site_fract_z
_atom_type_partial_charge
C1    C     C_R   0.700442 0.265134 0.676654 0.929532
C2    C     C_R   0.960515 0.626640 0.478978 -0.182426
C3    C     C_R   0.074763 0.900910 0.933303 0.957492
C4    C     C_R   0.574841 0.598903 0.933119 0.957822
C5    C     C_R   0.425194 0.401046 0.066850 0.958493
C6    C     C_R   0.425314 0.599203 0.066638 0.957930
C7    C     C_R   0.574763 0.400910 0.933303 0.957491
C8    C     C_R   0.528605 0.001714 0.565396 0.030195
C9    C     C_R   0.440374 0.002242 0.530842 0.032812
C10   C     C_R   0.028605 0.501714 0.565396 0.030195
C11   C     C_R   0.940374 0.502242 0.530841 0.032811
C12   C     C_R   0.509389 0.067658 0.548714 0.053143
C13   C     C_R   0.916523 0.380011 0.588341 -0.155766
C14   C     C_R   0.452524 0.938746 0.564959 0.039487
C15   C     C_R   0.469612 0.066590 0.521060 0.056686
C16   C     C_R   0.500010 0.936750 0.574558 0.051527
C17   C     C_R   0.009389 0.567658 0.548714 0.053143
C18   C     C_R   0.952524 0.438746 0.564959 0.039486
C19   C     C_R   0.969612 0.566590 0.521060 0.056686
C20   C     C_R   0.000010 0.436750 0.574558 0.051527
C21   C     C_R   0.601565 0.934847 0.574350 0.065597
C22   C     C_R   0.386683 0.064191 0.471784 0.075881
C23   C     C_R   0.367082 0.938980 0.521095 0.044203
C24   C     C_R   0.029809 0.632572 0.562540 -0.187286
C25   C     C_R   0.603086 0.067030 0.569195 0.063741
C26   C     C_R   0.101565 0.434846 0.574350 0.065597
C27   C     C_R   0.886683 0.564191 0.471784 0.075881
C28   C     C_R   0.867082 0.438980 0.521095 0.044203
C29   C     C_R   0.103086 0.567030 0.569195 0.063741
C30   C     C_R   0.655973 0.935073 0.560478 -0.117703
C31   C     C_R   0.340321 0.064018 0.458383 -0.120367
C32   C     C_R   0.329470 0.937514 0.487588 -0.103999
C33   C     C_R   0.656579 0.065416 0.558782 -0.116912
C34   C     C_R   0.155973 0.435073 0.560478 -0.117703
C35   C     C_R   0.520579 0.872302 0.591626 -0.184508
C36   C     C_R   0.840321 0.564018 0.458383 -0.120367
C37   C     C_R   0.829470 0.437514 0.487588 -0.103999
C38   C     C_R   0.156579 0.565416 0.558782 -0.116912
C39   C     C_R   0.681059 0.000021 0.557361 -0.263720
C40   C     C_R   0.316553 0.999716 0.457306 -0.272392
C41   C     C_R   0.181059 0.500021 0.557361 -0.263720
C42   C     C_R   0.816553 0.499716 0.457306 -0.272392
C43   C     C_R   0.577522 0.001128 0.570595 0.079311
C44   C     C_R   0.398411 0.001616 0.507220 0.079074
C45   C     C_R   0.077522 0.501128 0.570595 0.079311
C46   C     C_R   0.460514 0.126640 0.478978 -0.182427
C47   C     C_R   0.898412 0.501616 0.507220 0.079073
C48   C     C_R   0.070101 0.371499 0.591931 -0.154225
C49   C     C_R   0.920959 0.624633 0.452536 -0.143921
C50   C     C_R   0.873675 0.381188 0.569502 -0.126214
C51   C     C_R   0.073780 0.631754 0.578188 -0.150116
C52   C     C_R   0.570101 0.871499 0.591931 -0.154224
C53   C     C_R   0.420959 0.124632 0.452536 -0.143922
C54   C     C_R   0.373675 0.881188 0.569502 -0.126213
C55   C     C_R   0.573780 0.131754 0.578188 -0.150116
C56   C     C_R   0.416523 0.880011 0.588341 -0.155765
C57   C     C_R   0.529809 0.132572 0.562540 -0.187286
C58   C     C_R   0.721138 0.264641 0.953224 -0.078466
C59   C     C_R   0.280127 0.737860 0.045814 -0.083793
C60   C     C_R   0.279867 0.263824 0.045724 -0.086313
C61   C     C_R   0.299701 0.735150 0.323320 0.975888
C62   C     C_R   0.720586 0.735313 0.953911 -0.085702
C63   C     C_R   0.221138 0.764641 0.953224 -0.078466
C64   C     C_R   0.780127 0.237860 0.045814 -0.083792
C65   C     C_R   0.779867 0.763824 0.045725 -0.086310
C66   C     C_R   0.220587 0.235311 0.953912 -0.085705
C67   C     C_R   0.695964 0.230955 0.037682 -0.344890
C68   C     C_R   0.305317 0.771581 0.961351 -0.346647
C69   C     C_R   0.305204 0.230009 0.961376 -0.346741
C70   C     C_R   0.695255 0.769106 0.038261 -0.343562
C71   C     C_R   0.195965 0.730955 0.037682 -0.344889
C72   C     C_R   0.299570 0.265193 0.323437 0.950272
C73   C     C_R   0.805317 0.271580 0.961351 -0.346645
C74   C     C_R   0.805205 0.730017 0.961372 -0.346748
C75   C     C_R   0.195256 0.269114 0.038257 -0.343557
C76   C     C_R   0.725196 0.217092 0.083314 0.697387
C77   C     C_R   0.276073 0.785468 0.915707 0.690313
C78   C     C_R   0.275865 0.215303 0.916170 0.696907
C79   C     C_R   0.724588 0.783804 0.083463 0.699923
C80   C     C_R   0.225196 0.717092 0.083313 0.697388
C81   C     C_R   0.776073 0.285468 0.915707 0.690311
C82   C     C_R   0.775867 0.715312 0.916165 0.696909
C83   C     C_R   0.700471 0.734729 0.676554 0.944300
C84   C     C_R   0.224589 0.283812 0.083459 0.699923
C85   C     C_R   0.646309 0.328784 0.942756 -0.313732
C86   C     C_R   0.354549 0.672749 0.056504 -0.311969
C87   C     C_R   0.354197 0.328659 0.056716 -0.310166
C88   C     C_R   0.646126 0.670780 0.942989 -0.309996
C89   C     C_R   0.146309 0.828784 0.942756 -0.313731
C90   C     C_R   0.854549 0.172749 0.056504 -0.311970
C91   C     C_R   0.854197 0.828660 0.056717 -0.310175
C92   C     C_R   0.146126 0.170780 0.942990 -0.309989
C93   C     C_R   0.617155 0.346669 0.897586 -0.201383
C94   C     C_R   0.200442 0.765134 0.676654 0.929532
C95   C     C_R   0.383248 0.653936 0.102148 -0.201200
C96   C     C_R   0.382955 0.346818 0.102415 -0.199831
C97   C     C_R   0.617196 0.652958 0.897474 -0.199432
C98   C     C_R   0.117155 0.846669 0.897586 -0.201383
C99   C     C_R   0.883248 0.153936 0.102148 -0.201199
C100  C     C_R   0.882955 0.846818 0.102415 -0.199830
C101  C     C_R   0.117195 0.152958 0.897474 -0.199433
C102  C     C_R   0.630989 0.316707 0.815412 0.537082
C103  C     C_R   0.369274 0.683516 0.184592 0.540667
C104  C     C_R   0.368977 0.316951 0.184811 0.537538
C105  C     C_R   0.799701 0.235150 0.323320 0.975887
C106  C     C_R   0.631104 0.682983 0.815189 0.535856
C107  C     C_R   0.130989 0.816708 0.815412 0.537083
C108  C     C_R   0.869274 0.183516 0.184592 0.540666
C109  C     C_R   0.868977 0.816951 0.184811 0.537539
C110  C     C_R   0.131104 0.182983 0.815189 0.535857
C111  C     C_R   0.676973 0.274042 0.773242 -0.261461
C112  C     C_R   0.323538 0.726685 0.226552 -0.274755
C113  C     C_R   0.323359 0.274012 0.226653 -0.269838
C114  C     C_R   0.676800 0.725765 0.773280 -0.268105
C115  C     C_R   0.176973 0.774042 0.773242 -0.261461
C116  C     C_R   0.799570 0.765192 0.323437 0.950271
C117  C     C_R   0.823538 0.226685 0.226552 -0.274755
C118  C     C_R   0.823360 0.774012 0.226653 -0.269841
C119  C     C_R   0.176800 0.225764 0.773280 -0.268102
C120  C     C_R   0.703979 0.249242 0.821247 0.155798
C121  C     C_R   0.297093 0.752419 0.178084 0.162863
C122  C     C_R   0.297003 0.248823 0.178094 0.163479
C123  C     C_R   0.703347 0.750636 0.821682 0.163752
C124  C     C_R   0.203979 0.749242 0.821247 0.155797
C125  C     C_R   0.797093 0.252419 0.178084 0.162864
C126  C     C_R   0.797004 0.748822 0.178093 0.163489
C127  C     C_R   0.200472 0.234728 0.676554 0.944301
C128  C     C_R   0.203348 0.250635 0.821681 0.163744
C129  C     C_R   0.689637 0.279701 0.905490 0.117898
C130  C     C_R   0.311558 0.722374 0.093568 0.116918
C131  C     C_R   0.311254 0.279267 0.093655 0.116724
C132  C     C_R   0.689168 0.720013 0.905997 0.116504
C133  C     C_R   0.189637 0.779701 0.905490 0.117899
C134  C     C_R   0.811558 0.222374 0.093568 0.116917
C135  C     C_R   0.811254 0.779267 0.093656 0.116722
C136  C     C_R   0.189168 0.220012 0.905997 0.116505
C137  C     C_R   0.691297 0.129398 0.535192 0.890004
C138  C     C_R   0.020579 0.372302 0.591626 -0.184509
C139  C     C_R   0.303112 0.872120 0.483347 0.889378
C140  C     C_R   0.308568 0.129109 0.466797 0.880085
C141  C     C_R   0.690928 0.870473 0.536161 0.880315
C142  C     C_R   0.191297 0.629398 0.535192 0.890004
C143  C     C_R   0.803112 0.372119 0.483347 0.889377
C144  C     C_R   0.808568 0.629109 0.466797 0.880085
C145  C     C_R   0.190928 0.370473 0.536161 0.880316
C146  C     C_R   0.074841 0.098903 0.933119 0.957822
C147  C     C_R   0.925194 0.901047 0.066851 0.958493
C148  C     C_R   0.925314 0.099203 0.066638 0.957929
F1    F     F_    0.801243 0.319794 0.835189 -0.655876
F2    F     F_    0.398808 0.667366 0.226242 -0.628845
F3    F     F_    0.398504 0.332482 0.226426 -0.634941
F4    F     F_    0.601417 0.667784 0.773758 -0.637591
F5    F     F_    0.101021 0.831934 0.774263 -0.636381
F6    F     F_    0.898808 0.167366 0.226242 -0.628845
F7    F     F_    0.898504 0.832483 0.226426 -0.634941
F8    F     F_    0.101417 0.167785 0.773759 -0.637591
F9    F     F_    0.200035 0.682689 0.163765 -0.634690
F10   F     F_    0.199123 0.318162 0.163846 -0.631423
F11   F     F_    0.801336 0.680988 0.835756 -0.637712
F12   F     F_    0.301243 0.819794 0.835189 -0.655875
F13   F     F_    0.700034 0.182690 0.163765 -0.634691
F14   F     F_    0.699119 0.818146 0.163856 -0.631424
F15   F     F_    0.301333 0.180972 0.835765 -0.637710
F16   F     F_    0.601021 0.331935 0.774263 -0.636381
H1    H     H_    0.722287 0.999693 0.546963 0.208290
H2    H     H_    0.418771 0.170416 0.414727 0.181999
H3    H     H_    0.345489 0.836571 0.595473 0.196465
H4    H     H_    0.583716 0.182718 0.597248 0.191035
H5    H     H_    0.000405 0.320871 0.601126 0.152778
H6    H     H_    0.985519 0.674634 0.462122 0.157761
H7    H     H_    0.919568 0.333333 0.623962 0.167744
H8    H     H_    0.010884 0.684269 0.564619 0.158542
H9    H     H_    0.500405 0.820871 0.601126 0.152778
H10   H     H_    0.485519 0.174634 0.462122 0.157761
H11   H     H_    0.419568 0.833333 0.623962 0.167744
H12   H     H_    0.284820 0.999124 0.438521 0.203566
H13   H     H_    0.510884 0.184269 0.564619 0.158541
H14   H     H_    0.653727 0.214690 0.067808 0.204786
H15   H     H_    0.347572 0.787767 0.931198 0.201806
H16   H     H_    0.347658 0.214240 0.931005 0.204150
H17   H     H_    0.652805 0.784893 0.068627 0.206811
H18   H     H_    0.153727 0.714690 0.067808 0.204786
H19   H     H_    0.847572 0.287766 0.931198 0.201805
H20   H     H_    0.847660 0.714254 0.930998 0.204150
H21   H     H_    0.152807 0.284907 0.068619 0.206811
H22   H     H_    0.635930 0.353786 0.006498 0.204182
H23   H     H_    0.222287 0.499693 0.546963 0.208290
H24   H     H_    0.364973 0.648000 0.992610 0.203381
H25   H     H_    0.364617 0.353621 0.992814 0.204041
H26   H     H_    0.635742 0.645705 0.006818 0.204789
H27   H     H_    0.135929 0.853786 0.006498 0.204182
H28   H     H_    0.864973 0.148000 0.992610 0.203381
H29   H     H_    0.864616 0.853623 0.992815 0.204041
H30   H     H_    0.135742 0.145706 0.006819 0.204789
H31   H     H_    0.784820 0.499125 0.438521 0.203566
H32   H     H_    0.082275 0.320586 0.608214 0.187625
H33   H     H_    0.918771 0.670416 0.414727 0.181998
H34   H     H_    0.845489 0.336571 0.595473 0.196466
H35   H     H_    0.083716 0.682719 0.597248 0.191035
H36   H     H_    0.582275 0.820586 0.608214 0.187624
I1    I     I_    0.760708 0.160039 0.776819 -0.275060
I2    I     I_    0.241116 0.842404 0.222375 -0.252346
I3    I     I_    0.241748 0.158681 0.221930 -0.252282
I4    I     I_    0.758802 0.840575 0.777851 -0.255372
I5    I     I_    0.260708 0.660039 0.776819 -0.275061
I6    I     I_    0.741116 0.342404 0.222375 -0.252345
I7    I     I_    0.741752 0.658676 0.221928 -0.252274
I8    I     I_    0.258808 0.340569 0.777849 -0.255379
O1    O     O_R   0.746490 0.236330 0.638080 -0.627589
O2    O     O_R   0.325830 0.813840 0.483730 -0.642189
O3    O     O_R   0.325830 0.186160 0.483730 -0.635196
O4    O     O_R   0.674170 0.813840 0.516270 -0.631738
O5    O     O_R   0.174170 0.686160 0.516270 -0.637396
O6    O     O_R   0.825830 0.313840 0.483730 -0.642189
O7    O     O_R   0.825830 0.686160 0.483730 -0.635196
O8    O     O_R   0.174170 0.313840 0.516270 -0.631738
O9    O     O_R   0.739960 0.127620 0.525000 -0.620745
O10   O     O_R   0.260040 0.872380 0.475000 -0.624053
O11   O     O_R   0.260040 0.127620 0.475000 -0.616814
O12   O     O_R   0.253510 0.763670 0.361920 -0.604235
O13   O     O_R   0.739960 0.872380 0.525000 -0.620797
O14   O     O_R   0.239960 0.627620 0.525000 -0.620745
O15   O     O_R   0.760040 0.372380 0.475000 -0.624053
O16   O     O_R   0.760040 0.627620 0.475000 -0.616814
O17   O     O_R   0.239960 0.372380 0.525000 -0.620797
O18   O     O_R   0.680700 0.294870 0.629350 -0.562491
O19   O     O_R   0.319300 0.705130 0.370650 -0.544214
O20   O     O_R   0.319300 0.294870 0.370650 -0.553796
O21   O     O_R   0.680700 0.705130 0.629350 -0.557732
O22   O     O_R   0.180700 0.794870 0.629350 -0.562490
O23   O     O_R   0.253510 0.236330 0.361920 -0.603841
O24   O     O_R   0.819300 0.205130 0.370650 -0.544214
O25   O     O_R   0.819300 0.794870 0.370650 -0.553796
O26   O     O_R   0.180700 0.205130 0.629350 -0.557731
O27   O     O_R   0.062020 0.072840 0.007170 -0.641179
O28   O     O_R   0.937980 0.927160 0.992830 -0.642041
O29   O     O_R   0.937980 0.072840 0.992830 -0.642400
O30   O     O_R   0.062020 0.927160 0.007170 -0.641949
O31   O     O_R   0.562020 0.572840 0.007170 -0.641180
O32   O     O_R   0.437980 0.427160 0.992830 -0.642040
O33   O     O_R   0.437980 0.572840 0.992830 -0.642399
O34   O     O_R   0.746490 0.763670 0.638080 -0.605557
O35   O     O_R   0.562020 0.427160 0.007170 -0.641949
O36   O     O_R   0.947860 0.073950 0.109290 -0.548127
O37   O     O_R   0.052140 0.926050 0.890710 -0.550009
O38   O     O_R   0.052140 0.073950 0.890710 -0.550402
O39   O     O_R   0.947860 0.926050 0.109290 -0.549123
O40   O     O_R   0.447860 0.573950 0.109290 -0.548127
O41   O     O_R   0.552140 0.426050 0.890710 -0.550009
O42   O     O_R   0.552140 0.573950 0.890710 -0.550403
O43   O     O_R   0.447860 0.426050 0.109290 -0.549122
O44   O     O_R   0.246490 0.736330 0.638080 -0.627589
O45   O     O_R   0.753510 0.263670 0.361920 -0.604235
O46   O     O_R   0.753510 0.736330 0.361920 -0.603840
O47   O     O_R   0.246490 0.263670 0.638080 -0.605559
O48   O     O_R   0.674170 0.186160 0.516270 -0.637396
Zn1   Zn    Zn3+2 0.792340 0.208750 0.507670 1.054569
Zn2   Zn    Zn3+2 0.494040 0.500000 0.919480 1.065501
Zn3   Zn    Zn3+2 0.005960 0.000000 0.080520 1.071273
Zn4   Zn    Zn3+2 0.994040 0.000000 0.919480 1.065500
Zn5   Zn    Zn3+2 0.207660 0.791250 0.492330 1.056144
Zn6   Zn    Zn3+2 0.207660 0.208750 0.492330 1.062591
Zn7   Zn    Zn3+2 0.792340 0.791250 0.507670 1.061063
Zn8   Zn    Zn3+2 0.292340 0.708750 0.507670 1.054569
Zn9   Zn    Zn3+2 0.707660 0.291250 0.492330 1.056144
Zn10  Zn    Zn3+2 0.707660 0.708750 0.492330 1.062593
Zn11  Zn    Zn3+2 0.292340 0.291250 0.507670 1.061061
Zn12  Zn    Zn3+2 0.505960 0.500000 0.080520 1.071273

loop_
_geom_bond_atom_site_label_1
_geom_bond_atom_site_label_2
_ccdc_geom_bond_type
C125  C134  A    
C1    O18   A    
C109  F7    S    
C14   C56   A    
O48   Zn9   S    
C59   C130  S    
C86   H24   S    
C65   C79   A    
C5    O32   A    
C123  C132  A    
C5    O43   A    
C64   C73   A    
C11   C47   A    
O12   Zn5   S    
C83   C114  S    
C8    C43   A    
C105  O45   A    
C54   H3    S    
C99   C148  S    
O42   Zn2   S    
C25   C43   A    
C50   H34   S    
C28   C47   A    
C90   H28   S    
C88   H26   S    
C99   C108  A    
O36   Zn3   S    
C83   O34   A    
C11   C19   A    
C142  O14   A    
C33   C39   A    
C30   C141  S    
C124  C133  A    
C106  C114  A    
C127  O47   A    
C12   C57   A    
C63   C133  S    
C104  F3    S    
C6    O40   A    
C5    C96   S    
C72   O23   A    
C29   C51   A    
C121  I2    S    
C92   H30   S    
C128  I8    S    
C128  C136  A    
C16   C35   A    
C143  O15   A    
C90   C134  A    
C34   C145  S    
C75   C84   A    
C11   C18   A    
C74   H20   S    
C10   C17   A    
C87   C131  A    
C125  I6    S    
C68   C77   A    
O9    Zn1   S    
C31   C40   A    
C41   H23   S    
C20   C138  A    
C37   C42   A    
O4    Zn10  S    
O37   Zn4   S    
C140  O11   A    
C103  F2    S    
C85   C129  A    
C3    O37   A    
C21   C43   A    
C85   C93   A    
C26   C34   A    
C22   C44   A    
C113  C122  A    
C33   C137  S    
C9    C44   A    
C62   C132  S    
C141  O13   A    
C29   C38   A    
C30   C39   A    
O34   Zn7   S    
C46   H10   S    
O6    Zn1   S    
C52   H36   S    
C91   C100  A    
C123  I4    S    
O41   Zn2   S    
C88   C97   A    
C26   C45   A    
C26   C48   A    
C87   H25   S    
C147  O28   A    
C24   C51   A    
C62   C82   A    
O22   Zn5   S    
C147  O39   A    
C100  C109  A    
C8    C16   A    
C91   H29   S    
C75   H21   S    
C4    C97   S    
C48   H32   S    
C138  H5    S    
C120  I1    S    
C38   C142  S    
C71   H18   S    
C105  C117  S    
C69   C78   A    
C92   C136  A    
C34   C41   A    
C28   C50   A    
C55   H4    S    
C74   C82   A    
C66   C78   A    
C60   C131  S    
C73   C81   A    
C71   C80   A    
C95   C103  A    
O19   Zn8   S    
C22   C53   A    
C64   C134  S    
C139  O2    A    
O2    Zn8   S    
C7    C93   S    
C54   C56   A    
C101  C146  S    
O28   Zn4   S    
C17   C24   A    
C106  F4    S    
C22   C31   A    
C56   H11   S    
C78   F15   S    
C148  O29   A    
C35   H9    S    
C105  O24   A    
O7    Zn7   S    
C21   C52   A    
C89   C133  A    
O35   Zn12  S    
C89   H27   S    
C32   C139  S    
C7    O35   A    
O33   Zn2   S    
C58   C81   A    
C10   C20   A    
C40   H12   S    
C84   F10   S    
C86   C130  A    
C116  O46   A    
O18   Zn9   S    
C145  O17   A    
O45   Zn9   S    
C61   O12   A    
C1    O1    A    
C72   C113  S    
C65   C74   A    
C120  C129  A    
O5    Zn5   S    
C111  C120  A    
C122  I3    S    
C39   H1    S    
C9    C14   A    
C2    C49   A    
C36   C42   A    
C59   C68   A    
C145  O8    A    
C53   H2    S    
C70   H17   S    
O1    Zn1   S    
C12   C15   A    
C13   H7    S    
C126  I7    S    
O21   Zn10  S    
C87   C96   A    
O29   Zn4   S    
O3    Zn11  S    
C64   C76   A    
C91   C135  A    
O30   Zn3   S    
C6    O33   A    
C121  C130  A    
C61   O19   A    
C49   H33   S    
C102  C111  A    
C141  O4    A    
C107  C115  A    
C65   C135  S    
C51   H35   S    
C92   C101  A    
C38   C41   A    
C143  O6    A    
C66   C136  S    
C114  C123  A    
C13   C18   A    
C60   C69   A    
O23   Zn6   S    
C2    H6    S    
C126  C135  A    
O24   Zn1   S    
C96   C104  A    
C14   C16   A    
C124  I5    S    
C97   C106  A    
C79   F14   S    
C137  O9    A    
C3    C98   S    
O27   Zn3   S    
C122  C131  A    
C35   C52   A    
O20   Zn11  S    
C94   O22   A    
C23   C54   A    
C63   C77   A    
C27   C47   A    
C85   H22   S    
C90   C99   A    
C146  O27   A    
O46   Zn10  S    
C127  O26   A    
C115  C124  A    
C37   C143  S    
C2    C19   A    
C9    C15   A    
C93   C102  A    
C108  C117  A    
O11   Zn6   S    
C25   C55   A    
C142  O5    A    
C63   C71   A    
O13   Zn7   S    
C67   H14   S    
C94   O44   A    
C110  C119  A    
C144  O7    A    
O39   Zn3   S    
C94   C115  S    
C62   C70   A    
C59   C80   A    
O25   Zn7   S    
O40   Zn12  S    
C118  C126  A    
C27   C36   A    
C83   O21   A    
C21   C30   A    
C146  O38   A    
C68   H15   S    
C48   C138  A    
C89   C98   A    
O44   Zn8   S    
C23   C32   A    
C7    O41   A    
C55   C57   A    
C101  C110  A    
C4    O42   A    
C112  C121  A    
C69   H16   S    
C73   H19   S    
C119  C128  A    
C57   H13   S    
C82   F11   S    
C60   C84   A    
C139  O10   A    
C80   F9    S    
C70   C79   A    
O47   Zn11  S    
C28   C37   A    
C3    O30   A    
C81   F1    S    
C66   C75   A    
C46   C53   A    
C104  C113  A    
C17   C19   A    
C4    O31   A    
C116  C118  S    
O31   Zn12  S    
C18   C20   A    
O15   Zn9   S    
C32   C40   A    
C76   F13   S    
C36   C144  S    
C42   H31   S    
C24   H8    S    
C116  O25   A    
C144  O16   A    
C137  O48   A    
C110  F8    S    
C86   C95   A    
C98   C107  A    
C77   F12   S    
O8    Zn6   S    
C13   C50   A    
C107  F5    S    
C27   C49   A    
C58   C67   A    
O26   Zn6   S    
C108  F6    S    
C109  C118  A    
C102  F16   S    
C6    C95   S    
C72   O20   A    
C10   C45   A    
C29   C45   A    
C100  C147  S    
C148  O36   A    
O10   Zn5   S    
C88   C132  A    
C103  C112  A    
O16   Zn10  S    
C67   C76   A    
C58   C129  S    
C15   C46   A    
O32   Zn2   S    
C31   C140  S    
C61   C112  S    
C117  C125  A    
O43   Zn12  S    
O17   Zn11  S    
O38   Zn4   S    
C1    C111  S    
C8    C12   A    
C140  O3    A    
C25   C33   A    
O14   Zn8   S    
C23   C44   A    
C119  C127  S    
