data_mof_unit_32142.cif
_audit_creation_date              2013-03-05T15:58:07-0500
_audit_creation_method            fapswitch 2.2
_symmetry_space_group_name_H-M    P1
_symmetry_Int_Tables_number       1
_space_group_crystal_system       triclinic
_cell_length_a                    15.062176
_cell_length_b                    15.031739
_cell_length_c                    15.170568
_cell_angle_alpha                 109.614597
_cell_angle_beta                  109.165695
_cell_angle_gamma                 108.887619
_cell_volume                      2668.0693127

loop_
_atom_site_label
_atom_site_type_symbol
_atom_site_description
_atom_site_fract_x
_atom_site_fract_y
_atom_site_fract_z
_atom_type_partial_charge
C1    C     C_R   0.955230 0.230165 0.044551 0.275106
N1    N     N_R   0.947080 0.293830 0.002870 -0.063808
C2    C     C_R   0.314368 0.762403 0.224667 0.339083
N2    N     N_R   0.208950 0.706170 0.152110 -0.070962
C3    C     C_R   0.206417 0.407859 0.902251 -0.172594
H1    H     H_    0.176871 0.323682 0.849061 0.097353
N3    N     N_R   0.153670 0.443180 0.946090 -0.053874
C4    C     C_R   0.010542 0.588278 0.305399 -0.139255
H2    H     H_    0.037671 0.670315 0.362409 0.106042
N4    N     N_R   0.002360 0.556820 0.208890 -0.044742
C5    C     C_R   0.295099 0.587379 0.989591 -0.095418
H3    H     H_    0.347728 0.669334 0.015506 0.218696
N5    N     N_R   0.210070 0.556820 0.002870 -0.056392
C6    C     C_R   0.930766 0.407869 0.217581 -0.130311
H4    H     H_    0.891903 0.324590 0.195685 0.164643
N6    N     N_R   0.945960 0.443180 0.152110 -0.042660
C7    C     C_R   0.219675 0.740882 0.309731 -0.183079
H5    H     H_    0.196854 0.736639 0.368394 0.133628
N7    N     N_R   0.151710 0.706170 0.208890 -0.060542
C8    C     C_R   0.064405 0.248423 0.972357 -0.162427
H6    H     H_    0.124391 0.247985 0.949105 0.120539
N8    N     N_R   0.004320 0.293830 0.946090 -0.062350
C9    C     C_R   0.037863 0.209054 0.036891 0.031630
C10   C     C_R   0.322877 0.783621 0.324848 -0.055505
C11   C     C_R   0.295839 0.496446 0.928018 0.102571
C12   C     C_R   0.974087 0.497024 0.315686 0.048478
C13   C     C_R   0.686199 0.406310 0.938264 -0.139407
H7    H     H_    0.626773 0.321684 0.889820 0.123407
N9    N     N_R   0.789930 0.443180 0.997130 -0.048552
C14   C     C_R   0.099733 0.587271 0.793518 -0.012491
H8    H     H_    0.166517 0.665363 0.827919 0.181686
N10   N     N_R   0.054040 0.556820 0.847890 -0.052541
C15   C     C_R   0.791423 0.199129 0.701694 -0.019304
H9    H     H_    0.822588 0.176596 0.649720 0.137239
N11   N     N_R   0.848290 0.293830 0.791110 -0.038249
C16   C     C_R   0.011823 0.806266 0.104110 -0.234721
H10   H     H_    0.003447 0.836516 0.174272 0.124777
N12   N     N_R   0.995680 0.706170 0.053910 -0.056078
C17   C     C_R   0.097449 0.806506 0.010923 0.420165
N13   N     N_R   0.052920 0.706170 0.997130 -0.069202
C18   C     C_R   0.702809 0.198480 0.793254 -0.083719
H11   H     H_    0.653118 0.170850 0.826217 0.107341
N14   N     N_R   0.791050 0.293830 0.847890 -0.037388
C19   C     C_R   0.772372 0.586756 0.025824 0.041160
N15   N     N_R   0.846330 0.556820 0.053910 -0.057019
C20   C     C_R   0.990088 0.409035 0.694371 0.264431
N16   N     N_R   0.997640 0.443180 0.791110 -0.063502
Ni1   Ni    Ni4+2 0.869690 0.369690 0.000000 0.250907
Ni2   Ni    Ni4+2 0.130310 0.630310 0.000000 0.293698
Ni3   Ni    Ni4+2 0.000970 0.369690 0.869780 0.222526
Ni4   Ni    Ni4+2 0.999030 0.630310 0.130220 0.204572
C21   C     C_R   0.671631 0.495358 0.957561 0.108668
C22   C     C_R   0.063911 0.497741 0.698242 -0.017891
C23   C     C_R   0.699213 0.137074 0.699754 0.036886
C24   C     C_R   0.069980 0.871123 0.076325 -0.011982
C25   C     C_R   0.663393 0.248402 0.239840 -0.198952
H12   H     H_    0.598484 0.266824 0.216292 0.145353
C26   C     C_R   0.769121 0.332215 0.309932 -0.118904
H13   H     H_    0.784350 0.414979 0.340957 0.146966
C27   C     C_R   0.854407 0.309483 0.341024 0.141877
C28   C     C_R   0.831674 0.201293 0.301260 -0.198459
H14   H     H_    0.895952 0.181779 0.323403 0.137114
C29   C     C_R   0.725282 0.117709 0.232882 -0.095351
H15   H     H_    0.707616 0.034790 0.204700 0.169618
C30   C     C_R   0.641479 0.141222 0.201827 0.436353
C31   C     C_R   0.021914 0.399762 0.512862 -0.149526
H16   H     H_    0.997258 0.324304 0.514027 0.152179
C32   C     C_R   0.084417 0.498029 0.609516 0.148827
C33   C     C_R   0.131726 0.593788 0.605476 0.094756
C34   C     C_R   0.093837 0.590064 0.507605 -0.200799
H17   H     H_    0.134108 0.661740 0.503989 0.114327
C35   C     C_R   0.005772 0.496536 0.416405 0.062260
C36   C     C_R   0.965468 0.399998 0.419918 0.016023
C37   C     C_R   0.220224 0.787128 0.745851 0.288276
C38   C     C_R   0.312674 0.888789 0.813752 -0.072162
H18   H     H_    0.306142 0.956996 0.858217 0.188360
C39   C     C_R   0.412220 0.902964 0.820940 0.118549
C40   C     C_R   0.418601 0.813592 0.761594 -0.099838
H19   H     H_    0.494083 0.823541 0.764179 0.151932
C41   C     C_R   0.327692 0.710971 0.698430 -0.105254
H20   H     H_    0.333690 0.643413 0.650587 0.194265
C42   C     C_R   0.228740 0.695925 0.693271 -0.026806
C43   C     C_R   0.167427 0.959587 0.421056 -0.152971
H21   H     H_    0.130459 0.985655 0.368137 0.109078
C44   C     C_R   0.270151 0.973527 0.444116 -0.062645
H22   H     H_    0.310877 0.009046 0.407754 0.136815
C45   C     C_R   0.316474 0.934146 0.507405 0.133036
C46   C     C_R   0.263001 0.888393 0.554019 -0.158165
H23   H     H_    0.297900 0.857316 0.602317 0.124630
C47   C     C_R   0.160780 0.875771 0.531840 -0.076149
H24   H     H_    0.117807 0.836185 0.564066 0.164716
C48   C     C_R   0.111387 0.908138 0.462843 0.065782
C49   C     C_R   0.509311 0.010313 0.608264 -0.216088
H25   H     H_    0.502675 0.066279 0.669552 0.163577
C50   C     C_R   0.609045 0.029964 0.614604 0.064993
C51   C     C_R   0.614759 0.955971 0.532035 0.020999
C52   C     C_R   0.519070 0.868245 0.442359 -0.152943
H26   H     H_    0.522627 0.811704 0.378526 0.171874
C53   C     C_R   0.419560 0.859254 0.429995 0.083524
C54   C     C_R   0.415305 0.930335 0.515658 0.010452
C55   C     C_R   0.736500 0.016882 0.462420 -0.040503
H27   H     H_    0.672221 0.015090 0.401358 0.181005
C56   C     C_R   0.841774 0.069757 0.481340 -0.019176
H28   H     H_    0.856957 0.104940 0.432851 0.138969
C57   C     C_R   0.927588 0.081141 0.565256 0.035241
C58   C     C_R   0.907094 0.035642 0.628061 -0.127931
H29   H     H_    0.973489 0.046531 0.694232 0.150970
C59   C     C_R   0.802115 0.983355 0.610258 -0.093075
H30   H     H_    0.788760 0.955794 0.664494 0.170463
C60   C     C_R   0.716755 0.977575 0.529890 0.045936
C61   C     C_3   0.542694 0.557322 0.881603 0.123820
H31   H     H_    0.603992 0.643465 0.937128 0.115597
C62   C     C_3   0.428890 0.546078 0.858894 0.473186
H32   H     H_    0.458221 0.338038 0.790443 0.246464
H33   H     H_    0.303209 0.323554 0.793554 0.217697
C63   C     C_3   0.473638 0.377010 0.874463 -0.339065
C64   C     C_3   0.578412 0.544211 0.052909 -0.449443
C65   C     C_3   0.568809 0.493740 0.940137 0.145684
H34   H     H_    0.583036 0.490236 0.087739 0.189710
H35   H     H_    0.650914 0.623698 0.111976 0.228928
C66   C     C_3   0.391989 0.495529 0.924382 0.148782
C67   C     C_3   0.373261 0.377860 0.876001 -0.388442
C68   C     C_3   0.481946 0.559083 0.043795 -0.437720
H36   H     H_    0.507600 0.646926 0.078763 0.228914
H37   H     H_    0.452861 0.530987 0.093308 0.197103
H38   H     H_    0.491908 0.328397 0.911372 0.181428
H39   H     H_    0.355846 0.344573 0.927016 0.185252
C69   C     C_R   0.173686 0.058970 0.816855 -0.253275
H40   H     H_    0.121829 0.003192 0.731557 0.195456
C70   C     C_R   0.132176 0.061437 0.887094 0.353821
C71   C     C_R   0.200210 0.134721 0.998116 -0.007254
C72   C     C_R   0.310481 0.198606 0.037860 -0.206196
H41   H     H_    0.364721 0.250283 0.123503 0.157266
C73   C     C_R   0.352247 0.190860 0.967762 -0.204511
H42   H     H_    0.438049 0.237351 0.999713 0.144530
C74   C     C_R   0.283479 0.123339 0.857083 0.312028
C75   C     C_R   0.179612 0.054066 0.107519 -0.151346
H43   H     H_    0.242898 0.037755 0.104092 0.202995
C76   C     C_R   0.098907 0.986948 0.117396 0.064327
C77   C     C_R   0.033891 0.028238 0.146570 0.041923
C78   C     C_R   0.049793 0.127890 0.154695 -0.192802
H44   H     H_    0.007321 0.163720 0.185353 0.169809
C79   C     C_R   0.087621 0.157653 0.090670 0.077045
C80   C     C_R   0.161783 0.125058 0.073425 0.067823
C81   C     C_R   0.838000 0.914276 0.022880 -0.060299
H45   H     H_    0.851861 0.919844 0.958757 0.186635
C82   C     C_R   0.732697 0.868105 0.004531 -0.080586
H46   H     H_    0.665851 0.836508 0.926499 0.183772
C83   C     C_R   0.714003 0.861342 0.086693 -0.167324
H47   H     H_    0.633443 0.823652 0.073537 0.211940
C84   C     C_R   0.799325 0.899034 0.186178 0.331231
C85   C     C_R   0.905619 0.953916 0.208229 -0.295955
H48   H     H_    0.971657 0.988329 0.287432 0.138133
C86   C     C_R   0.925362 0.959965 0.125515 0.084760
Br1   Br    Br    0.828877 0.134039 0.037118 -0.662619
Br2   Br    Br    0.216766 0.854130 0.987906 -0.510587
N17   N     N_3   0.791027 0.693897 0.074177 -0.225449
H49   H     H_    0.813440 0.728334 0.030633 0.155179
H50   H     H_    0.851009 0.733877 0.154032 0.124432
Br3   Br    Br    0.847237 0.316227 0.572251 -0.599061
Br4   Br    Br    0.496977 0.027391 0.108894 -0.466832
Br5   Br    Br    0.426029 0.839059 0.202204 -0.525661
Br6   Br    Br    0.081881 0.776114 0.717828 -0.511538
N18   N     N_3   0.506540 0.007645 0.885097 -0.161469
H51   H     H_    0.488502 0.066265 0.922544 0.158765
H52   H     H_    0.528824 0.027132 0.832920 0.116739
N19   N     N_3   0.001966 0.882100 0.430442 -0.189710
H53   H     H_    0.996355 0.951635 0.439477 0.151166
H54   H     H_    0.956991 0.825520 0.348537 0.132824
N20   N     N_3   0.035534 0.145106 0.590434 -0.209258
H55   H     H_    0.077964 0.103449 0.602598 0.136469
H56   H     H_    0.071709 0.215711 0.663496 0.110492
Br7   Br    Br    0.564482 0.521697 0.756296 -0.450398
Br8   Br    Br    0.441322 0.688033 0.898628 -0.617417
Br9   Br    Br    0.318599 0.458077 0.706239 -0.535108
Br10  Br    Br    0.340297 0.111523 0.761231 -0.712645
Br11  Br    Br    0.985365 0.956840 0.831047 -0.544674
Br12  Br    Br    0.765714 0.854579 0.279889 -0.668145

loop_
_geom_bond_atom_site_label_1
_geom_bond_atom_site_label_2
_geom_bond_distance
_ccdc_geom_bond_type
C31   C32   1.399052 A    
C45   C46   1.401306 A    
C74   Br10  1.902768 S    
C55   H27   1.083370 S    
C13   N9    1.317860 A    
C10   C53   1.463904 S    
C4    C12   1.385566 A    
C18   H11   1.080124 S    
C82   H46   1.082121 S    
C69   H40   1.082358 S    
N6    Ni1   1.895083 S    
C64   H34   1.114696 S    
C29   C30   1.396553 A    
C52   H26   1.083488 S    
C68   H36   1.113121 S    
N19   H54   1.044494 S    
C39   C40   1.397487 A    
C25   H12   1.082813 S    
C43   C48   1.403685 A    
C75   C76   1.394657 A    
C49   H25   1.082827 S    
C63   C67   1.523816 S    
C61   C65   1.562221 S    
C3    H1    1.079066 S    
N18   H51   1.045592 S    
C82   C83   1.392917 A    
C79   C80   1.420014 A    
C83   C84   1.389731 A    
C14   H8    1.068501 S    
C40   C41   1.396871 A    
C68   H37   1.115240 S    
C58   H29   1.076636 S    
C5    C11   1.378593 A    
C26   C27   1.408537 A    
N13   Ni2   1.876577 S    
C27   C36   1.483424 S    
C24   C76   1.487143 S    
C59   H30   1.082890 S    
C28   C29   1.397344 A    
C1    N1    1.327443 A    
C67   H39   1.107452 S    
C1    Br1   1.921426 S    
C22   C32   1.477568 S    
C33   C42   1.470738 S    
C56   H28   1.080025 S    
C2    Br5   1.912540 S    
C81   C82   1.393761 A    
N2    N7    1.404610 A    
N17   H49   1.039785 S    
C17   C24   1.407752 A    
C61   C62   1.571984 S    
C50   C51   1.418067 A    
C59   C60   1.405130 A    
C4    H2    1.077647 S    
N1    N8    1.404610 A    
C84   C85   1.401303 A    
C85   C86   1.405490 A    
C34   H17   1.081751 S    
N11   N14   1.404610 A    
N14   Ni1   1.895386 S    
N8    Ni3   1.878357 S    
C46   H23   1.080408 S    
C19   C21   1.387703 A    
C39   N18   1.434639 S    
C31   H16   1.081581 S    
C75   H43   1.070870 S    
C49   C50   1.397113 A    
H33   C67   1.111045 S    
C63   H38   1.107668 S    
C19   N17   1.410440 S    
C18   N14   1.324216 A    
C9    C79   1.490285 S    
C2    C10   1.395761 A    
C28   H14   1.082916 S    
C37   C42   1.406787 A    
N4    Ni4   1.878543 S    
C52   C53   1.402576 A    
C81   H45   1.083323 S    
N16   Ni3   1.878544 S    
C44   C45   1.402938 A    
C18   C23   1.380259 A    
C14   C22   1.379594 A    
C7    C10   1.379167 A    
C57   N20   1.430903 S    
N9    Ni1   1.876872 S    
C15   H9    1.059914 S    
C77   C78   1.393117 A    
C35   C36   1.407115 A    
C41   C42   1.404268 A    
C37   C38   1.399644 A    
C64   H35   1.103192 S    
N19   H53   1.042612 S    
C3    N3    1.318466 A    
C40   H19   1.083145 S    
C32   C33   1.416790 A    
C84   Br12  1.901394 S    
C73   C74   1.398412 A    
N12   Ni4   1.878359 S    
N1    Ni1   1.876578 S    
C55   C60   1.406201 A    
C44   H22   1.083291 S    
C31   C36   1.388954 A    
C51   C60   1.477698 S    
N9    N15   1.404904 A    
C27   C28   1.403975 A    
C78   C79   1.399380 A    
N12   N13   1.404608 A    
C38   H18   1.077241 S    
C70   Br11  1.924000 S    
C47   C48   1.396694 A    
C53   C54   1.414687 A    
C8    C9    1.400465 A    
C76   C77   1.426099 A    
C20   Br3   1.926674 S    
C51   C52   1.394490 A    
N11   Ni3   1.897276 S    
C7    H5    1.067241 S    
C23   C50   1.463372 S    
C56   C57   1.396681 A    
C12   C35   1.446875 S    
C6    C12   1.376203 A    
C38   C39   1.405563 A    
C49   C54   1.371759 A    
C66   C67   1.554431 S    
C63   C65   1.544809 S    
C72   C73   1.394179 A    
N5    Ni2   1.876870 S    
C81   C86   1.406842 A    
C4    N4    1.327160 A    
C43   C44   1.394901 A    
C75   C80   1.394023 A    
C46   C47   1.395577 A    
C1    C9    1.410405 A    
N10   N16   1.404905 A    
C3    C11   1.372507 A    
C43   H21   1.080302 S    
C7    N7    1.323077 A    
C2    N2    1.343905 A    
C17   N13   1.345150 A    
C13   C21   1.376517 A    
C45   C54   1.473956 S    
C55   C56   1.400169 A    
C15   C23   1.384166 A    
C20   N16   1.333065 A    
C16   H10   1.075179 S    
C61   H31   1.105316 S    
C61   Br7   1.961672 S    
C19   N15   1.329122 A    
N3    Ni3   1.897011 S    
C8    N8    1.337702 A    
C41   H20   1.083424 S    
C71   C72   1.401946 A    
C69   C70   1.397738 A    
H32   C63   1.112671 S    
C5    H3    1.067021 S    
C73   H42   1.081691 S    
C57   C58   1.401711 A    
N2    Ni2   1.895384 S    
C64   C65   1.555140 S    
C62   Br9   1.966517 S    
C17   Br2   1.900309 S    
N18   H52   1.044726 S    
C70   C71   1.410877 A    
C64   C68   1.509774 S    
C16   C24   1.364150 A    
N4    N6    1.404903 A    
C78   H44   1.079767 S    
C14   N10   1.336353 A    
C5    N5    1.320038 A    
C48   N19   1.425605 S    
C47   H24   1.079712 S    
C37   Br6   1.922980 S    
C58   C59   1.401216 A    
C20   C22   1.400885 A    
C16   N12   1.332366 A    
C15   N11   1.323403 A    
C25   C26   1.394184 A    
C72   H41   1.083271 S    
C6    N6    1.321053 A    
C33   C34   1.378581 A    
C26   H13   1.083103 S    
N10   Ni2   1.895086 S    
C66   C68   1.555204 S    
C29   H15   1.077009 S    
N7    Ni4   1.897277 S    
N3    N5    1.404903 A    
C62   C66   1.571377 S    
C8    H6    1.073502 S    
N17   H50   1.042141 S    
C69   C74   1.395843 A    
N20   H55   1.045857 S    
C30   Br4   1.899236 S    
C13   H7    1.078293 S    
N15   Ni4   1.897008 S    
C6    H4    1.067136 S    
C34   C35   1.389948 A    
C85   H48   1.079598 S    
N20   H56   1.044555 S    
C83   H47   1.073869 S    
C11   C66   1.471555 S    
C71   C80   1.467158 S    
C25   C30   1.394317 A    
C77   C86   1.475930 S    
C62   Br8   1.937856 S    
C21   C65   1.473596 S    
