data_mof_unit_43002.cif
_audit_creation_date              2012-12-10T16:45:21-0500
_audit_creation_method            fapswitch 2.2
_symmetry_space_group_name_H-M    P1
_symmetry_Int_Tables_number       1
_space_group_crystal_system       triclinic
_cell_length_a                    7.439873
_cell_length_b                    8.750991
_cell_length_c                    15.72956
_cell_angle_alpha                 94.097247
_cell_angle_beta                  74.937735
_cell_angle_gamma                 102.398857
_cell_volume                      965.711332858

loop_
_atom_site_label
_atom_site_type_symbol
_atom_type_description
_atom_site_fract_x
_atom_site_fract_y
_atom_site_fract_z
_atom_type_partial_charge
C1    C     C_R   0.544824 0.799008 0.500408 0.835485
C2    C     C_R   0.455176 0.200991 0.499592 0.835485
C3    C     C_R   0.273480 0.418626 0.083057 -0.097776
C4    C     C_R   0.726510 0.581379 0.916944 -0.097744
C5    C     C_R   0.154641 0.354020 0.028561 0.558618
C6    C     C_R   0.845354 0.645979 0.971438 0.558618
C7    C     C_2   0.573643 0.963024 0.486717 -0.237103
C8    C     C_2   0.426356 0.036976 0.513283 -0.237102
C9    C     C_R   0.383780 0.487171 0.666309 0.851967
C10   C     C_R   0.616220 0.512828 0.333691 0.851966
C11   C     C_R   0.312218 0.460694 0.761114 -0.127088
C12   C     C_R   0.687781 0.539306 0.238886 -0.127084
C13   C     C_R   0.094136 0.314113 0.883524 -0.101375
C14   C     C_R   0.905866 0.685882 0.116474 -0.101376
C15   C     C_R   0.148284 0.348401 0.794233 -0.296753
C16   C     C_R   0.851721 0.651592 0.205765 -0.296766
C17   C     C_R   0.423451 0.534284 0.817365 0.605560
C18   C     C_R   0.576542 0.465722 0.182635 0.605546
C19   C     C_R   0.393501 0.476168 0.902370 -0.065771
C20   C     C_R   0.606490 0.523842 0.097632 -0.065775
C21   C     C_R   0.215043 0.378198 0.938151 -0.018022
C22   C     C_R   0.784951 0.621806 0.061849 -0.018026
C23   C     C_R   0.530215 0.516304 0.953933 -0.056712
C24   C     C_R   0.469774 0.483710 0.046069 -0.056706
Cu1   Cu    Cu3+1 0.322120 0.483240 0.490330 1.023763
Cu2   Cu    Cu3+1 0.677880 0.516760 0.509670 1.023765
H1    H     H_    0.939151 0.710432 0.248475 0.192801
H2    H     H_    0.060861 0.289553 0.751520 0.192805
H3    H     H_    0.959960 0.234890 0.909220 0.214332
H4    H     H_    0.040045 0.765098 0.090776 0.214331
H5    H     H_    0.001696 0.610815 0.570447 0.263020
H6    H     H_    0.998303 0.389183 0.429554 0.263020
N1    N     N_2   0.945180 0.542040 0.524240 -0.208894
N2    N     N_2   0.054820 0.457960 0.475760 -0.208896
O1    O     O_R   0.384450 0.714270 0.493720 -0.591419
O2    O     O_R   0.615550 0.285730 0.506280 -0.591418
O3    O     O_R   0.684880 0.742590 0.510050 -0.561751
O4    O     O_R   0.315120 0.257410 0.489950 -0.561751
O5    O     O_R   0.265540 0.477900 0.617090 -0.589569
O6    O     O_R   0.734460 0.522100 0.382910 -0.589573
O7    O     O_R   0.565970 0.506210 0.633420 -0.544072
O8    O     O_R   0.434030 0.493790 0.366580 -0.544078
F1    F     F_    0.973246 0.278564 0.064904 -0.657066
F2    F     F_    0.026755 0.721411 0.935093 -0.657075
F3    F     F_    0.455325 0.327739 0.208275 -0.648261
F4    F     F_    0.544675 0.672263 0.791723 -0.648261
C25   C     C_1   0.181608 0.431959 0.175566 0.447566
N3    N     N_1   0.107823 0.441989 0.249602 -0.247974
C26   C     C_1   0.818375 0.568011 0.824436 0.447551
N4    N     N_1   0.892143 0.557939 0.750404 -0.248003
C27   C     C_1   0.758299 0.034794 0.431992 0.295843
N5    N     N_1   0.905470 0.090034 0.387927 -0.239319
C28   C     C_1   0.241700 0.965206 0.568008 0.295842
N6    N     N_1   0.094530 0.909966 0.612073 -0.239324

loop_
_geom_bond_atom_site_label_1
_geom_bond_atom_site_label_2
_ccdc_geom_bond_type
C8    C28   S    
Cu1   O8    S    
C19   C23   A    
C23   C24   A    
H5    N1    S    
Cu2   O3    S    
Cu1   O4    S    
C10   O8    A    
C2    O4    A    
Cu2   N1    S    
C9    O7    A    
C25   N3    T    
C1    O3    A    
C4    C26   S    
C14   C22   A    
C16   H1    S    
C12   C18   A    
N1    N2    D    
C15   H2    S    
C13   C21   A    
C7    C8    D    
C6    F2    S    
C28   N6    T    
Cu1   O5    S    
C9    C11   S    
Cu2   O6    S    
C3    C24   A    
C10   C12   S    
Cu1   O1    S    
C2    C8    S    
C3    C25   S    
C19   C21   A    
C20   C22   A    
C18   C20   A    
C13   C15   A    
C5    F1    S    
C14   C16   A    
C2    O2    A    
C27   N5    T    
C6    C22   A    
C18   F3    S    
C20   C24   A    
C9    O5    A    
Cu1   N2    S    
C5    C21   A    
C17   F4    S    
C1    O1    A    
C4    C6    A    
C26   N4    T    
C7    C27   S    
C13   H3    S    
C4    C23   A    
Cu2   O2    S    
C11   C17   A    
C10   O6    A    
C17   C19   A    
Cu1   Cu2   S    
C1    C7    S    
C11   C15   A    
C14   H4    S    
C12   C16   A    
Cu2   O7    S    
C3    C5    A    
H6    N2    S    
