data_mof_unit_67703.cif
_audit_creation_date              2012-12-10T19:48:32-0500
_audit_creation_method            fapswitch 2.2
_symmetry_space_group_name_H-M    P1
_symmetry_Int_Tables_number       1
_space_group_crystal_system       triclinic
_cell_length_a                    11.262488
_cell_length_b                    10.902197
_cell_length_c                    9.664194
_cell_angle_alpha                 89.786832
_cell_angle_beta                  90.490074
_cell_angle_gamma                 93.849496
_cell_volume                      1183.89998955

loop_
_atom_site_label
_atom_site_type_symbol
_atom_type_description
_atom_site_fract_x
_atom_site_fract_y
_atom_site_fract_z
_atom_type_partial_charge
C1    C     C_R   0.506228 0.260981 0.500147 0.959977
C2    C     C_R   0.494105 0.739631 0.499888 0.968024
C3    C     C_R   0.869846 0.479293 0.506429 -0.020170
C4    C     C_R   0.126485 0.477397 0.495272 -0.058885
C5    C     C_R   0.942315 0.485193 0.627444 0.068478
C6    C     C_R   0.053700 0.465531 0.374559 0.090988
C7    C     C_3   0.573113 0.042928 0.604944 0.354204
C8    C     C_3   0.429070 0.960136 0.395539 0.346971
C9    C     C_3   0.608461 0.960344 0.484181 -0.324861
C10   C     C_3   0.393395 0.041769 0.516518 -0.322660
C11   C     C_3   0.492006 0.877649 0.500081 -0.313607
C12   C     C_3   0.509607 0.124239 0.500183 -0.313511
C13   C     C_3   0.455966 0.959805 0.621197 0.333515
C14   C     C_3   0.546254 0.042540 0.379334 0.340267
C15   C     C_3   0.544556 0.601893 0.047610 0.542671
C16   C     C_3   0.455468 0.398558 0.952366 0.461742
C17   C     C_3   0.438857 0.586679 0.948704 -0.084687
C18   C     C_3   0.561572 0.413734 0.051189 -0.142207
C19   C     C_3   0.605588 0.516946 0.948631 -0.162255
C20   C     C_3   0.394672 0.483787 0.051262 -0.232826
C21   C     C_R   0.262102 0.493322 0.498422 0.836596
C22   C     C_R   0.736879 0.494433 0.501809 0.855677
C23   C     C_R   0.154400 0.645487 0.066198 -0.058302
C24   C     C_R   0.854965 0.438215 0.995644 -0.189818
C25   C     C_R   0.125917 0.611973 0.201069 -0.139400
C26   C     C_R   0.871968 0.416178 0.855487 -0.130347
C27   C     C_R   0.099535 0.488550 0.236129 -0.052031
C28   C     C_R   0.899431 0.514303 0.764398 -0.042652
C29   C     C_R   0.094169 0.396966 0.132951 0.424865
C30   C     C_R   0.914438 0.635689 0.816086 0.422476
C31   C     C_R   0.120637 0.432538 0.996098 -0.205698
C32   C     C_R   0.900984 0.655446 0.957265 -0.124669
C33   C     C_R   0.152238 0.556416 0.964102 -0.250339
C34   C     C_R   0.870122 0.558366 0.045811 -0.202544
C35   C     C_R   0.928319 0.456812 0.383981 -0.123418
C36   C     C_R   0.065740 0.472139 0.619716 -0.177899
Cu1   Cu    Cu3+1 0.500030 0.499990 0.643150 1.113556
Cu2   Cu    Cu3+1 0.499970 0.500010 0.356850 1.093072
H1    H     H_    0.178203 0.586168 0.861986 0.202211
H2    H     H_    0.859694 0.578836 0.152925 0.207729
H3    H     H_    0.384087 0.657765 0.906779 0.222237
H4    H     H_    0.618041 0.343919 0.092593 0.231731
H5    H     H_    0.686521 0.547174 0.893566 0.206436
H6    H     H_    0.314019 0.459992 0.108703 0.197258
H7    H     H_    0.175207 0.740974 0.039576 0.209618
H8    H     H_    0.833224 0.362264 0.065019 0.224705
H9    H     H_    0.120812 0.682748 0.278607 0.195656
H10   H     H_    0.870885 0.322485 0.819509 0.213844
H11   H     H_    0.117934 0.364151 0.915777 0.227455
H12   H     H_    0.919310 0.746184 0.000490 0.180682
H13   H     H_    0.875227 0.436728 0.293295 0.174755
H14   H     H_    0.116213 0.463563 0.712144 0.162744
N1    N     N_3   0.500090 0.499970 0.858290 -0.237363
N2    N     N_3   0.499910 0.500030 0.141710 -0.249244
O1    O     O_R   0.500060 0.316850 0.620870 -0.499305
O2    O     O_R   0.499940 0.683150 0.379130 -0.496205
O3    O     O_R   0.500000 0.316860 0.379090 -0.565427
O4    O     O_R   0.500000 0.683140 0.620910 -0.540772
O5    O     O_R   0.319670 0.500010 0.620890 -0.560418
O6    O     O_R   0.680330 0.499990 0.379110 -0.559062
O7    O     O_R   0.319620 0.500010 0.379110 -0.586705
O8    O     O_R   0.680380 0.499990 0.620890 -0.583685
S1    S     S_3+6 0.624186 0.740621 0.096859 0.084789
O9    O     O_2   0.541699 0.833148 0.143179 -0.135065
O10   O     O_2   0.711175 0.717860 0.210673 -0.307215
O11   O     O_3   0.695984 0.795766 0.956402 -0.487066
H15   H     H_    0.757750 0.856207 0.992467 0.400345
S2    S     S_3+6 0.374348 0.262433 0.899005 0.108568
O12   O     O_2   0.289554 0.290065 0.784552 -0.267899
O13   O     O_2   0.456836 0.170096 0.851827 -0.143333
O14   O     O_3   0.297534 0.203610 0.033495 -0.415173
H16   H     H_    0.346904 0.226252 0.115919 0.368607
S3    S     S_3+6 0.059455 0.239353 0.172469 0.008940
O15   O     O_2   0.047798 0.164269 0.042289 -0.250607
O16   O     O_2   0.157898 0.194619 0.260827 -0.244986
O17   O     O_3   0.932463 0.218668 0.261189 -0.535155
H17   H     H_    0.938800 0.140464 0.312462 0.393482
S4    S     S_3+6 0.957781 0.766092 0.714970 0.019792
O18   O     O_2   0.861782 0.854182 0.725568 -0.209871
O19   O     O_2   0.069172 0.826760 0.776935 -0.308331
O20   O     O_3   0.980647 0.735696 0.547081 -0.514709
H18   H     H_    0.068104 0.743455 0.535182 0.369360
C37   C     C_2   0.729296 0.912967 0.464013 0.752217
H19   H     H_    0.804471 0.976167 0.439138 0.120708
O21   O     O_2   0.744027 0.803615 0.474663 -0.483894
C38   C     C_2   0.271303 0.086341 0.537302 0.722714
H20   H     H_    0.198061 0.021328 0.564503 0.147975
O22   O     O_2   0.253227 0.194721 0.524079 -0.521250
S5    S     S_3+6 0.684763 0.101134 0.727798 0.067046
O23   O     O_2   0.668861 0.232458 0.764038 -0.290640
O24   O     O_2   0.675408 0.025592 0.857281 -0.172273
O25   O     O_3   0.821917 0.095775 0.661934 -0.550773
H21   H     H_    0.876885 0.108968 0.741853 0.392906
S6    S     S_3+6 0.319847 0.908666 0.268308 0.039596
O26   O     O_2   0.340541 0.979683 0.136926 -0.165511
O27   O     O_2   0.331072 0.775239 0.240039 -0.307198
O28   O     O_3   0.180697 0.926460 0.322660 -0.569702
H22   H     H_    0.130055 0.917542 0.238502 0.383629
S7    S     S_3+6 0.375520 0.900019 0.767826 0.077413
O29   O     O_2   0.306337 0.783366 0.725827 -0.360156
O30   O     O_2   0.461757 0.875030 0.881376 -0.156239
O31   O     O_3   0.278310 0.998451 0.824066 -0.421246
H23   H     H_    0.236704 0.955713 0.902047 0.418533
S8    S     S_3+6 0.628460 0.102776 0.233643 0.059324
O32   O     O_2   0.545829 0.124091 0.115265 -0.186790
O33   O     O_2   0.693215 0.221663 0.276031 -0.344056
O34   O     O_3   0.730145 0.007067 0.183087 -0.506698
H24   H     H_    0.780744 0.055276 0.116314 0.400724

loop_
_geom_bond_atom_site_label_1
_geom_bond_atom_site_label_2
_ccdc_geom_bond_type
S1    O10   D    
C23   H7    S    
C27   C29   A    
S3    O15   D    
S8    O33   D    
O28   H22   S    
C15   C19   S    
C33   H1    S    
C34   H2    S    
C24   C26   A    
C21   O5    A    
C18   H4    S    
C22   O6    A    
S4    O19   D    
C29   S3    S    
Cu2   O3    S    
C5    C36   A    
C17   C20   S    
C6    C35   A    
C15   C17   S    
C18   C19   S    
C16   N1    S    
S7    O29   D    
S2    O12   D    
C23   C33   A    
O34   H24   S    
C31   C33   A    
C16   S2    S    
S5    O24   D    
C25   H9    S    
C21   O7    A    
Cu1   O4    S    
C36   H14   S    
C6    C27   S    
C26   H10   S    
Cu2   O7    S    
Cu1   N1    S    
C19   N1    S    
O11   H15   S    
S1    O11   S    
S3    O16   D    
S6    O26   D    
C1    C12   S    
C31   H11   S    
C2    C11   S    
S8    O32   D    
C20   H6    S    
C19   H5    S    
O20   H18   S    
C7    C12   S    
C8    C11   S    
C15   N2    S    
C8    S6    S    
C4    C36   A    
C4    C6    A    
C38   H20   S    
S6    O28   S    
C24   C34   A    
C30   S4    S    
C13   S7    S    
C9    C14   S    
Cu1   Cu2   S    
C1    O3    A    
C22   O8    A    
C5    C28   S    
C14   S8    S    
C37   H19   S    
Cu2   N2    S    
C3    C35   A    
C16   C20   S    
C16   C18   S    
O17   H17   S    
S5    O25   S    
S6    O27   D    
C9    C11   S    
C32   H12   S    
Cu1   O5    S    
C10   C12   S    
C9    C37   S    
Cu2   O6    S    
C20   N2    S    
C37   O21   D    
C12   C14   S    
C35   H13   S    
S3    O17   S    
C17   N1    S    
C7    C9    S    
C10   C38   S    
C8    C14   S    
S7    O30   D    
S4    O18   D    
C3    C5    A    
C10   C13   S    
C2    O4    A    
C25   C27   A    
C26   C28   A    
C15   S1    S    
C24   H8    S    
C28   C30   A    
C1    O1    A    
O14   H16   S    
C29   C31   A    
C2    O2    A    
C30   C32   A    
C4    C21   S    
C11   C13   S    
S4    O20   S    
S2    O14   S    
O25   H21   S    
C38   O22   D    
C23   C25   A    
O31   H23   S    
C17   H3    S    
C18   N2    S    
S1    O9    D    
Cu1   O1    S    
C7    C13   S    
S7    O31   S    
Cu2   O2    S    
C8    C10   S    
S2    O13   D    
Cu1   O8    S    
C3    C22   S    
S5    O23   D    
S8    O34   S    
C32   C34   A    
C7    S5    S    
