data_mof_unit_65378.cif
_audit_creation_date              2012-12-10T17:40:48-0500
_audit_creation_method            fapswitch 2.2
_symmetry_space_group_name_H-M    P1
_symmetry_Int_Tables_number       1
_space_group_crystal_system       triclinic
_cell_length_a                    37.46504
_cell_length_b                    30.415369
_cell_length_c                    21.731355
_cell_angle_alpha                 89.524277
_cell_angle_beta                  54.129866
_cell_angle_gamma                 89.696573
_cell_volume                      20066.063951

loop_
_atom_site_label
_atom_site_type_symbol
_atom_type_description
_atom_site_fract_x
_atom_site_fract_y
_atom_site_fract_z
_atom_type_partial_charge
C1    C     C_R   0.085101 0.499978 0.415043 0.769124
C2    C     C_R   0.914899 0.500001 0.584968 0.768325
C3    C     C_R   0.585086 0.999984 0.415125 0.769616
C4    C     C_R   0.414898 0.000001 0.584953 0.768587
C5    C     C_R   0.039913 0.484197 0.675828 0.078958
C6    C     C_R   0.960300 0.483754 0.324244 0.079381
C7    C     C_R   0.538939 0.018872 0.676370 0.083371
C8    C     C_R   0.460780 0.982329 0.323694 0.079690
C9    C     C_R   0.002297 0.499875 0.682807 -0.070019
C10   C     C_R   0.997302 0.500790 0.317544 -0.071432
C11   C     C_R   0.502926 0.999560 0.682321 -0.074413
C12   C     C_R   0.497103 0.000764 0.317702 -0.073164
C13   C     C_R   0.965124 0.513113 0.752850 -0.208810
C14   C     C_R   0.034008 0.515250 0.247644 -0.209051
C15   C     C_R   0.467130 0.983285 0.751499 -0.205100
C16   C     C_R   0.533190 0.016708 0.248397 -0.206989
C17   C     C_R   0.964778 0.510827 0.816810 -0.196925
C18   C     C_R   0.034547 0.512701 0.183552 -0.199199
C19   C     C_R   0.466519 0.986057 0.815593 -0.195819
C20   C     C_R   0.533831 0.014189 0.184199 -0.201187
C21   C     C_R   0.000670 0.492929 0.812798 -0.075479
C22   C     C_R   0.999375 0.493439 0.187320 -0.073219
C23   C     C_R   0.500718 0.007062 0.812707 -0.080483
C24   C     C_R   0.499446 0.993576 0.187198 -0.070428
C25   C     C_R   0.202777 0.462496 0.279734 -0.170153
C26   C     C_R   0.797266 0.462440 0.720736 -0.169637
C27   C     C_R   0.702777 0.963181 0.277917 -0.167087
C28   C     C_R   0.297255 0.962425 0.720589 -0.170438
C29   C     C_R   0.156892 0.462395 0.325642 -0.179340
C30   C     C_R   0.843151 0.462335 0.674791 -0.179799
C31   C     C_R   0.656897 0.963005 0.323832 -0.174474
C32   C     C_R   0.343141 0.962310 0.674644 -0.184471
C33   C     C_R   0.133434 0.499905 0.367437 -0.034300
C34   C     C_R   0.866566 0.499966 0.632643 -0.034171
C35   C     C_R   0.633392 0.999953 0.367612 -0.027694
C36   C     C_R   0.366563 0.999972 0.632628 -0.032329
C37   C     C_R   0.156524 0.537296 0.363479 -0.186203
C38   C     C_R   0.843433 0.537496 0.636302 -0.185656
C39   C     C_R   0.656394 0.036834 0.365710 -0.194139
C40   C     C_R   0.343435 0.037545 0.636433 -0.183082
C41   C     C_R   0.202416 0.537136 0.318453 -0.163573
C42   C     C_R   0.797537 0.537338 0.681341 -0.163273
C43   C     C_R   0.702288 0.036735 0.320639 -0.163704
C44   C     C_R   0.297539 0.037399 0.681476 -0.163164
C45   C     C_R   0.000085 0.499968 0.618548 0.788229
C46   C     C_R   0.999732 0.500273 0.381616 0.788308
C47   C     C_R   0.500321 0.999764 0.618361 0.787210
C48   C     C_R   0.499587 0.000270 0.381749 0.788007
C49   C     C_R   0.225788 0.499837 0.275958 0.100057
C50   C     C_R   0.774214 0.499907 0.724170 0.099900
C51   C     C_R   0.725736 0.000023 0.276087 0.102804
C52   C     C_R   0.274209 0.999936 0.724164 0.100585
C53   C     C_R   0.297291 0.513129 0.256450 -0.183746
C54   C     C_R   0.702714 0.513240 0.743360 -0.184138
C55   C     C_R   0.797288 0.012484 0.256883 -0.181952
C56   C     C_R   0.202706 0.013433 0.743435 -0.183821
C57   C     C_R   0.343193 0.512800 0.210355 -0.142462
C58   C     C_R   0.656812 0.512845 0.789413 -0.141482
C59   C     C_R   0.843190 0.012098 0.210757 -0.141708
C60   C     C_R   0.156803 0.013051 0.789493 -0.142797
C61   C     C_R   0.366549 0.499977 0.134100 -0.023445
C62   C     C_R   0.633456 0.499921 0.865909 -0.022673
C63   C     C_R   0.866531 0.000070 0.134124 -0.023333
C64   C     C_R   0.133451 0.999981 0.865917 -0.023272
C65   C     C_R   0.343319 0.487208 0.104809 -0.191303
C66   C     C_R   0.656692 0.487080 0.895469 -0.191040
C67   C     C_R   0.843269 0.988212 0.104466 -0.190074
C68   C     C_R   0.156686 0.987000 0.895411 -0.190889
C69   C     C_R   0.297435 0.486881 0.151251 -0.161129
C70   C     C_R   0.702577 0.486793 0.849066 -0.160349
C71   C     C_R   0.797387 0.987984 0.150893 -0.161270
C72   C     C_R   0.202571 0.986704 0.849003 -0.161126
C73   C     C_R   0.274172 0.499957 0.227246 0.099647
C74   C     C_R   0.725834 0.500000 0.772845 0.099379
C75   C     C_R   0.774135 0.000205 0.227306 0.099387
C76   C     C_R   0.225828 0.000043 0.772846 0.099572
C77   C     C_R   0.999927 0.633212 0.000360 -0.242287
C78   C     C_R   0.499656 0.133449 0.002206 -0.220784
C79   C     C_R   0.969491 0.702656 0.995172 -0.250300
C80   C     C_R   0.029950 0.702153 0.006839 -0.251131
C81   C     C_R   0.532687 0.202182 0.001460 -0.242429
C82   C     C_R   0.467505 0.203264 0.003213 -0.290680
C83   C     C_R   0.500053 0.725691 0.995106 0.041562
C84   C     C_R   0.999960 0.225654 0.999265 0.044402
C85   C     C_R   0.969842 0.656726 0.993541 0.440416
C86   C     C_R   0.029860 0.656193 0.007643 0.440807
C87   C     C_R   0.532078 0.156274 0.003073 0.398308
C88   C     C_R   0.467313 0.157046 0.001449 0.483628
C89   C     C_R   0.999669 0.725601 0.001177 -0.046879
C90   C     C_R   0.500413 0.225822 0.001888 -0.032710
C91   C     C_R   0.000005 0.414930 0.000001 0.849035
C92   C     C_R   0.500070 0.914972 0.997863 0.811144
C93   C     C_R   0.000218 0.496857 0.880760 0.792223
C94   C     C_R   0.999801 0.497028 0.119299 0.794491
C95   C     C_R   0.500228 0.003070 0.880714 0.820977
C96   C     C_R   0.499816 0.997112 0.119270 0.796750
C97   C     C_R   0.494887 0.297458 0.951620 -0.164615
C98   C     C_R   0.506946 0.297417 0.049700 -0.168456
C99   C     C_R   0.003109 0.797078 0.053185 -0.165293
C100  C     C_R   0.996402 0.797573 0.948837 -0.166002
C101  C     C_R   0.999986 0.584980 0.000096 0.850973
C102  C     C_R   0.499916 0.085048 0.001192 0.908929
C103  C     C_R   0.500142 0.414921 0.000097 0.771598
C104  C     C_R   0.999977 0.914897 0.000229 0.771711
C105  C     C_R   0.414914 0.499921 0.085281 0.826942
C106  C     C_R   0.585088 0.499867 0.914722 0.829795
C107  C     C_R   0.914908 0.999924 0.085287 0.828904
C108  C     C_R   0.085086 0.999909 0.914723 0.827526
C109  C     C_R   0.494823 0.343250 0.951118 -0.191088
C110  C     C_R   0.506588 0.343245 0.049600 -0.188188
C111  C     C_R   0.003101 0.842919 0.053084 -0.189573
C112  C     C_R   0.996575 0.843377 0.948492 -0.188405
C113  C     C_R   0.499990 0.584880 0.999746 0.901139
C114  C     C_R   0.999993 0.084871 0.999783 0.900954
C115  C     C_R   0.037590 0.297548 0.980323 -0.159860
C116  C     C_R   0.962419 0.297917 0.018662 -0.160442
C117  C     C_R   0.537802 0.797528 0.975308 -0.158064
C118  C     C_R   0.463000 0.798058 0.011894 -0.157980
C119  C     C_R   0.500098 0.633074 0.998760 -0.182085
C120  C     C_R   0.999912 0.133046 0.999367 -0.182020
C121  C     C_R   0.037763 0.343322 0.979662 -0.163879
C122  C     C_R   0.962236 0.343673 0.019858 -0.150768
C123  C     C_R   0.538046 0.843276 0.974687 -0.190750
C124  C     C_R   0.462902 0.843871 0.013034 -0.149117
C125  C     C_R   0.999990 0.366697 0.999923 -0.072839
C126  C     C_R   0.500402 0.866782 0.994576 -0.049889
C127  C     C_R   0.500902 0.274221 0.000947 0.165014
C128  C     C_R   0.999703 0.774062 0.001122 0.165318
C129  C     C_R   0.500504 0.366558 0.000309 -0.025595
C130  C     C_R   0.999884 0.866487 0.000658 -0.026829
C131  C     C_R   0.000000 0.274316 0.999377 0.111971
C132  C     C_R   0.500303 0.774366 0.993834 0.116538
C133  C     C_R   0.461853 0.702706 0.050076 -0.182057
C134  C     C_R   0.538232 0.702233 0.941918 -0.185899
C135  C     C_R   0.961852 0.202384 0.053720 -0.182278
C136  C     C_R   0.038026 0.202490 0.944779 -0.182666
C137  C     C_R   0.461015 0.656692 0.052646 -0.032562
C138  C     C_R   0.539131 0.656264 0.943014 -0.029745
C139  C     C_R   0.960932 0.156396 0.054471 -0.032306
C140  C     C_R   0.038884 0.156496 0.944122 -0.031732
C141  C     C_R   0.079747 0.476392 0.604020 -0.162192
C142  C     C_R   0.920732 0.474641 0.395919 -0.161462
C143  C     C_R   0.577682 0.030159 0.604878 -0.158618
C144  C     C_R   0.421585 0.971698 0.394988 -0.160975
C145  C     C_R   0.115816 0.458538 0.598325 -0.159357
C146  C     C_R   0.885398 0.455383 0.401335 -0.159185
C147  C     C_R   0.612191 0.051209 0.599555 -0.168969
C148  C     C_R   0.387014 0.951130 0.399623 -0.159386
C149  C     C_R   0.111385 0.444203 0.663390 -0.185787
C150  C     C_R   0.890429 0.441038 0.336089 -0.184517
C151  C     C_R   0.607270 0.064686 0.665009 -0.178234
C152  C     C_R   0.392556 0.937086 0.333808 -0.184522
C153  C     C_R   0.071395 0.449867 0.735211 0.005571
C154  C     C_R   0.930200 0.448081 0.264361 0.004474
C155  C     C_R   0.568472 0.055324 0.736946 0.002962
C156  C     C_R   0.431996 0.945712 0.262350 0.000761
C157  C     C_R   0.037467 0.475880 0.742375 0.044122
C158  C     C_R   0.963130 0.475326 0.257565 0.043739
C159  C     C_R   0.536087 0.027047 0.743291 0.031218
C160  C     C_R   0.463907 0.974097 0.256681 0.043504
Cu1   Cu    Cu3+1 1.000000 0.544050 0.500000 0.947325
Cu2   Cu    Cu3+1 0.500000 0.044050 0.500000 0.952818
Cu3   Cu    Cu3+1 0.000000 0.455950 0.500000 0.969232
Cu4   Cu    Cu3+1 0.500000 0.955950 0.500000 0.961607
Cu5   Cu    Cu3+1 0.955950 0.499980 0.044050 1.022077
Cu6   Cu    Cu3+1 0.044050 0.499980 0.955950 1.024206
Cu7   Cu    Cu3+1 0.455950 0.999980 0.044050 1.020387
Cu8   Cu    Cu3+1 0.544050 0.999980 0.955950 1.019860
Cu9   Cu    Cu3+1 0.500000 0.500010 0.061800 0.987336
Cu10  Cu    Cu3+1 0.500000 0.500010 0.938200 0.986173
Cu11  Cu    Cu3+1 1.000000 0.000010 0.061800 0.986804
Cu12  Cu    Cu3+1 0.000000 0.000010 0.938200 0.987220
H1    H     H_    0.139127 0.566520 0.395593 0.153692
H2    H     H_    0.860801 0.566815 0.603917 0.153350
H3    H     H_    0.638915 0.065571 0.399517 0.150110
H4    H     H_    0.360806 0.066892 0.604163 0.153336
H5    H     H_    0.219713 0.566320 0.315859 0.135449
H6    H     H_    0.780197 0.566612 0.683671 0.135312
H7    H     H_    0.719519 0.065531 0.319635 0.133769
H8    H     H_    0.280206 0.066709 0.683921 0.135452
H9    H     H_    0.279797 0.523108 0.315150 0.134636
H10   H     H_    0.720212 0.523316 0.684481 0.134839
H11   H     H_    0.779825 0.021781 0.315896 0.134286
H12   H     H_    0.220202 0.023618 0.684608 0.134943
H13   H     H_    0.360374 0.522944 0.234179 0.174632
H14   H     H_    0.639629 0.523036 0.765370 0.174508
H15   H     H_    0.860379 0.021544 0.234899 0.173875
H16   H     H_    0.139615 0.023359 0.765514 0.174807
H17   H     H_    0.360589 0.477061 0.046245 0.152543
H18   H     H_    0.639423 0.476847 0.954218 0.152695
H19   H     H_    0.860506 0.978712 0.045601 0.153341
H20   H     H_    0.139417 0.976657 0.954108 0.152402
H21   H     H_    0.280057 0.476908 0.127687 0.133892
H22   H     H_    0.719964 0.476749 0.872822 0.134247
H23   H     H_    0.780005 0.978729 0.127003 0.133783
H24   H     H_    0.219958 0.976548 0.872707 0.133156
H25   H     H_    0.490105 0.360346 0.912470 0.155497
H26   H     H_    0.511140 0.360368 0.088026 0.155135
H27   H     H_    0.005656 0.859843 0.094000 0.155302
H28   H     H_    0.994089 0.860635 0.907354 0.156041
H29   H     H_    0.945507 0.720335 0.991784 0.162591
H30   H     H_    0.053871 0.719453 0.010429 0.162177
H31   H     H_    0.558511 0.219318 0.999837 0.163978
H32   H     H_    0.441721 0.221823 0.006492 0.149539
H33   H     H_    0.490597 0.280141 0.913010 0.131400
H34   H     H_    0.511275 0.280073 0.088643 0.129592
H35   H     H_    0.005249 0.779588 0.094541 0.129251
H36   H     H_    0.994240 0.780494 0.907587 0.129412
H37   H     H_    0.066750 0.280412 0.966797 0.145172
H38   H     H_    0.933262 0.281096 0.031979 0.144458
H39   H     H_    0.566742 0.780363 0.962725 0.143236
H40   H     H_    0.433923 0.781246 0.024832 0.139426
H41   H     H_    0.936421 0.525698 0.757807 0.143692
H42   H     H_    0.062269 0.528766 0.242825 0.144403
H43   H     H_    0.439595 0.968204 0.755779 0.143860
H44   H     H_    0.560907 0.031306 0.244110 0.145060
H45   H     H_    0.067161 0.360416 0.964720 0.179687
H46   H     H_    0.932846 0.361041 0.034919 0.177273
H47   H     H_    0.567248 0.860233 0.960978 0.166893
H48   H     H_    0.433610 0.861361 0.027883 0.161642
H49   H     H_    0.432631 0.720880 0.092474 0.174632
H50   H     H_    0.567474 0.719982 0.898131 0.171262
H51   H     H_    0.932729 0.220297 0.097111 0.174500
H52   H     H_    0.067178 0.220500 0.901377 0.173842
H53   H     H_    0.083444 0.484599 0.552016 0.127734
H54   H     H_    0.916664 0.482904 0.448035 0.128322
H55   H     H_    0.581854 0.022163 0.552593 0.128799
H56   H     H_    0.417188 0.979781 0.447442 0.129440
H57   H     H_    0.146332 0.452982 0.542978 0.152665
H58   H     H_    0.855075 0.448816 0.456589 0.152757
H59   H     H_    0.641868 0.059397 0.544343 0.147341
H60   H     H_    0.356967 0.943394 0.454604 0.152188
H61   H     H_    0.137979 0.425362 0.657026 0.167779
H62   H     H_    0.864557 0.421233 0.342204 0.168354
H63   H     H_    0.632753 0.085091 0.659066 0.176224
H64   H     H_    0.367417 0.916392 0.339134 0.168315
H65   H     H_    0.936330 0.523597 0.869629 0.164499
H66   H     H_    0.062596 0.526232 0.130770 0.163408
H67   H     H_    0.439253 0.971074 0.867696 0.161364
H68   H     H_    0.561319 0.028794 0.131939 0.159634
H69   H     H_    0.220351 0.433310 0.247668 0.133443
H70   H     H_    0.779724 0.433161 0.753083 0.134283
H71   H     H_    0.720385 0.934422 0.244316 0.133173
H72   H     H_    0.279708 0.933121 0.752828 0.132887
H73   H     H_    0.139801 0.433179 0.327727 0.155800
H74   H     H_    0.860279 0.433016 0.672951 0.155959
H75   H     H_    0.639835 0.934207 0.324360 0.153890
H76   H     H_    0.360263 0.932958 0.672698 0.152846
O1    O     O_R   0.064270 0.537190 0.435730 -0.588287
O2    O     O_R   0.935730 0.537190 0.564270 -0.588113
O3    O     O_R   0.564270 0.037190 0.435730 -0.590585
O4    O     O_R   0.435730 0.037190 0.564270 -0.585360
O5    O     O_R   0.435730 0.500010 0.116460 -0.567004
O6    O     O_R   0.564270 0.500010 0.883540 -0.566608
O7    O     O_R   0.935730 0.000010 0.116460 -0.566697
O8    O     O_R   0.064270 0.000010 0.883540 -0.566852
O9    O     O_R   0.435720 0.500010 0.012080 -0.598663
O10   O     O_R   0.564280 0.500010 0.987920 -0.598675
O11   O     O_R   0.935720 0.000010 0.012080 -0.598692
O12   O     O_R   0.064280 0.000010 0.987920 -0.598525
O13   O     O_R   0.500010 0.564280 0.052190 -0.552822
O14   O     O_R   0.499990 0.564280 0.947810 -0.554731
O15   O     O_R   0.000010 0.064280 0.052190 -0.553791
O16   O     O_R   0.999990 0.064280 0.947810 -0.553124
O17   O     O_R   0.064270 0.462800 0.435730 -0.586868
O18   O     O_R   0.935730 0.462800 0.564270 -0.587415
O19   O     O_R   0.564270 0.962800 0.435730 -0.583978
O20   O     O_R   0.435730 0.962800 0.564270 -0.590804
O21   O     O_R   0.000010 0.537190 0.590170 -0.585576
O22   O     O_R   0.999990 0.537190 0.409830 -0.585998
O23   O     O_R   0.500010 0.037190 0.590170 -0.578554
O24   O     O_R   0.499990 0.037190 0.409830 -0.585529
O25   O     O_R   0.000000 0.462800 0.590170 -0.573195
O26   O     O_R   1.000000 0.462800 0.409830 -0.572814
O27   O     O_R   0.500000 0.962800 0.590170 -0.581433
O28   O     O_R   0.500000 0.962800 0.409830 -0.573586
O29   O     O_R   0.962800 0.435720 0.037190 -0.565753
O30   O     O_R   0.037200 0.435720 0.962810 -0.564746
O31   O     O_R   0.462800 0.935720 0.037190 -0.565284
O32   O     O_R   0.537200 0.935720 0.962810 -0.589675
O33   O     O_R   0.962790 0.499990 0.947030 -0.580405
O34   O     O_R   0.037210 0.499990 0.052970 -0.578180
O35   O     O_R   0.462790 0.999990 0.947030 -0.584338
O36   O     O_R   0.537210 0.999990 0.052970 -0.578094
O37   O     O_R   0.037190 0.500000 0.872640 -0.596909
O38   O     O_R   0.962810 0.500000 0.127360 -0.597461
O39   O     O_R   0.537190 1.000000 0.872640 -0.594433
O40   O     O_R   0.462810 1.000000 0.127360 -0.599294
O41   O     O_R   0.962790 0.564250 0.037210 -0.550775
O42   O     O_R   0.037210 0.564250 0.962790 -0.551057
O43   O     O_R   0.462790 0.064250 0.037210 -0.548176
O44   O     O_R   0.537210 0.064250 0.962790 -0.542819
O45   O     O_R   0.500000 0.435740 0.052190 -0.596997
O46   O     O_R   0.500000 0.435740 0.947810 -0.596451
O47   O     O_R   1.000000 0.935740 0.052190 -0.596910
O48   O     O_R   0.000000 0.935740 0.947810 -0.596763
O49   O     O_3   0.939573 0.634988 0.987886 -0.553429
C161  C     C_3   0.957991 0.629444 0.910284 -0.293926
H77   H     H_    0.988496 0.609135 0.881436 0.142131
H78   H     H_    0.964842 0.661710 0.880779 0.153139
H79   H     H_    0.933880 0.611758 0.905567 0.188169
O50   O     O_3   0.060233 0.633924 0.012934 -0.553437
C162  C     C_3   0.042141 0.627947 0.090446 -0.295305
H80   H     H_    0.066490 0.610180 0.094870 0.187294
H81   H     H_    0.011723 0.607544 0.119661 0.143120
H82   H     H_    0.035255 0.660025 0.119771 0.153106
O51   O     O_3   0.564465 0.133869 0.002499 -0.553480
C163  C     C_3   0.550039 0.127860 0.078233 -0.288556
H83   H     H_    0.519544 0.107573 0.111117 0.136303
H84   H     H_    0.544693 0.159929 0.106818 0.153627
H85   H     H_    0.575997 0.109957 0.077965 0.187392
O52   O     O_3   0.434735 0.133977 0.003214 -0.548110
C164  C     C_3   0.427853 0.151149 0.950335 -0.237235
H86   H     H_    0.413008 0.125021 0.936694 0.192799
H87   H     H_    0.459070 0.161453 0.895883 0.174333
H88   H     H_    0.404097 0.178897 0.975570 0.139926
C165  C     C_2   0.418295 0.635146 0.111761 0.815159
O53   O     O_2   0.417232 0.598111 0.134894 -0.610380
O54   O     O_R   0.378800 0.658000 0.142405 -0.766608
H89   H     H_    0.352005 0.640205 0.182137 0.336061
C166  C     C_2   0.581903 0.634364 0.885570 0.814116
O55   O     O_2   0.583039 0.597013 0.864357 -0.611682
O56   O     O_R   0.621372 0.657264 0.854194 -0.767381
H90   H     H_    0.648218 0.639215 0.815702 0.335664
C167  C     C_2   0.918205 0.134658 0.113084 0.815943
O57   O     O_2   0.917092 0.097201 0.134770 -0.610375
O58   O     O_R   0.878747 0.157805 0.144913 -0.765715
H91   H     H_    0.851943 0.139847 0.184151 0.336259
C168  C     C_2   0.081555 0.134820 0.885545 0.815025
O59   O     O_2   0.082548 0.097755 0.863448 -0.610495
O60   O     O_R   0.121084 0.157606 0.854168 -0.765862
H92   H     H_    0.147846 0.139731 0.814886 0.336020
C169  C     C_2   0.061560 0.417974 0.794769 0.841672
O61   O     O_2   0.090041 0.407163 0.802955 -0.590931
O62   O     O_R   0.020676 0.396944 0.836247 -0.782749
H93   H     H_    0.020687 0.369412 0.862591 0.332255
C170  C     C_2   0.941150 0.416703 0.204182 0.839275
O63   O     O_2   0.912968 0.404763 0.196212 -0.591215
O64   O     O_R   0.982943 0.397479 0.161652 -0.782398
H94   H     H_    0.984135 0.370244 0.134184 0.331083
C171  C     C_2   0.559476 0.083284 0.799888 0.832430
O65   O     O_2   0.522094 0.096494 0.847014 -0.640486
O66   O     O_R   0.594260 0.097492 0.801814 -0.750331
H95   H     H_    0.584495 0.119106 0.844187 0.349368
C172  C     C_2   0.443930 0.915132 0.200613 0.842551
O67   O     O_2   0.415978 0.902086 0.192819 -0.591078
O68   O     O_R   0.486577 0.897900 0.156132 -0.779260
H96   H     H_    0.488925 0.871233 0.126531 0.331102

loop_
_geom_bond_atom_site_label_1
_geom_bond_atom_site_label_2
_ccdc_geom_bond_type
C124  H48   S    
C133  C137  A    
C55   C59   A    
C58   H14   S    
C22   C94   S    
C142  C146  A    
C77   C101  S    
C105  O5    A    
C136  C140  A    
C4    C36   S    
C170  O63   D    
C100  H36   S    
C162  H81   S    
C169  O61   D    
C135  C139  A    
C46   O26   A    
C32   H76   S    
Cu5   O41   S    
Cu11  O12   S    
C154  C158  A    
C26   C50   A    
Cu3   O25   S    
Cu1   O2    S    
C7    C159  A    
C29   C33   A    
C13   H41   S    
C117  C132  A    
C149  C153  A    
C80   C86   A    
C54   C74   A    
C109  H25   S    
C152  C156  A    
C163  H84   S    
C79   H29   S    
C70   C74   A    
C151  C155  A    
C61   C105  S    
C57   H13   S    
C163  H85   S    
C141  C145  A    
C94   O34   A    
C2    C34   S    
C60   H16   S    
C41   C49   A    
C101  O42   A    
Cu1   Cu3   S    
Cu2   Cu4   S    
C25   C29   A    
Cu4   O19   S    
C88   O52   S    
C27   C31   A    
O56   H90   S    
C28   C32   A    
C4    O4    A    
C15   H43   S    
C62   C66   A    
C123  C126  A    
C56   H12   S    
C150  H62   S    
C17   C21   A    
C99   H35   S    
Cu12  O16   S    
C91   O30   A    
C19   C23   A    
C156  C172  S    
Cu9   O5    S    
Cu7   O40   S    
Cu8   O39   S    
C162  H80   S    
C16   C20   A    
C92   C126  S    
Cu9   O13   S    
C96   O36   A    
Cu11  O15   S    
C99   C128  A    
C62   C106  S    
C81   C90   A    
C98   C127  A    
C65   H17   S    
Cu8   O44   S    
C95   O35   A    
C49   C73   S    
C4    O20   A    
C161  H77   S    
Cu7   O31   S    
C79   C85   A    
Cu8   O32   S    
C103  O46   A    
C155  C171  S    
Cu12  O8    S    
C30   H74   S    
Cu6   O37   S    
C143  H55   S    
C72   H24   S    
C39   C43   A    
C57   C61   A    
C151  H63   S    
C152  H64   S    
Cu1   O22   S    
C135  H51   S    
C59   C63   A    
C60   C64   A    
C24   C96   S    
C66   C70   A    
C21   C93   S    
C42   H6    S    
C23   C95   S    
C154  C170  S    
O62   H93   S    
C61   C65   A    
O58   H91   S    
C166  O55   D    
C98   H34   S    
C28   H72   S    
C112  H28   S    
Cu7   O35   S    
C102  O43   A    
Cu3   O26   S    
C78   C87   A    
C84   C135  A    
C115  C121  A    
Cu4   O27   S    
C7    C143  A    
C104  O47   A    
C5    C9    A    
C64   C68   A    
C41   H5    S    
C3    O3    A    
C50   C74   S    
C1    O1    A    
C38   H2    S    
C147  H59   S    
C2    O18   A    
C45   O25   A    
O52   C164  S    
C110  C129  A    
C107  O11   A    
C167  O58   S    
C9    C13   A    
C5    C141  A    
C85   O49   S    
C86   O50   S    
C23   C159  A    
C59   H15   S    
C120  C140  A    
C67   C71   A    
C55   C75   A    
C44   C52   A    
C77   C85   A    
C46   O22   A    
C146  C150  A    
C168  O60   S    
C11   C15   A    
C137  C165  S    
C6    C158  A    
C27   C51   A    
C64   C108  S    
C171  O66   S    
Cu2   O23   S    
C30   C34   A    
C155  C159  A    
C12   C16   A    
C156  C160  A    
C39   H3    S    
C10   C14   A    
C40   H4    S    
C20   H68   S    
C149  H61   S    
C92   O32   A    
C147  C151  A    
C121  C125  A    
Cu2   O3    S    
C19   H67   S    
C97   C109  A    
C71   H23   S    
C136  H52   S    
C3    C35   S    
C8    C12   A    
C99   C111  A    
C107  O7    A    
C168  O59   D    
Cu12  O11   S    
C42   C50   A    
C48   O28   A    
C26   C30   A    
Cu3   O18   S    
C109  C129  A    
Cu9   O10   S    
C6    C142  A    
C95   O39   A    
C124  C126  A    
C123  H47   S    
C18   C22   A    
C119  C138  A    
C121  H45   S    
C148  C152  A    
C52   C76   S    
C27   H71   S    
C25   H69   S    
C13   C17   A    
Cu10  O14   S    
C122  C125  A    
C93   O37   A    
C82   C88   A    
C66   H18   S    
C113  O14   A    
C37   C41   A    
C145  C149  A    
C79   C89   A    
C118  C132  A    
C47   O23   A    
C40   C44   A    
C48   O24   A    
C104  C130  S    
C112  C130  A    
C18   H66   S    
C58   C62   A    
C139  C167  S    
C9    C45   S    
C98   C110  A    
C78   C102  S    
C106  O6    A    
C11   C47   S    
C12   C48   S    
C114  O16   A    
C44   H8    S    
C101  O41   A    
C15   C19   A    
Cu4   O20   S    
C43   H7    S    
C116  C122  A    
C146  H58   S    
Cu7   O43   S    
C14   H42   S    
Cu9   Cu10  S    
C80   C89   A    
C165  O54   S    
C83   C134  A    
C116  H38   S    
C113  C119  S    
C80   H30   S    
C91   C125  S    
C133  H49   S    
C90   C127  S    
C69   C73   A    
C148  H60   S    
C172  O68   S    
C97   C127  A    
C100  C128  A    
C108  O8    A    
C161  H78   S    
C170  O64   S    
C142  H54   S    
C162  H82   S    
C169  O62   S    
C103  O45   A    
C3    O19   A    
C115  H37   S    
O51   C163  S    
Cu5   O33   S    
C117  H39   S    
C94   O38   A    
Cu7   Cu8   S    
C53   C57   A    
C22   C158  A    
Cu1   O21   S    
C33   C37   A    
C56   C60   A    
C161  H79   S    
C45   O21   A    
C114  O15   A    
O64   H94   S    
C70   H22   S    
C26   H70   S    
C103  C129  S    
C81   C87   A    
C100  C112  A    
C5    C157  A    
C31   C35   A    
C82   H32   S    
C8    C160  A    
C32   C36   A    
O68   H96   S    
C102  O44   A    
Cu12  O48   S    
C78   C88   A    
C84   C136  A    
C105  O9    A    
C29   H73   S    
Cu4   O28   S    
Cu5   O29   S    
Cu9   O45   S    
C6    C10   A    
Cu11  O47   S    
C104  O48   A    
C82   C90   A    
C83   C132  S    
O60   H92   S    
O66   H95   S    
C43   C51   A    
C164  H86   S    
C65   C69   A    
C96   O40   A    
Cu10  O9    S    
C67   H19   S    
C153  C157  A    
C167  O57   D    
C25   C49   A    
C164  H87   S    
O54   H89   S    
C138  C166  S    
Cu11  O7    S    
C55   H11   S    
C97   H33   S    
C114  C120  S    
C89   C128  S    
Cu1   O1    S    
Cu11  Cu12  S    
Cu5   Cu6   S    
C56   C76   A    
O49   C161  S    
C14   C18   A    
C35   C39   A    
C144  C148  A    
C93   O33   A    
C1    C33   S    
C81   H31   S    
C115  C131  A    
C171  O65   D    
C143  C147  A    
Cu2   O24   S    
C16   H44   S    
C38   C42   A    
C2    O2    A    
C47   O27   A    
C91   O29   A    
C68   H20   S    
C87   O51   S    
C118  H40   S    
Cu2   O4    S    
C111  C130  A    
C111  H27   S    
C20   C24   A    
C166  O56   S    
C10   C46   S    
C54   H10   S    
C68   C72   A    
Cu3   O17   S    
C110  H26   S    
C31   H75   S    
C153  C169  S    
C69   H21   S    
C141  H53   S    
C63   C67   A    
Cu10  O6    S    
C119  C137  A    
C36   C40   A    
Cu8   O36   S    
C164  H88   S    
C118  C124  A    
C134  H50   S    
Cu5   O38   S    
C53   H9    S    
C7    C11   A    
C72   C76   A    
C8    C144  A    
C120  C139  A    
C113  O13   A    
C140  C168  S    
C77   C86   A    
C108  O12   A    
Cu6   O34   S    
C63   C107  S    
C51   C75   S    
C163  H83   S    
C54   C58   A    
O50   C162  S    
C122  H46   S    
C34   C38   A    
C21   C157  A    
C53   C73   A    
C134  C138  A    
C24   C160  A    
C84   C131  S    
C92   O31   A    
C117  C123  A    
C71   C75   A    
C28   C52   A    
C116  C131  A    
C165  O53   D    
C83   C133  A    
C37   H1    S    
Cu6   O42   S    
C1    O17   A    
C150  C154  A    
C106  O10   A    
C144  H56   S    
C172  O67   D    
C145  H57   S    
Cu6   O30   S    
Cu10  O46   S    
C17   H65   S    
