data_mof_unit_10674.cif
_audit_creation_date              2012-12-10T17:48:49-0500
_audit_creation_method            fapswitch 2.2
_symmetry_space_group_name_H-M    P1
_symmetry_Int_Tables_number       1
_space_group_crystal_system       triclinic
_cell_length_a                    10.74278
_cell_length_b                    14.715161
_cell_length_c                    14.642673
_cell_angle_alpha                 65.237658
_cell_angle_beta                  103.503287
_cell_angle_gamma                 102.983513
_cell_volume                      2022.59404617

loop_
_atom_site_label
_atom_site_type_symbol
_atom_type_description
_atom_site_fract_x
_atom_site_fract_y
_atom_site_fract_z
_atom_type_partial_charge
C1    C     C_R   0.477829 0.119517 0.311974 0.801861
C2    C     C_3   0.876163 0.004761 0.489722 -0.002353
C3    C     C_3   0.930011 0.919706 0.589415 0.376320
C4    C     C_3   0.957988 0.107818 0.487315 -0.414235
C5    C     C_R   0.468075 0.186568 0.203728 -0.041369
C6    C     C_R   0.546102 0.813123 0.796982 -0.069531
C7    C     C_R   0.422917 0.214355 0.025138 -0.188495
C8    C     C_R   0.431163 0.148388 0.127038 -0.226798
C9    C     C_R   0.498238 0.290831 0.177527 -0.237517
C10   C     C_R   0.497951 0.358755 0.075761 0.071626
C11   C     C_R   0.454699 0.319717 0.998207 0.142786
C12   C     C_R   0.259705 0.001722 0.497265 0.850106
C13   C     C_R   0.535730 0.464480 0.049856 -0.012244
C14   C     C_R   0.512631 0.531867 0.946640 0.031111
C15   C     C_R   0.467354 0.490680 0.871057 -0.205505
C16   C     C_R   0.442182 0.386352 0.895529 0.120704
C17   C     C_R   0.599594 0.504267 0.124095 -0.305960
C18   C     C_R   0.629310 0.608059 0.100285 0.476133
C19   C     C_R   0.601212 0.675475 0.999253 0.029552
C20   C     C_R   0.540451 0.638257 0.922089 0.033544
C21   C     C_R   0.634124 0.780125 0.974292 -0.229795
C22   C     C_R   0.609024 0.848999 0.873874 0.136408
C23   C     C_R   0.523702 0.880450 0.688274 0.828987
C24   C     C_R   0.509171 0.709068 0.822671 -0.273374
C25   C     C_R   0.711530 0.281071 0.673455 -0.296269
C26   C     C_R   0.681030 0.201902 0.640336 0.092735
C27   C     C_R   0.518737 0.285053 0.509778 0.019798
C28   C     C_R   0.545553 0.368900 0.539562 -0.021877
C29   C     C_R   0.643393 0.364112 0.624015 0.087842
C30   C     C_R   0.477866 0.455191 0.490673 0.004881
C31   C     C_R   0.511883 0.536860 0.525909 -0.036460
C32   C     C_R   0.605047 0.524756 0.615850 0.452086
C33   C     C_R   0.669338 0.439523 0.662112 -0.288405
C34   C     C_R   0.738693 0.003783 0.493152 0.841005
C35   C     C_R   0.375174 0.461239 0.409011 -0.222016
C36   C     C_R   0.307954 0.543470 0.362331 -0.201536
C37   C     C_R   0.343088 0.625495 0.391620 0.153414
C38   C     C_R   0.447733 0.625697 0.471141 -0.009792
C39   C     C_R   0.275074 0.708561 0.340128 -0.328082
C40   C     C_R   0.311671 0.792631 0.365970 0.063168
C41   C     C_R   0.484628 0.716939 0.488822 0.044536
C42   C     C_3   0.038351 0.991321 0.391282 0.924800
C43   C     C_3   0.891586 0.994116 0.389940 -0.210094
C44   C     C_3   0.075073 0.921281 0.591331 -0.531745
C45   C     C_3   0.101726 0.106337 0.490830 -0.429539
C46   C     C_3   0.120750 0.003409 0.492176 -0.033521
Cu1   Cu    Cu3+1 0.465900 0.918260 0.475680 0.940460
Cu2   Cu    Cu3+1 0.534100 0.081740 0.524320 0.950731
H1    H     H_    0.948416 0.123792 0.553059 0.234448
H2    H     H_    0.133365 0.939010 0.657068 0.211604
H3    H     H_    0.454106 0.685268 0.763134 0.173354
H4    H     H_    0.390847 0.182248 0.967757 0.162863
H5    H     H_    0.406905 0.067766 0.145635 0.152206
H6    H     H_    0.517848 0.317879 0.238052 0.149833
H7    H     H_    0.454986 0.537608 0.791290 0.186972
H8    H     H_    0.633837 0.456468 0.201171 0.158206
H9    H     H_    0.681461 0.809333 0.032444 0.180433
H10   H     H_    0.736920 0.429531 0.732088 0.154371
H11   H     H_    0.571134 0.730018 0.538201 0.196216
H12   H     H_    0.259257 0.856651 0.326418 0.171449
H13   H     H_    0.228750 0.543665 0.300839 0.143972
H14   H     H_    0.786676 0.276643 0.738465 0.137095
H15   H     H_    0.731991 0.137010 0.679413 0.152113
H16   H     H_    0.444217 0.280616 0.447807 0.120888
H17   H     H_    0.863930 0.065071 0.325837 0.144781
H18   H     H_    0.342519 0.402582 0.379622 0.133402
H19   H     H_    0.194185 0.708603 0.279901 0.149248
H20   H     H_    0.095793 0.845121 0.608342 0.129285
H21   H     H_    0.873747 0.845872 0.590444 0.075083
H22   H     H_    0.158101 0.117772 0.560352 0.202174
H23   H     H_    0.138332 0.171491 0.424938 0.210182
H24   H     H_    0.923026 0.171143 0.417198 0.167147
N1    N     N_R   0.585360 0.204570 0.560800 -0.184269
N2    N     N_R   0.414550 0.795430 0.439160 -0.202443
O1    O     O_R   0.455060 0.022100 0.338110 -0.593425
O2    O     O_R   0.512640 0.160150 0.379180 -0.599402
O3    O     O_R   0.288900 0.930980 0.479450 -0.556204
O4    O     O_R   0.346480 0.069030 0.520520 -0.599170
O5    O     O_R   0.487360 0.839850 0.620820 -0.597814
O6    O     O_R   0.544940 0.977900 0.661890 -0.541754
O7    O     O_R   0.653520 0.930970 0.479480 -0.595247
O8    O     O_R   0.711100 0.069020 0.520550 -0.577965
O9    O     O_3   0.061148 0.906174 0.375701 -0.596811
C47   C     C_3   0.027328 0.807609 0.447235 -0.374168
H25   H     H_    0.952068 0.800121 0.490603 0.169642
H26   H     H_    0.114878 0.778298 0.499724 0.195726
H27   H     H_    0.988731 0.757127 0.405110 0.195883
O10   O     O_3   0.916027 0.938118 0.674249 -0.570400
C48   C     C_3   0.910121 0.848536 0.762771 -0.352202
H28   H     H_    0.968424 0.792727 0.766988 0.143973
H29   H     H_    0.807828 0.814142 0.767989 0.175438
H30   H     H_    0.948669 0.868596 0.830144 0.196635
N3    N     N_3   0.401233 0.347883 0.815929 -0.600661
H31   H     H_    0.383634 0.406363 0.744693 0.234123
H32   H     H_    0.478077 0.316405 0.813775 0.223036
N4    N     N_3   0.649243 0.954849 0.850829 -0.575410
H33   H     H_    0.749366 0.966380 0.873305 0.211207
H34   H     H_    0.605391 0.975883 0.894291 0.209861
O11   O     O_3   0.695945 0.643858 0.174634 -0.591421
C49   C     C_3   0.612731 0.627081 0.243546 -0.325939
H35   H     H_    0.520986 0.658880 0.203528 0.163025
H36   H     H_    0.661769 0.666097 0.295594 0.192752
H37   H     H_    0.591891 0.545283 0.291272 0.174769
O12   O     O_3   0.082698 0.081060 0.310064 -0.636746
C50   C     C_3   0.048535 0.074103 0.213593 -0.280500
H38   H     H_    0.945358 0.042754 0.198328 0.145683
H39   H     H_    0.112487 0.028643 0.206085 0.198207
H40   H     H_    0.063935 0.151303 0.154136 0.174089
O13   O     O_3   0.616409 0.586081 0.668585 -0.610795
C51   C     C_3   0.746996 0.625747 0.690860 -0.396733
H41   H     H_    0.803134 0.645267 0.628344 0.151432
H42   H     H_    0.794191 0.573238 0.764101 0.184258
H43   H     H_    0.748035 0.696419 0.700301 0.190594
N5    N     N_3   0.802441 0.910656 0.368792 -0.603010
H44   H     H_    0.830643 0.899415 0.311144 0.243487
H45   H     H_    0.712360 0.934585 0.333936 0.233255

loop_
_geom_bond_atom_site_label_1
_geom_bond_atom_site_label_2
_ccdc_geom_bond_type
N3    H31   S    
C40   H12   S    
C45   H23   S    
Cu2   O2    S    
C19   C20   A    
C47   H27   S    
Cu1   O5    S    
N5    H44   S    
C7    C8    A    
C45   C46   S    
C7    C11   A    
C50   H39   S    
C16   N3    S    
C33   H10   S    
C30   C35   A    
C1    C5    S    
C36   C37   A    
C3    H21   S    
C47   H26   S    
C7    H4    S    
C43   N5    S    
C30   C31   A    
C15   C16   A    
C6    C22   A    
C29   C33   A    
C26   N1    A    
C18   C19   A    
C42   C46   S    
Cu2   O4    S    
C20   C24   A    
C51   H41   S    
C41   N2    A    
C31   C32   A    
Cu2   O8    S    
N4    H34   S    
C34   O7    A    
C23   O6    A    
C48   H29   S    
C9    C10   A    
C2    C34   S    
C24   H3    S    
C45   H22   S    
N3    H32   S    
C21   C22   A    
N4    H33   S    
C39   H19   S    
O12   C50   S    
C44   C46   S    
C4    C45   S    
C25   C29   A    
C50   H40   S    
C3    C44   S    
C32   O13   S    
C1    O1    A    
Cu1   Cu2   S    
C14   C20   A    
C47   H25   S    
C41   H11   S    
C38   C41   A    
C12   C46   S    
C10   C11   A    
C39   C40   A    
C35   H18   S    
C25   C26   A    
C49   H37   S    
C12   O4    A    
C35   C36   A    
C15   H7    S    
C2    C4    S    
C26   H15   S    
C21   H9    S    
C37   C38   A    
C11   C16   A    
O9    C47   S    
C17   H8    S    
C2    C43   S    
C43   H17   S    
C6    C24   A    
C12   O3    A    
C49   H36   S    
C17   C18   A    
C48   H30   S    
C51   H43   S    
C44   H20   S    
C42   C43   S    
Cu1   O3    S    
C36   H13   S    
C4    H24   S    
C44   H2    S    
C28   C29   A    
C19   C21   A    
C3    O10   S    
C1    O2    A    
C22   N4    S    
Cu2   N1    S    
C42   O9    S    
Cu1   N2    S    
C5    C9    A    
C10   C13   A    
C42   O12   S    
C8    H5    S    
C5    C8    A    
N5    H45   S    
C50   H38   S    
C31   C38   A    
C13   C17   A    
C4    H1    S    
C32   C33   A    
Cu2   O6    S    
C28   C30   A    
C2    C3    S    
Cu1   O1    S    
C37   C39   A    
C27   N1    A    
O11   C49   S    
C6    C23   S    
C49   H35   S    
C40   N2    A    
C25   H14   S    
Cu1   O7    S    
C51   H42   S    
C27   H16   S    
O10   C48   S    
C18   O11   S    
O13   C51   S    
C27   C28   A    
C14   C15   A    
C9    H6    S    
C34   O8    A    
C23   O5    A    
C48   H28   S    
C13   C14   A    
