data_mof_unit_42251.cif
_audit_creation_date              2012-10-26T17:11:02-0400
_audit_creation_method            fapswitch 2.2
_symmetry_space_group_name_H-M    P1
_symmetry_Int_Tables_number       1
_space_group_crystal_system       triclinic
_cell_length_a                    27.99236
_cell_length_b                    18.838966
_cell_length_c                    16.825355
_cell_angle_alpha                 89.95958
_cell_angle_beta                  62.411825
_cell_angle_gamma                 89.960407
_cell_volume                      7863.95491587

loop_
_atom_site_label
_atom_site_type_symbol
_atom_type_description
_atom_site_fract_x
_atom_site_fract_y
_atom_site_fract_z
_atom_type_partial_charge
C1    C     C_R   0.294890 0.728024 0.329660 0.526509
C2    C     C_R   0.439714 0.123955 0.535916 0.291656
C3    C     C_R   0.926542 0.096920 0.066523 0.548702
C4    C     C_R   0.426897 0.402579 0.066283 0.548182
C5    C     C_R   0.573500 0.596815 0.933390 0.550020
C6    C     C_R   0.573195 0.402667 0.933678 0.547747
C7    C     C_R   0.426578 0.596962 0.066501 0.549130
C8    C     C_R   0.046569 0.500303 0.511573 -0.073359
C9    C     C_R   0.950512 0.500049 0.497050 -0.072541
C10   C     C_R   0.547967 0.000168 0.507485 -0.073814
C11   C     C_R   0.451973 0.000126 0.492768 -0.073695
C12   C     C_R   0.024276 0.564430 0.500849 0.014633
C13   C     C_R   0.465206 0.876050 0.451644 0.283743
C14   C     C_R   0.977935 0.435843 0.490778 0.005839
C15   C     C_R   0.971231 0.563950 0.511870 0.013592
C16   C     C_R   0.019974 0.435810 0.515994 0.005638
C17   C     C_R   0.526458 0.064155 0.494582 0.016778
C18   C     C_R   0.478984 0.935770 0.487519 0.005191
C19   C     C_R   0.473439 0.064136 0.505595 0.017020
C20   C     C_R   0.520997 0.935792 0.512820 0.005238
C21   C     C_R   0.115486 0.437420 0.535847 -0.078788
C22   C     C_R   0.872093 0.563850 0.506178 -0.076378
C23   C     C_R   0.883551 0.437562 0.467435 -0.079249
C24   C     C_R   0.560125 0.124004 0.464255 0.291522
C25   C     C_R   0.125550 0.564294 0.499740 -0.076299
C26   C     C_R   0.615926 0.937517 0.534455 -0.078978
C27   C     C_R   0.373267 0.064034 0.503228 -0.075203
C28   C     C_R   0.384049 0.937446 0.465822 -0.079182
C29   C     C_R   0.626631 0.064120 0.497013 -0.075217
C30   C     C_R   0.169395 0.436069 0.525086 -0.014666
C31   C     C_R   0.824749 0.564516 0.495402 -0.028235
C32   C     C_R   0.830133 0.436120 0.476033 -0.015953
C33   C     C_R   0.174246 0.564657 0.506745 -0.027995
C34   C     C_R   0.669606 0.936103 0.524663 -0.014978
C35   C     C_R   0.034301 0.375841 0.550754 0.283611
C36   C     C_R   0.325256 0.064569 0.494306 -0.028040
C37   C     C_R   0.330384 0.936078 0.475452 -0.015756
C38   C     C_R   0.674694 0.064607 0.505828 -0.027758
C39   C     C_R   0.199694 0.499555 0.502219 0.239547
C40   C     C_R   0.799683 0.499513 0.498281 0.240125
C41   C     C_R   0.699972 0.999539 0.502082 0.239756
C42   C     C_R   0.300009 0.999529 0.497980 0.239491
C43   C     C_R   0.095835 0.500696 0.516263 -0.015319
C44   C     C_R   0.902088 0.500480 0.489769 -0.015283
C45   C     C_R   0.596801 0.000618 0.513502 -0.015182
C46   C     C_R   0.936972 0.623266 0.542940 0.286636
C47   C     C_R   0.403136 0.000545 0.486755 -0.015050
C48   C     C_R   0.581080 0.878002 0.560953 -0.103847
C49   C     C_R   0.390015 0.122887 0.536016 -0.106158
C50   C     C_R   0.418925 0.877918 0.439480 -0.104119
C51   C     C_R   0.609802 0.123003 0.464272 -0.106355
C52   C     C_R   0.080814 0.377716 0.562209 -0.104106
C53   C     C_R   0.887871 0.622357 0.540910 -0.107351
C54   C     C_R   0.918627 0.378260 0.440892 -0.103909
C55   C     C_R   0.107691 0.623578 0.469263 -0.098498
C56   C     C_3   0.281470 0.517106 0.375242 0.030931
C57   C     C_R   0.964687 0.376409 0.453683 0.283589
C58   C     C_3   0.267697 0.469093 0.314754 -0.295467
C59   C     C_3   0.297709 0.492658 0.217026 -0.477071
C60   C     C_3   0.717348 0.516637 0.624295 0.030777
C61   C     C_3   0.731264 0.469167 0.685205 -0.295969
C62   C     C_3   0.701093 0.493025 0.782748 -0.476890
C63   C     C_3   0.782011 0.016895 0.375538 0.030940
C64   C     C_3   0.768140 0.969209 0.314869 -0.295936
C65   C     C_3   0.798260 0.992899 0.217212 -0.477455
C66   C     C_3   0.217957 0.016837 0.624506 0.030921
C67   C     C_3   0.231899 0.969136 0.685172 -0.295600
C68   C     C_R   0.057361 0.624931 0.471995 0.298381
C69   C     C_3   0.201858 0.992867 0.782791 -0.476786
C70   C     C_3   0.458751 0.829978 0.662598 0.012336
C71   C     C_3   0.419501 0.767507 0.689750 -0.246469
C72   C     C_3   0.371154 0.779293 0.781664 -0.480985
C73   C     C_3   0.430440 0.170695 0.666758 0.002299
C74   C     C_3   0.442827 0.235068 0.709275 -0.246225
C75   C     C_3   0.417050 0.227986 0.811198 -0.479321
C76   C     C_3   0.541467 0.829936 0.338165 0.011867
C77   C     C_3   0.580964 0.767721 0.311679 -0.244925
C78   C     C_3   0.629585 0.779591 0.220092 -0.483905
C79   C     C_R   0.220599 0.766625 0.953173 0.025439
C80   C     C_3   0.569458 0.170539 0.333224 0.001620
C81   C     C_3   0.556688 0.234549 0.290518 -0.245880
C82   C     C_3   0.582586 0.227359 0.188602 -0.479008
C83   C     C_3   0.958591 0.328854 0.664430 0.012313
C84   C     C_3   0.919644 0.266057 0.691290 -0.246404
C85   C     C_3   0.871401 0.277229 0.783488 -0.481037
C86   C     C_3   0.925770 0.667980 0.675793 0.003381
C87   C     C_3   0.938563 0.730645 0.720319 -0.246315
C88   C     C_3   0.911930 0.722033 0.822088 -0.478719
C89   C     C_3   0.041275 0.331347 0.339847 0.011728
C90   C     C_R   0.779858 0.233486 0.045654 0.007954
C91   C     C_3   0.081197 0.269595 0.312899 -0.244618
C92   C     C_3   0.129820 0.282232 0.221531 -0.484021
C93   C     C_3   0.057762 0.673615 0.346467 0.009422
C94   C     C_3   0.102768 0.725456 0.289387 -0.271416
C95   C     C_3   0.116974 0.720415 0.190410 -0.471517
C96   C     C_R   0.780453 0.765648 0.045462 0.039717
C97   C     C_R   0.704414 0.270518 0.670745 0.539897
C98   C     C_R   0.220534 0.232511 0.953966 0.041042
C99   C     C_R   0.719871 0.266021 0.954113 0.026973
C100  C     C_R   0.280344 0.734033 0.045112 0.008906
C101  C     C_R   0.280716 0.265311 0.045183 0.040194
C102  C     C_R   0.720379 0.732739 0.954101 0.040800
C103  C     C_R   0.229710 0.695377 0.967540 0.093159
C104  C     C_R   0.772175 0.304976 0.028471 0.100777
C105  C     C_R   0.767367 0.694587 0.038063 0.090041
C106  C     C_R   0.233722 0.303549 0.961257 0.098567
C107  C     C_R   0.728142 0.194811 0.969940 0.092549
C108  C     C_R   0.704993 0.728257 0.670377 0.525515
C109  C     C_R   0.272055 0.805575 0.029021 0.098055
C110  C     C_R   0.267514 0.194280 0.037921 0.091192
C111  C     C_R   0.733459 0.803804 0.961508 0.098708
C112  C     C_R   0.259392 0.679634 0.013402 -0.140801
C113  C     C_R   0.742038 0.320460 0.983550 -0.105173
C114  C     C_R   0.737368 0.678736 0.992812 -0.152911
C115  C     C_R   0.263748 0.319349 0.006483 -0.148840
C116  C     C_R   0.757982 0.179078 0.015563 -0.142335
C117  C     C_R   0.242062 0.821077 0.983854 -0.110456
C118  C     C_R   0.237467 0.178481 0.992731 -0.151765
C119  C     C_R   0.295515 0.270702 0.329326 0.539908
C120  C     C_R   0.763427 0.819662 0.006817 -0.148916
C121  C     C_R   0.144415 0.829246 0.944401 -0.129951
C122  C     C_R   0.855733 0.170764 0.055260 -0.127015
C123  C     C_R   0.856229 0.828645 0.055172 -0.132102
C124  C     C_R   0.144595 0.169900 0.944292 -0.128772
C125  C     C_R   0.644086 0.328914 0.944676 -0.130320
C126  C     C_R   0.356042 0.671205 0.055043 -0.127053
C127  C     C_R   0.356498 0.328233 0.054932 -0.131155
C128  C     C_R   0.644503 0.670045 0.944362 -0.128777
C129  C     C_R   0.117153 0.850666 0.896019 -0.018201
C130  C     C_R   0.794916 0.228076 0.329647 0.526158
C131  C     C_R   0.882262 0.148240 0.104405 -0.018617
C132  C     C_R   0.883114 0.850449 0.103899 -0.018562
C133  C     C_R   0.117887 0.147877 0.895337 -0.020014
C134  C     C_R   0.616999 0.350500 0.896120 -0.018246
C135  C     C_R   0.382367 0.648373 0.104358 -0.018675
C136  C     C_R   0.383218 0.350306 0.103818 -0.018599
C137  C     C_R   0.617836 0.647952 0.895372 -0.020050
C138  C     C_R   0.135123 0.827042 0.808294 -0.147414
C139  C     C_R   0.863512 0.170457 0.192772 -0.152892
C140  C     C_R   0.864940 0.827071 0.191772 -0.147446
C141  C     C_R   0.204450 0.770594 0.670696 0.540349
C142  C     C_R   0.136523 0.170345 0.807086 -0.154794
C143  C     C_R   0.635040 0.326926 0.808355 -0.147436
C144  C     C_R   0.363494 0.670403 0.192817 -0.152888
C145  C     C_R   0.364947 0.327088 0.191780 -0.147607
C146  C     C_R   0.636493 0.670390 0.807102 -0.154850
C147  C     C_R   0.181295 0.785160 0.766964 -0.026670
C148  C     C_R   0.817394 0.212277 0.233905 -0.021189
C149  C     C_R   0.818751 0.785273 0.233024 -0.027443
C150  C     C_R   0.182462 0.212465 0.766120 -0.025939
C151  C     C_R   0.681145 0.284896 0.767140 -0.026651
C152  C     C_R   0.205001 0.228243 0.670371 0.526074
C153  C     C_R   0.317383 0.712244 0.233908 -0.021052
C154  C     C_R   0.318786 0.285233 0.232993 -0.027309
C155  C     C_R   0.682427 0.712524 0.766144 -0.025947
C156  C     C_R   0.208110 0.763310 0.815772 -0.085460
C157  C     C_R   0.790632 0.234126 0.184976 -0.125373
C158  C     C_R   0.792088 0.763395 0.184030 -0.085520
C159  C     C_R   0.209083 0.234487 0.815153 -0.089980
C160  C     C_R   0.707720 0.262705 0.816256 -0.086249
C161  C     C_R   0.290694 0.734191 0.184891 -0.124836
C162  C     C_R   0.292209 0.263221 0.183909 -0.085879
C163  C     C_R   0.795517 0.770693 0.329330 0.539631
C164  C     C_R   0.709009 0.734612 0.815215 -0.090223
C165  C     C_R   0.189810 0.785249 0.904551 0.018154
C166  C     C_R   0.810032 0.214202 0.095202 -0.015517
C167  C     C_R   0.810810 0.784696 0.094810 0.020873
C168  C     C_R   0.190240 0.213432 0.904492 0.018213
C169  C     C_R   0.689304 0.284645 0.905112 0.018327
C170  C     C_R   0.310317 0.714604 0.094947 -0.014034
C171  C     C_R   0.311041 0.284351 0.094593 0.020834
C172  C     C_R   0.690132 0.713602 0.904577 0.018222
C173  C     C_R   0.200460 0.631248 0.513821 0.551053
C174  C     C_R   0.534813 0.876099 0.548784 0.283538
C175  C     C_R   0.802018 0.368718 0.477522 0.563086
C176  C     C_R   0.799208 0.631258 0.487014 0.549418
C177  C     C_R   0.197906 0.368701 0.522645 0.564159
C178  C     C_R   0.700608 0.131251 0.513459 0.550743
C179  C     C_R   0.302061 0.868712 0.477423 0.563420
C180  C     C_R   0.299378 0.131254 0.486586 0.550170
C181  C     C_R   0.697937 0.868701 0.522596 0.563846
C182  C     C_R   0.926861 0.902625 0.066313 0.547965
C183  C     C_R   0.073519 0.096789 0.933375 0.549708
C184  C     C_R   0.073237 0.902704 0.933652 0.547811
Cu1   Cu    Cu3+1 0.209920 0.785290 0.495070 0.956091
Cu2   Cu    Cu3+1 0.504760 0.500000 0.075850 0.908494
Cu3   Cu    Cu3+1 0.995240 0.000000 0.924150 0.906657
Cu4   Cu    Cu3+1 0.004760 1.000000 0.075850 0.912071
Cu5   Cu    Cu3+1 0.790080 0.214710 0.504930 0.944503
Cu6   Cu    Cu3+1 0.790080 0.785290 0.504930 0.965122
Cu7   Cu    Cu3+1 0.209920 0.214710 0.495070 0.944131
Cu8   Cu    Cu3+1 0.709920 0.285290 0.495070 0.959025
Cu9   Cu    Cu3+1 0.290080 0.714710 0.504930 0.944081
Cu10  Cu    Cu3+1 0.290080 0.285290 0.504930 0.961195
Cu11  Cu    Cu3+1 0.709920 0.714710 0.495070 0.943856
Cu12  Cu    Cu3+1 0.495240 0.500000 0.924150 0.905377
H1    H     H_    0.587953 0.832653 0.593468 0.160321
H2    H     H_    0.763561 0.124116 0.028526 0.106187
H3    H     H_    0.941189 0.216829 0.692583 0.172403
H4    H     H_    0.885042 0.283215 0.835507 0.155549
H5    H     H_    0.844117 0.230624 0.800919 0.153218
H6    H     H_    0.848456 0.325288 0.783197 0.151587
H7    H     H_    0.942627 0.618744 0.690020 0.127930
H8    H     H_    0.881103 0.662907 0.705393 0.113127
H9    H     H_    0.982947 0.734753 0.693981 0.184627
H10   H     H_    0.923850 0.780543 0.703783 0.176183
H11   H     H_    0.867371 0.720478 0.850079 0.159150
H12   H     H_    0.922846 0.767689 0.852099 0.154235
H13   H     H_    0.772636 0.874589 0.013187 0.100430
H14   H     H_    0.925904 0.672402 0.840458 0.155600
H15   H     H_    0.063029 0.380763 0.340421 0.124690
H16   H     H_    0.026384 0.336898 0.289144 0.121277
H17   H     H_    0.095447 0.262966 0.364148 0.190407
H18   H     H_    0.060628 0.219871 0.310245 0.172882
H19   H     H_    0.116740 0.288168 0.168805 0.157478
H20   H     H_    0.157732 0.236277 0.204055 0.154547
H21   H     H_    0.151870 0.330753 0.223221 0.146791
H22   H     H_    0.021710 0.685331 0.337297 0.163789
H23   H     H_    0.070521 0.618268 0.321576 0.101354
H24   H     H_    0.228131 0.123576 0.986535 0.106883
H25   H     H_    0.089675 0.780563 0.313061 0.182463
H26   H     H_    0.139396 0.713615 0.296777 0.150001
H27   H     H_    0.132057 0.666417 0.164362 0.150990
H28   H     H_    0.149001 0.759554 0.151683 0.162256
H29   H     H_    0.081145 0.732420 0.180765 0.154468
H30   H     H_    0.182661 0.608501 0.993414 0.224990
H31   H     H_    0.239548 0.606705 0.894378 0.224027
H32   H     H_    0.779748 0.364707 0.122234 0.235606
H33   H     H_    0.837660 0.352964 0.025529 0.237624
H34   H     H_    0.809288 0.603880 0.021930 0.234690
H35   H     H_    0.736694 0.375363 0.970005 0.125263
H36   H     H_    0.751994 0.610031 0.119996 0.228414
H37   H     H_    0.249217 0.388036 0.879170 0.224476
H38   H     H_    0.191967 0.394391 0.977236 0.227255
H39   H     H_    0.679903 0.108977 0.998110 0.225423
H40   H     H_    0.736592 0.105288 0.898873 0.224401
H41   H     H_    0.278388 0.864886 0.124255 0.234879
H42   H     H_    0.336792 0.854226 0.028050 0.238369
H43   H     H_    0.309194 0.103395 0.022110 0.235127
H44   H     H_    0.251929 0.109888 0.120160 0.228269
H45   H     H_    0.748886 0.888328 0.879498 0.224668
H46   H     H_    0.265481 0.624631 0.025423 0.106492
H47   H     H_    0.691598 0.894554 0.977523 0.227077
H48   H     H_    0.273026 0.374260 0.012780 0.100407
H49   H     H_    0.728128 0.623811 0.986499 0.107111
H50   H     H_    0.131262 0.847810 0.012317 0.128533
H51   H     H_    0.869667 0.153427 0.986661 0.131633
H52   H     H_    0.869682 0.847032 0.987112 0.124667
H53   H     H_    0.363784 0.167015 0.568969 0.156060
H54   H     H_    0.130692 0.152278 0.012792 0.129841
H55   H     H_    0.630970 0.347632 0.012507 0.126478
H56   H     H_    0.370140 0.654094 0.986318 0.131424
H57   H     H_    0.370100 0.346365 0.986723 0.124987
H58   H     H_    0.630583 0.652455 0.012880 0.129790
H59   H     H_    0.114875 0.844621 0.770331 0.156225
H60   H     H_    0.883494 0.152469 0.230990 0.151888
H61   H     H_    0.885022 0.844820 0.229890 0.156849
H62   H     H_    0.116542 0.152428 0.768873 0.152793
H63   H     H_    0.614929 0.344706 0.770258 0.155887
H64   H     H_    0.412081 0.832533 0.407076 0.160083
H65   H     H_    0.383379 0.652259 0.231123 0.151822
H66   H     H_    0.384938 0.344990 0.229977 0.156203
H67   H     H_    0.616543 0.652419 0.768862 0.152748
H68   H     H_    0.244558 0.731760 0.783937 0.145001
H69   H     H_    0.753630 0.264481 0.217318 0.130360
H70   H     H_    0.755462 0.732267 0.216080 0.147872
H71   H     H_    0.245633 0.265767 0.783159 0.148187
H72   H     H_    0.744069 0.230948 0.784613 0.144109
H73   H     H_    0.253599 0.764353 0.217279 0.127479
H74   H     H_    0.255574 0.232111 0.215950 0.147652
H75   H     H_    0.635966 0.167191 0.431393 0.156767
H76   H     H_    0.745550 0.765912 0.783241 0.148306
H77   H     H_    0.272823 0.573151 0.366200 0.134127
H78   H     H_    0.325630 0.514197 0.351653 0.160077
H79   H     H_    0.278679 0.413780 0.320988 0.183302
H80   H     H_    0.223844 0.470918 0.335416 0.146691
H81   H     H_    0.284589 0.546776 0.209362 0.150132
H82   H     H_    0.288780 0.455502 0.174434 0.150193
H83   H     H_    0.341806 0.492994 0.193916 0.170189
H84   H     H_    0.725269 0.572899 0.633595 0.135068
H85   H     H_    0.673283 0.512863 0.647329 0.159450
H86   H     H_    0.088022 0.332149 0.593982 0.160658
H87   H     H_    0.720566 0.413689 0.679262 0.183273
H88   H     H_    0.775072 0.471347 0.664790 0.147573
H89   H     H_    0.714140 0.547222 0.790120 0.147822
H90   H     H_    0.709991 0.456123 0.825677 0.150919
H91   H     H_    0.657024 0.493277 0.805641 0.170757
H92   H     H_    0.773726 0.073063 0.366369 0.134823
H93   H     H_    0.826128 0.013518 0.352196 0.160079
H94   H     H_    0.778939 0.913790 0.321007 0.183270
H95   H     H_    0.724312 0.971297 0.335401 0.146435
H96   H     H_    0.785215 0.047085 0.209641 0.149600
H97   H     H_    0.861244 0.666277 0.573444 0.156277
H98   H     H_    0.789331 0.955902 0.174473 0.150167
H99   H     H_    0.842342 0.993117 0.194224 0.170658
H100  H     H_    0.226172 0.073011 0.633659 0.134391
H101  H     H_    0.173842 0.013414 0.647869 0.159912
H102  H     H_    0.221091 0.913724 0.679156 0.183327
H103  H     H_    0.275738 0.971178 0.664554 0.147181
H104  H     H_    0.214912 0.047048 0.790215 0.147934
H105  H     H_    0.210856 0.955885 0.825529 0.150903
H106  H     H_    0.157764 0.993114 0.805890 0.170093
H107  H     H_    0.436368 0.878976 0.662605 0.126210
H108  H     H_    0.912139 0.333105 0.407718 0.159784
H109  H     H_    0.473934 0.835873 0.712879 0.121195
H110  H     H_    0.404872 0.760610 0.639035 0.189798
H111  H     H_    0.440750 0.718166 0.691642 0.172247
H112  H     H_    0.384639 0.785439 0.833856 0.155923
H113  H     H_    0.343681 0.732879 0.799314 0.153351
H114  H     H_    0.348473 0.827448 0.780767 0.151404
H115  H     H_    0.448326 0.122603 0.681271 0.129154
H116  H     H_    0.385803 0.164360 0.697687 0.111962
H117  H     H_    0.487212 0.240472 0.681878 0.184306
H118  H     H_    0.427149 0.283839 0.692156 0.175193
H119  H     H_    0.133332 0.668078 0.436298 0.157391
H120  H     H_    0.372465 0.224869 0.840240 0.157290
H121  H     H_    0.427449 0.275060 0.839756 0.153446
H122  H     H_    0.432189 0.179660 0.830120 0.155919
H123  H     H_    0.563593 0.879147 0.338150 0.124616
H124  H     H_    0.526512 0.835441 0.287538 0.121183
H125  H     H_    0.595266 0.761138 0.362866 0.190282
H126  H     H_    0.560022 0.718183 0.309599 0.172662
H127  H     H_    0.616449 0.785436 0.167424 0.157548
H128  H     H_    0.657194 0.733331 0.202989 0.154675
H129  H     H_    0.651988 0.827925 0.221201 0.146991
H130  H     H_    0.236166 0.876023 0.971304 0.126208
H131  H     H_    0.551879 0.122158 0.318783 0.127579
H132  H     H_    0.614128 0.164640 0.302365 0.112157
H133  H     H_    0.512276 0.239459 0.317815 0.184165
H134  H     H_    0.572019 0.283610 0.307581 0.176397
H135  H     H_    0.627179 0.224722 0.159693 0.157821
H136  H     H_    0.571932 0.274155 0.159857 0.155240
H137  H     H_    0.567806 0.178733 0.169725 0.154240
H138  H     H_    0.935907 0.377721 0.665072 0.126312
H139  H     H_    0.973930 0.334627 0.714522 0.121257
H140  H     H_    0.904869 0.259274 0.640749 0.189672
N1    N     N_3   0.207696 0.638995 0.937601 -0.628144
N2    N     N_3   0.796288 0.362619 0.052498 -0.642541
N3    N     N_3   0.785731 0.638265 0.074323 -0.629687
N4    N     N_3   0.215439 0.359905 0.924909 -0.631903
N5    N     N_3   0.705239 0.138502 0.941517 -0.628448
N6    N     N_3   0.295381 0.863308 0.054445 -0.642281
N7    N     N_3   0.285739 0.137939 0.074373 -0.629544
N8    N     N_3   0.715133 0.860122 0.925174 -0.631815
O1    O     O_R   0.255040 0.869590 0.478480 -0.439735
O2    O     O_R   0.817950 0.203450 0.375560 -0.527772
O3    O     O_R   0.817950 0.796550 0.375560 -0.509946
O4    O     O_R   0.182050 0.203450 0.624440 -0.527664
O5    O     O_R   0.682050 0.296550 0.624440 -0.510462
O6    O     O_R   0.317950 0.703450 0.375560 -0.527284
O7    O     O_R   0.317950 0.296550 0.375560 -0.510490
O8    O     O_R   0.682050 0.703450 0.624440 -0.528092
O9    O     O_R   0.250530 0.763330 0.367210 -0.525594
O10   O     O_R   0.749470 0.236670 0.632790 -0.512254
O11   O     O_R   0.749470 0.763330 0.632790 -0.523620
O12   O     O_R   0.744960 0.130410 0.521520 -0.460603
O13   O     O_R   0.250530 0.236670 0.367210 -0.512369
O14   O     O_R   0.750530 0.263330 0.367210 -0.524012
O15   O     O_R   0.249470 0.736670 0.632790 -0.512488
O16   O     O_R   0.249470 0.263330 0.632790 -0.523594
O17   O     O_R   0.750530 0.736670 0.367210 -0.512483
O18   O     O_R   0.177260 0.690030 0.513710 -0.531355
O19   O     O_R   0.822740 0.309970 0.486290 -0.534232
O20   O     O_R   0.822740 0.690030 0.486290 -0.528685
O21   O     O_R   0.177260 0.309970 0.513710 -0.535102
O22   O     O_R   0.677260 0.190030 0.513710 -0.529686
O23   O     O_R   0.744960 0.869590 0.521520 -0.438810
O24   O     O_R   0.322740 0.809970 0.486290 -0.534486
O25   O     O_R   0.322740 0.190030 0.486290 -0.529856
O26   O     O_R   0.677260 0.809970 0.513710 -0.534939
O27   O     O_R   0.051640 0.926880 0.885090 -0.516181
O28   O     O_R   0.948360 0.073120 0.114910 -0.516346
O29   O     O_R   0.948360 0.926880 0.114910 -0.515165
O30   O     O_R   0.051640 0.073120 0.885090 -0.516640
O31   O     O_R   0.551640 0.426880 0.885090 -0.516245
O32   O     O_R   0.448360 0.573120 0.114910 -0.516104
O33   O     O_R   0.448360 0.426880 0.114910 -0.515766
O34   O     O_R   0.255040 0.130410 0.478480 -0.460533
O35   O     O_R   0.551640 0.573120 0.885090 -0.516669
O36   O     O_R   0.940620 0.926560 0.986760 -0.513642
O37   O     O_R   0.059380 0.073440 0.013240 -0.511586
O38   O     O_R   0.059380 0.926560 0.013240 -0.511431
O39   O     O_R   0.940620 0.073440 0.986760 -0.512238
O40   O     O_R   0.440620 0.426560 0.986760 -0.513677
O41   O     O_R   0.559380 0.573440 0.013240 -0.511330
O42   O     O_R   0.559380 0.426560 0.013240 -0.512957
O43   O     O_R   0.440620 0.573440 0.986760 -0.512106
O44   O     O_3   0.255466 0.496289 0.467163 -0.528029
O45   O     O_R   0.755040 0.369590 0.478480 -0.439857
O46   O     O_3   0.743986 0.496127 0.532279 -0.527484
O47   O     O_3   0.755712 0.996203 0.467511 -0.527667
O48   O     O_3   0.244272 0.996214 0.532530 -0.527670
O49   O     O_3   0.502187 0.816598 0.576823 -0.525269
O50   O     O_3   0.452719 0.181538 0.573210 -0.522486
O51   O     O_3   0.497852 0.816526 0.423759 -0.525071
O52   O     O_3   0.547111 0.181513 0.426748 -0.522149
O53   O     O_3   0.001935 0.316081 0.578368 -0.525289
O54   O     O_3   0.948992 0.680235 0.582429 -0.521277
O55   O     O_3   0.997667 0.317218 0.425210 -0.525032
O56   O     O_R   0.244960 0.630410 0.521520 -0.459976
O57   O     O_3   0.043247 0.683886 0.438326 -0.523783
O58   O     O_R   0.244960 0.369590 0.521520 -0.438904
O59   O     O_R   0.755040 0.630410 0.478480 -0.461022
O60   O     O_R   0.182050 0.796550 0.624440 -0.509782

loop_
_geom_bond_atom_site_label_1
_geom_bond_atom_site_label_2
_ccdc_geom_bond_type
C28   C47   A    
C81   H134  S    
C158  H70   S    
C78   H129  S    
C70   H107  S    
C36   C42   A    
C96   C105  A    
C110  C118  A    
C13   C18   A    
C64   H95   S    
C3    C131  S    
C115  H48   S    
C16   C35   A    
Cu5   O19   S    
Cu6   O11   S    
C6    O31   A    
C41   O47   S    
C86   O54   S    
Cu3   O27   S    
C142  H62   S    
H44   N7    S    
C37   C42   A    
C87   H9    S    
C134  C143  A    
C124  C168  A    
C117  H130  S    
C10   C20   A    
C36   C180  S    
C4    O33   A    
C94   H25   S    
C90   C116  A    
C125  C169  A    
Cu5   O10   S    
C104  N2    S    
C24   C51   A    
C112  H46   S    
C100  C109  A    
C8    C16   A    
C88   H14   S    
C102  C111  A    
C88   H12   S    
C144  H65   S    
C75   H121  S    
C158  C167  A    
C89   H16   S    
Cu12  O31   S    
C102  C172  S    
C150  C159  A    
C130  O14   A    
C100  C170  S    
C137  C146  A    
C178  O22   A    
C127  C136  A    
C70   O49   S    
C69   H106  S    
C101  C110  A    
C68   O57   S    
C29   C45   A    
C103  C112  A    
C102  C114  A    
C108  O11   A    
C184  O38   A    
Cu12  O40   S    
C66   H100  S    
C181  O23   A    
C146  H67   S    
C46   O54   S    
C5    C137  S    
C90   C104  A    
C85   H6    S    
Cu2   O42   S    
C124  C133  A    
C121  H50   S    
C78   H127  S    
C67   H102  S    
C56   H78   S    
C101  C115  A    
C3    O39   A    
C138  H59   S    
C157  H69   S    
C14   C57   A    
Cu11  O17   S    
C141  O60   A    
C2    C19   A    
C80   H131  S    
C25   C55   A    
C1    O6    A    
C74   H118  S    
Cu7   O21   S    
C93   O57   S    
C163  O17   A    
H33   N2    S    
C7    O43   A    
C98   C106  A    
C106  C115  A    
Cu1   O9    S    
Cu6   O3    S    
C5    O41   A    
C139  H60   S    
C9    C15   A    
Cu7   Cu10  S    
C91   H17   S    
C23   C32   A    
C142  C150  A    
C108  C155  S    
C50   H64   S    
C46   C53   A    
C92   H21   S    
H30   N1    S    
Cu4   O28   S    
Cu5   O12   S    
C141  C147  S    
C176  O59   A    
Cu7   O34   S    
Cu5   O2    S    
C59   H82   S    
C1    O9    A    
Cu3   O36   S    
C77   H125  S    
C60   H85   S    
C111  C120  A    
C80   O52   S    
C98   C168  S    
C11   C18   A    
C123  C132  A    
C178  O12   A    
H39   N5    S    
C25   C43   A    
C62   H90   S    
C110  N7    S    
C175  O45   A    
C12   C68   A    
C133  C142  A    
C56   O44   S    
H37   N4    S    
C69   H105  S    
C35   O53   S    
C61   H87   S    
Cu2   Cu12  S    
C114  H49   S    
C4    O40   A    
C127  C171  A    
C92   H19   S    
C64   H94   S    
H31   N1    S    
C182  O29   A    
C73   H116  S    
C124  H54   S    
C26   C45   A    
C156  H68   S    
C7    O32   A    
C20   C174  A    
Cu10  O7    S    
C69   H104  S    
C29   C38   A    
C128  H58   S    
C92   H20   S    
Cu10  O25   S    
C89   C91   S    
C149  C158  A    
C119  O7    A    
C66   C67   S    
Cu8   O14   S    
C79   C103  A    
C71   H110  S    
Cu4   O37   S    
C72   H113  S    
C98   C118  A    
C48   C174  A    
C31   C176  S    
C84   H3    S    
C32   C175  S    
C58   H80   S    
C139  C148  A    
C162  C171  A    
Cu3   O39   S    
C125  H55   S    
C143  H63   S    
C38   C41   A    
C91   C92   S    
C72   H112  S    
Cu8   O45   S    
C95   H27   S    
C183  O37   A    
C95   H29   S    
C126  C170  A    
C85   H4    S    
C83   C84   S    
C8    C12   A    
C10   C45   A    
Cu1   O18   S    
C24   O52   S    
C82   H136  S    
C179  O24   A    
Cu6   Cu11  S    
C145  C154  A    
C152  O4    A    
C65   H96   S    
C160  H72   S    
C118  H24   S    
C164  C172  A    
C73   O50   S    
C119  O13   A    
C122  C131  A    
C56   H77   S    
Cu12  O35   S    
C42   O48   S    
C29   C51   A    
Cu1   O60   S    
C27   C47   A    
C81   H133  S    
C67   H103  S    
C127  H57   S    
C154  C162  A    
C82   H137  S    
Cu9   O24   S    
C85   H5    S    
C121  C165  A    
C4    C136  S    
C93   H23   S    
C71   C72   S    
C28   C37   A    
C143  C151  A    
C56   C58   S    
C30   C39   A    
Cu3   O30   S    
C150  C152  S    
C148  C157  A    
C61   C62   S    
C108  O8    A    
C107  C116  A    
C131  C139  A    
Cu9   O15   S    
C63   C64   S    
C2    O50   S    
C181  O26   A    
C39   O44   S    
C94   H26   S    
C182  O36   A    
C15   C46   A    
C86   H7    S    
C27   C49   A    
C25   C33   A    
C122  H51   S    
C54   C57   A    
C63   O47   S    
C125  C134  A    
C87   C88   S    
C59   H83   S    
C73   C74   S    
C11   C47   A    
C105  N3    S    
C8    C43   A    
C55   C68   A    
C109  C117  A    
C89   H15   S    
C76   H123  S    
C77   C78   S    
C11   C19   A    
C38   C178  S    
H42   N6    S    
C123  H52   S    
C60   O46   S    
C31   C40   A    
C34   C181  S    
C126  H56   S    
C132  C182  S    
C65   H98   S    
C133  C183  S    
C146  C155  A    
C183  O30   A    
Cu12  O43   S    
C160  C169  A    
C70   C71   S    
C5    O35   A    
C26   C48   A    
Cu7   O13   S    
C49   H53   S    
C78   H128  S    
C90   C166  S    
C34   C41   A    
Cu1   O1    S    
C174  O49   S    
Cu11  O26   S    
H47   N8    S    
C113  H35   S    
Cu11  O59   S    
C37   C179  S    
C140  H61   S    
C80   H132  S    
C84   C85   S    
H41   N6    S    
C71   H111  S    
C86   C87   S    
C161  H73   S    
C58   C59   S    
C23   C44   A    
C60   C61   S    
Cu7   O4    S    
C9    C14   A    
C87   H10   S    
C55   H119  S    
C116  H2    S    
C12   C15   A    
C97   C151  S    
C96   C167  S    
C176  O20   A    
C1    C153  S    
C147  C156  A    
C63   H92   S    
C99   C169  S    
C13   O51   S    
C129  C184  S    
H43   N7    S    
C126  C135  A    
C100  C112  A    
C119  C154  S    
C3    O28   A    
C59   H81   S    
C88   H11   S    
Cu10  O16   S    
C74   C75   S    
C75   H122  S    
C120  H13   S    
H40   N5    S    
C121  C129  A    
C99   C113  A    
C27   C36   A    
C132  C140  A    
C99   C107  A    
C21   C30   A    
C106  N4    S    
C64   C65   S    
C103  N1    S    
Cu2   O32   S    
Cu3   Cu4   S    
C156  C165  A    
C79   C117  A    
C104  C113  A    
C101  C171  S    
C94   C95   S    
C73   H115  S    
Cu6   O23   S    
Cu2   O41   S    
C173  O18   A    
C60   H84   S    
C153  C161  A    
C35   C52   A    
Cu2   O33   S    
C83   H139  S    
C89   O55   S    
C173  O56   A    
C93   C94   S    
C122  C166  A    
C51   H75   S    
C74   H117  S    
Cu4   O38   S    
C81   C82   S    
C72   H114  S    
C70   H109  S    
C179  O1    A    
C33   C39   A    
C66   O48   S    
C184  O27   A    
C97   O5    A    
C91   H18   S    
C10   C17   A    
C159  H71   S    
C111  N8    S    
C76   O51   S    
C144  C153  A    
Cu9   O56   S    
C65   H99   S    
C62   H91   S    
C79   C165  S    
C21   C43   A    
C28   C50   A    
C159  C168  A    
C26   C34   A    
C22   C44   A    
C129  C138  A    
C163  O3    A    
C77   H126  S    
C149  C163  S    
C83   H138  S    
C33   C173  S    
C18   C20   A    
C75   H120  S    
C107  N5    S    
C123  C167  A    
C164  H76   S    
C180  O25   A    
C82   H135  S    
C53   H97   S    
Cu8   O5    S    
C22   C53   A    
C17   C24   A    
Cu6   O20   S    
C22   C31   A    
C130  C148  S    
C61   H88   S    
C105  C114  A    
C76   C77   S    
C54   H108  S    
C130  O2    A    
C57   O55   S    
C180  O34   A    
C13   C50   A    
C93   H22   S    
C67   C69   S    
Cu5   Cu8   S    
C128  C137  A    
C7    C135  S    
C2    C49   A    
C141  O15   A    
C138  C147  A    
C6    O42   A    
H38   N4    S    
C97   O10   A    
C161  C170  A    
C135  C144  A    
C177  O58   A    
C128  C172  A    
C14   C16   A    
H34   N3    S    
Cu10  O58   S    
C86   H8    S    
C23   C54   A    
C63   H93   S    
C109  N6    S    
C58   H79   S    
C162  H74   S    
C9    C44   A    
C96   C120  A    
C136  C145  A    
Cu1   Cu9   S    
C80   C81   S    
C152  O16   A    
C157  C166  A    
C76   H124  S    
C155  C164  A    
C84   H140  S    
C66   H101  S    
Cu8   O22   S    
C95   H28   S    
H45   N8    S    
C48   H1    S    
C151  C160  A    
C62   H89   S    
Cu4   O29   S    
C6    C134  S    
C140  C149  A    
H32   N2    S    
Cu9   O6    S    
C17   C19   A    
C30   C177  S    
C175  O19   A    
C32   C40   A    
Cu11  O8    S    
C52   H86   S    
C177  O21   A    
C145  H66   S    
C83   O53   S    
H36   N3    S    
C40   O46   S    
C21   C52   A    
