data_mof_unit_50997.cif
_audit_creation_date              2012-12-10T21:11:29-0500
_audit_creation_method            fapswitch 2.2
_symmetry_space_group_name_H-M    P1
_symmetry_Int_Tables_number       1
_space_group_crystal_system       triclinic
_cell_length_a                    17.509757
_cell_length_b                    16.678914
_cell_length_c                    10.628839
_cell_angle_alpha                 89.960918
_cell_angle_beta                  89.969838
_cell_angle_gamma                 89.988404
_cell_volume                      3104.08458392

loop_
_atom_site_label
_atom_site_type_symbol
_atom_type_description
_atom_site_fract_x
_atom_site_fract_y
_atom_site_fract_z
_atom_type_partial_charge
C1    C     C_R   0.352865 0.500007 0.501941 0.901402
C2    C     C_R   0.647123 0.499988 0.502273 0.900533
C3    C     C_R   0.885454 0.500407 0.566357 -0.004943
C4    C     C_R   0.114516 0.499297 0.566214 -0.004675
C5    C     C_1   0.966082 0.500054 0.577056 -0.065477
C6    C     C_1   0.033886 0.499630 0.577012 -0.065425
C7    C     C_R   0.460236 0.832468 0.407650 -0.277497
C8    C     C_R   0.540176 0.167597 0.592087 -0.277422
C9    C     C_R   0.539828 0.832311 0.592486 -0.277674
C10   C     C_R   0.459902 0.167631 0.408048 -0.277431
C11   C     C_R   0.460838 0.748091 0.409384 -0.001308
C12   C     C_R   0.539524 0.251974 0.590264 -0.001418
C13   C     C_R   0.539187 0.747938 0.590656 -0.001010
C14   C     C_R   0.460512 0.252005 0.409770 -0.000486
C15   C     C_R   0.500039 0.875571 0.500094 0.165538
C16   C     C_R   0.500045 0.124432 0.500096 0.165508
C17   C     C_1   0.500055 0.963394 0.500130 -0.054666
C18   C     C_1   0.500058 0.036610 0.500132 -0.054688
C19   C     C_R   0.511946 0.500032 0.259965 0.901208
C20   C     C_R   0.487491 0.499967 0.739716 0.900581
C21   C     C_R   0.540551 0.647863 0.109853 -0.132291
C22   C     C_R   0.457486 0.352310 0.889291 -0.130831
C23   C     C_R   0.456154 0.647251 0.888883 -0.131504
C24   C     C_R   0.541863 0.352549 0.110278 -0.131987
C25   C     C_R   0.520280 0.720207 0.053206 -0.166748
C26   C     C_R   0.477551 0.279874 0.945803 -0.166792
C27   C     C_R   0.475570 0.719888 0.945192 -0.166022
C28   C     C_R   0.522249 0.280002 0.053830 -0.166756
C29   C     C_R   0.481656 0.573519 0.940240 0.089692
C30   C     C_R   0.516468 0.426419 0.059205 0.088766
C31   C     C_R   0.515788 0.573741 0.059034 0.089359
C32   C     C_R   0.482342 0.426299 0.940405 0.089328
C33   C     C_R   0.475292 0.499881 0.875442 -0.265581
C34   C     C_R   0.523167 0.500111 0.123975 -0.266860
C35   C     C_R   0.847699 0.574180 0.547521 0.234748
C36   C     C_R   0.152215 0.425648 0.546024 0.234646
C37   C     C_R   0.153596 0.573240 0.564170 0.232703
C38   C     C_R   0.846430 0.426448 0.563055 0.232090
C39   C     C_R   0.769072 0.572781 0.524734 -0.231743
C40   C     C_R   0.230852 0.427160 0.523237 -0.232345
C41   C     C_R   0.231953 0.572427 0.538649 -0.230569
C42   C     C_R   0.768088 0.427399 0.537577 -0.226494
C43   C     C_R   0.729665 0.499969 0.518907 -0.144930
C44   C     C_R   0.270322 0.499977 0.518677 -0.147858
H1    H     H_    0.540479 0.223907 0.095396 0.138145
H2    H     H_    0.457279 0.775903 0.903433 0.137718
H3    H     H_    0.459737 0.223680 0.904224 0.138015
H4    H     H_    0.538041 0.776480 0.094582 0.137823
H5    H     H_    0.576420 0.650425 0.192629 0.151805
H6    H     H_    0.421839 0.349983 0.806218 0.152016
H7    H     H_    0.420558 0.649202 0.805712 0.150369
H8    H     H_    0.577672 0.350361 0.193163 0.152188
N1    N     N_R   0.500000 0.707230 0.500000 -0.093897
N2    N     N_R   0.500000 0.292770 0.500000 -0.093483
O1    O     O_R   0.389110 0.566570 0.499990 -0.626623
O2    O     O_R   0.610890 0.433430 0.500010 -0.626866
O3    O     O_R   0.610890 0.566570 0.500010 -0.626097
O4    O     O_R   0.389110 0.433430 0.499990 -0.626389
O5    O     O_R   0.499990 0.566540 0.316770 -0.622216
O6    O     O_R   0.500010 0.433460 0.683230 -0.622955
O7    O     O_R   0.500010 0.566540 0.683230 -0.622720
O8    O     O_R   0.499990 0.433460 0.316770 -0.621973
Zn1   Zn    Zn3+2 0.500000 0.588860 0.500000 0.929697
Zn2   Zn    Zn3+2 0.500000 0.411140 0.500000 0.929699
N3    N     N_2   0.889994 0.647956 0.551441 -0.300917
H9    H     H_    0.942862 0.646738 0.508731 0.240082
C45   C     C_3   0.850955 0.724187 0.540732 -0.806344
H10   H     H_    0.892504 0.773662 0.554862 0.242959
H11   H     H_    0.806274 0.729531 0.614486 0.247401
H12   H     H_    0.825409 0.730589 0.445604 0.238064
N4    N     N_2   0.109844 0.351891 0.548549 -0.301248
H13   H     H_    0.057028 0.353522 0.505783 0.240238
C46   C     C_3   0.148821 0.275715 0.536465 -0.806326
H14   H     H_    0.107212 0.226167 0.549635 0.243040
H15   H     H_    0.193421 0.269710 0.610160 0.247598
H16   H     H_    0.174458 0.270082 0.441250 0.238080
N5    N     N_2   0.112642 0.646701 0.585398 -0.303484
H17   H     H_    0.068178 0.643191 0.648830 0.235328
C47   C     C_3   0.152797 0.722571 0.587983 -0.808790
H18   H     H_    0.111242 0.772015 0.602625 0.242024
H19   H     H_    0.181926 0.733363 0.496688 0.247905
H20   H     H_    0.194641 0.723393 0.666517 0.238829
N6    N     N_2   0.887417 0.352849 0.583002 -0.303339
H21   H     H_    0.931986 0.355938 0.646200 0.235696
C48   C     C_3   0.847242 0.276977 0.584868 -0.810085
H22   H     H_    0.888790 0.227441 0.598803 0.242041
H23   H     H_    0.818058 0.266689 0.493555 0.247691
H24   H     H_    0.805445 0.275737 0.663532 0.239249
H25   H     H_    0.738011 0.628023 0.510231 0.175329
H26   H     H_    0.261869 0.372014 0.507670 0.175839
H27   H     H_    0.264002 0.627772 0.536414 0.175713
H28   H     H_    0.736087 0.372048 0.534354 0.175124
H29   H     H_    0.428891 0.863723 0.334752 0.139145
H30   H     H_    0.571815 0.136392 0.664692 0.138906
H31   H     H_    0.571196 0.863442 0.665408 0.139116
H32   H     H_    0.428289 0.136450 0.335467 0.139108
H33   H     H_    0.429899 0.715232 0.338031 0.140576
H34   H     H_    0.570724 0.284887 0.661254 0.138748
H35   H     H_    0.570127 0.714957 0.661960 0.140211
H36   H     H_    0.429319 0.284941 0.338718 0.139563

loop_
_geom_bond_atom_site_label_1
_geom_bond_atom_site_label_2
_ccdc_geom_bond_type
C24   H8    S    
C4    C36   A    
C38   N6    S    
C46   H14   S    
C21   H5    S    
C2    O3    A    
C48   H22   S    
C7    C11   A    
C21   C31   A    
C22   C32   A    
C23   C29   A    
C38   C42   A    
C5    C6    T    
C35   N3    S    
C19   O8    A    
C29   C33   A    
C20   O7    A    
O7    Zn1   S    
C9    C13   A    
O8    Zn2   S    
C3    C38   A    
N3    C45   S    
O1    Zn1   S    
O2    Zn2   S    
C3    C35   A    
C20   O6    A    
C9    H31   S    
C12   H34   S    
C11   N1    A    
C36   N4    S    
C22   H6    S    
N5    C47   S    
C8    C16   A    
C37   C41   A    
C46   H15   S    
O3    Zn1   S    
C13   N1    A    
C48   H23   S    
O4    Zn2   S    
C7    H29   S    
C28   H1    S    
C30   C34   A    
C45   H10   S    
C36   C40   A    
C8    H30   S    
C4    C6    S    
C10   C14   A    
C47   H19   S    
C39   C43   A    
C19   O5    A    
N5    H17   S    
C37   N5    S    
C45   H11   S    
C13   H35   S    
C35   C39   A    
C1    C44   S    
C23   H7    S    
N6    H21   S    
C10   H32   S    
C2    C43   S    
C8    C12   A    
C17   C18   T    
C31   C34   A    
C25   H4    S    
C26   H3    S    
C20   C33   S    
C27   H2    S    
C41   H27   S    
C23   C27   A    
C41   C44   A    
C42   C43   A    
C14   N2    A    
N4    C46   S    
C48   H24   S    
C15   C17   S    
C21   C25   A    
N6    C48   S    
O5    Zn1   S    
C24   C28   A    
C3    C5    S    
C19   C34   S    
C47   H20   S    
C14   H36   S    
C25   C27   A    
C26   C28   A    
O6    Zn2   S    
C11   H33   S    
C45   H12   S    
C32   C33   A    
C9    C15   A    
N4    H13   S    
C29   C31   A    
C2    O2    A    
C1    O4    A    
C30   C32   A    
N1    Zn1   S    
N2    Zn2   S    
C7    C15   A    
C46   H16   S    
C42   H28   S    
C1    O1    A    
C24   C30   A    
C47   H18   S    
C40   C44   A    
C4    C37   A    
C16   C18   S    
N3    H9    S    
C22   C26   A    
C10   C16   A    
C40   H26   S    
C39   H25   S    
C12   N2    A    
