data_mof_unit_8449.cif
_audit_creation_date              2012-12-11T17:03:22-0500
_audit_creation_method            fapswitch 2.2
_symmetry_space_group_name_H-M    P1
_symmetry_Int_Tables_number       1
_space_group_crystal_system       triclinic
_cell_length_a                    16.543873
_cell_length_b                    7.105582
_cell_length_c                    15.337583
_cell_angle_alpha                 90.000072
_cell_angle_beta                  94.539307
_cell_angle_gamma                 90.00021
_cell_volume                      1797.33638034

loop_
_atom_site_label
_atom_site_type_symbol
_atom_type_description
_atom_site_fract_x
_atom_site_fract_y
_atom_site_fract_z
_atom_type_partial_charge
O1    O     O_R   0.413460 0.494300 0.415980 -0.540141
O2    O     O_R   0.586540 0.994300 0.584020 -0.540161
O3    O     O_R   0.577100 0.822370 0.413730 -0.536472
O4    O     O_R   0.422900 0.322370 0.586270 -0.536483
C1    C     C_R   0.603240 0.655208 0.392837 0.705762
C2    C     C_R   0.396760 0.155205 0.607163 0.705824
O5    O     O_R   0.413490 0.823910 0.405510 -0.545420
O6    O     O_R   0.586510 0.323910 0.594490 -0.545415
O7    O     O_R   0.421770 0.995890 0.575740 -0.531778
O8    O     O_R   0.578230 0.495890 0.424260 -0.531787
C3    C     C_R   0.384516 0.654580 0.384426 0.690511
C4    C     C_R   0.615483 0.154578 0.615575 0.690521
O9    O     O_3   0.502910 0.661350 0.555860 -0.376274
O10   O     O_3   0.497090 0.161350 0.444140 -0.376274
V1    V     V_3+5 0.499460 0.935550 0.489640 1.353106
V2    V     V_3+5 0.500540 0.435550 0.510360 1.353105
C5    C     C_R   0.755748 0.037604 0.670843 0.023398
C6    C     C_R   0.244225 0.537731 0.329187 0.023434
C7    C     C_R   0.685352 0.143653 0.682706 -0.096184
C8    C     C_R   0.314644 0.643670 0.317299 -0.096147
C9    C     C_R   0.684940 0.246809 0.761052 -0.201709
C10   C     C_R   0.315075 0.746746 0.238932 -0.201587
C11   C     C_R   0.751237 0.240829 0.825037 -0.190214
C12   C     C_R   0.248780 0.740746 0.174944 -0.190282
C13   C     C_R   0.819049 0.125950 0.813785 -0.104978
C14   C     C_R   0.180943 0.625969 0.186225 -0.105001
C15   C     C_R   0.821272 0.033066 0.733797 -0.011163
C16   C     C_R   0.178687 0.533227 0.266247 -0.011048
C17   C     C_3   0.845020 0.835687 0.714982 -0.106735
C18   C     C_3   0.154904 0.335899 0.285120 -0.106862
C19   C     C_3   0.770377 0.834843 0.646081 0.121752
C20   C     C_3   0.229553 0.335031 0.354013 0.121736
C21   C     C_1   0.166624 0.120387 0.832056 -0.202031
C22   C     C_1   0.833400 0.620395 0.167972 -0.201804
C23   C     C_1   0.219955 0.128059 0.781467 -0.012994
C24   C     C_1   0.780080 0.628080 0.218574 -0.012969
C25   C     C_1   0.282592 0.137516 0.721763 0.005769
C26   C     C_1   0.717444 0.637543 0.278277 0.005837
C27   C     C_1   0.335004 0.145789 0.670107 -0.189287
C28   C     C_1   0.665015 0.645805 0.329914 -0.189355
O11   O     O_R   0.921840 0.772560 0.075830 -0.529895
O12   O     O_R   0.078160 0.272560 0.924170 -0.529848
O13   O     O_R   0.086520 0.441250 0.094510 -0.542946
O14   O     O_R   0.913480 0.941250 0.905490 -0.542902
C29   C     C_R   0.113959 0.610710 0.116874 0.694378
C30   C     C_R   0.886036 0.110707 0.883132 0.694288
O15   O     O_R   0.922920 0.442940 0.086290 -0.533991
O16   O     O_R   0.077080 0.942940 0.913710 -0.533960
O17   O     O_R   0.913440 0.271120 0.915960 -0.538252
O18   O     O_R   0.086560 0.771120 0.084040 -0.538202
C31   C     C_R   0.896549 0.611528 0.106615 0.717515
C32   C     C_R   0.103458 0.111526 0.893393 0.717531
O19   O     O_3   0.997130 0.604020 0.944190 -0.379129
O20   O     O_3   0.002870 0.104020 0.055810 -0.379279
V3    V     V_3+5 0.000530 0.329760 0.010360 1.383115
V4    V     V_3+5 0.999470 0.829760 0.989640 1.383251
H1    H     H_    0.631524 0.324958 0.774762 0.137914
H2    H     H_    0.368503 0.824822 0.225204 0.137862
H3    H     H_    0.747527 0.318214 0.885422 0.120547
H4    H     H_    0.252509 0.818042 0.114537 0.120557
H5    H     H_    0.837267 0.744373 0.772699 0.143380
H6    H     H_    0.162629 0.244509 0.227420 0.143462
C33   C     C_3   0.932920 0.827875 0.686412 -0.334456
C34   C     C_3   0.973113 0.636924 0.708148 -0.296308
C35   C     C_3   0.058043 0.626797 0.676122 -0.773509
H7    H     H_    0.055006 0.639675 0.603729 0.220582
H8    H     H_    0.096784 0.741104 0.706087 0.233762
H9    H     H_    0.086111 0.489354 0.695139 0.220177
H10   H     H_    0.977872 0.616082 0.779955 0.220724
H11   H     H_    0.936349 0.519515 0.678780 0.182858
H12   H     H_    0.936769 0.860943 0.616559 0.190234
H13   H     H_    0.970030 0.936695 0.723293 0.167287
C36   C     C_3   0.067021 0.328120 0.313748 -0.334871
C37   C     C_3   0.026757 0.137343 0.291791 -0.296236
C38   C     C_3   0.942190 0.126308 0.324664 -0.774528
H14   H     H_    0.945873 0.137692 0.397107 0.220913
H15   H     H_    0.903212 0.241091 0.295593 0.233726
H16   H     H_    0.913986 0.989213 0.305326 0.220304
H17   H     H_    0.021369 0.117686 0.219926 0.221015
H18   H     H_    0.063829 0.019620 0.320374 0.182731
H19   H     H_    0.063250 0.360749 0.383654 0.190756
H20   H     H_    0.029912 0.437225 0.277063 0.167070
C39   C     C_3   0.702865 0.695713 0.670840 -0.299959
C40   C     C_3   0.671422 0.722155 0.763047 -0.341977
C41   C     C_3   0.579137 0.707809 0.761677 -0.710368
H21   H     H_    0.550385 0.833130 0.729190 0.236331
H22   H     H_    0.556327 0.579785 0.726522 0.234763
H23   H     H_    0.560906 0.702168 0.829749 0.195516
H24   H     H_    0.699446 0.615118 0.808322 0.178472
H25   H     H_    0.689179 0.857715 0.793813 0.213658
H26   H     H_    0.652078 0.700107 0.619526 0.217975
H27   H     H_    0.727546 0.551102 0.667351 0.153940
C42   C     C_3   0.297015 0.195735 0.329287 -0.299907
C43   C     C_3   0.328461 0.222039 0.237072 -0.341942
C44   C     C_3   0.420743 0.207683 0.238439 -0.710226
H28   H     H_    0.449497 0.333105 0.270841 0.236308
H29   H     H_    0.443561 0.079752 0.273677 0.234870
H30   H     H_    0.438963 0.201835 0.170359 0.195439
H31   H     H_    0.300435 0.114952 0.191833 0.178528
H32   H     H_    0.310703 0.357550 0.206260 0.213609
H33   H     H_    0.347808 0.200091 0.380598 0.217889
H34   H     H_    0.272281 0.051170 0.332806 0.153885
C45   C     C_3   0.786606 0.823892 0.547820 -0.348637
C46   C     C_3   0.812362 0.626614 0.518586 -0.298416
C47   C     C_3   0.873358 0.636741 0.449010 -0.765733
H35   H     H_    0.850408 0.729459 0.394433 0.236877
H36   H     H_    0.932156 0.693119 0.477629 0.222075
H37   H     H_    0.883709 0.493753 0.422947 0.218569
H38   H     H_    0.839443 0.543594 0.574299 0.195084
H39   H     H_    0.757918 0.547698 0.492045 0.177791
H40   H     H_    0.730007 0.863070 0.508113 0.156784
H41   H     H_    0.831171 0.933031 0.531678 0.168265
C48   C     C_3   0.213331 0.324278 0.452280 -0.348940
C49   C     C_3   0.187362 0.127189 0.481537 -0.298750
C50   C     C_3   0.126638 0.137798 0.551381 -0.765616
H42   H     H_    0.149925 0.230293 0.605900 0.236964
H43   H     H_    0.067846 0.194748 0.523008 0.221864
H44   H     H_    0.116153 0.994870 0.577460 0.218610
H45   H     H_    0.159923 0.044534 0.425872 0.195558
H46   H     H_    0.241757 0.047759 0.507834 0.177814
H47   H     H_    0.269969 0.363189 0.491985 0.156943
H48   H     H_    0.168863 0.433667 0.468394 0.168261

loop_
_geom_bond_atom_site_label_1
_geom_bond_atom_site_label_2
_ccdc_geom_bond_type
C46   H39   S    
C17   C33   S    
C42   C43   S    
C15   C17   S    
C36   C37   S    
C44   H28   S    
O1    C3    A    
O2    C4    A    
C2    O7    A    
C49   C50   S    
C44   H30   S    
C41   H21   S    
C21   C32   S    
C11   H3    S    
C39   H27   S    
C47   H36   S    
C30   O17   A    
C22   C31   S    
C29   O18   A    
C23   C25   S    
C12   C14   A    
C46   H38   S    
C41   H23   S    
C50   H42   S    
C19   C39   S    
C45   H40   S    
C14   C29   S    
C5    C7    A    
C48   H48   S    
C35   H8    S    
O10   V2    S    
C34   H11   S    
C20   C48   S    
C18   C20   S    
C6    C8    A    
C49   H45   S    
O6    C4    A    
C50   H44   S    
O5    V1    S    
C20   C42   S    
O6    V2    S    
C37   H18   S    
C40   H25   S    
C36   H19   S    
C46   C47   S    
O14   C30   A    
C41   H22   S    
C9    C11   A    
C47   H37   S    
C17   H5    S    
C3    C8    S    
C37   C38   S    
C5    C15   A    
C6    C16   A    
C40   C41   S    
O4    C2    A    
C42   H33   S    
C18   C36   S    
O15   C31   A    
C50   H43   S    
O17   V3    S    
O18   V4    S    
C45   H41   S    
C19   C45   S    
O4    V2    S    
O5    C3    A    
C38   H14   S    
O11   V4    S    
C9    H1    S    
O12   V3    S    
C38   H15   S    
O14   V4    S    
C39   C40   S    
C43   H32   S    
C12   H4    S    
C35   H9    S    
O1    V2    S    
C34   H10   S    
O2    V1    S    
O13   C29   A    
O13   V3    S    
C8    C10   A    
C37   H17   S    
O9    V1    S    
C5    C19   S    
C10   C12   A    
C1    C28   S    
C6    C20   S    
C40   H24   S    
C24   C26   S    
C36   H20   S    
O3    V1    S    
O15   V3    S    
C48   C49   S    
O19   V4    S    
O16   V4    S    
O20   V3    S    
C7    C9    A    
O10   V1    S    
C33   H12   S    
O3    C1    A    
C42   H34   S    
C10   H2    S    
C44   H29   S    
C13   C15   A    
C39   H26   S    
C47   H35   S    
C14   C16   A    
C34   C35   S    
C18   H6    S    
O7    V1    S    
C1    O8    A    
C17   C19   S    
O8    V2    S    
C26   C28   T    
C43   H31   S    
C4    C7    S    
C16   C18   S    
C21   C23   T    
C22   C24   T    
C11   C13   A    
C43   C44   S    
C38   H16   S    
C33   C34   S    
O16   C32   A    
C48   H47   S    
C33   H13   S    
C25   C27   T    
C35   H7    S    
O9    V2    S    
C45   C46   S    
C2    C27   S    
C13   C30   S    
O11   C31   A    
C49   H46   S    
O12   C32   A    
