data_mof_unit_37507.cif
_audit_creation_date              2012-12-10T18:06:40-0500
_audit_creation_method            fapswitch 2.2
_symmetry_space_group_name_H-M    P1
_symmetry_Int_Tables_number       1
_space_group_crystal_system       triclinic
_cell_length_a                    12.564644
_cell_length_b                    12.941106
_cell_length_c                    15.393718
_cell_angle_alpha                 82.363707
_cell_angle_beta                  99.811416
_cell_angle_gamma                 97.163599
_cell_volume                      2431.15776771

loop_
_atom_site_label
_atom_site_type_symbol
_atom_type_description
_atom_site_fract_x
_atom_site_fract_y
_atom_site_fract_z
_atom_type_partial_charge
C1    C     C_R   0.442571 0.307718 0.509035 0.879229
C2    C     C_R   0.437066 0.551434 0.091084 0.099343
C3    C     C_R   0.325581 0.532343 0.056117 0.118185
C4    C     C_R   0.515842 0.565553 0.033747 0.090137
C5    C     C_R   0.483219 0.539275 0.946403 0.053404
C6    C     C_R   0.371753 0.532158 0.910679 -0.207532
C7    C     C_R   0.293733 0.529954 0.964984 -0.186035
C8    C     C_R   0.625680 0.603117 0.060468 -0.190820
C9    C     C_R   0.701522 0.608838 0.003437 -0.169832
C10   C     C_R   0.671702 0.570023 0.921468 0.168687
C11   C     C_R   0.563419 0.526595 0.895702 0.000861
C12   C     C_R   0.433266 0.510366 0.335758 0.808621
C13   C     C_R   0.748111 0.574861 0.864263 -0.165806
C14   C     C_R   0.715717 0.541905 0.780443 -0.235731
C15   C     C_R   0.540019 0.471317 0.820545 -0.088242
C16   C     C_R   0.574481 0.933329 0.318896 -0.078967
C17   C     C_R   0.576035 0.802679 0.449773 -0.161810
C18   C     C_R   0.347600 0.150764 0.583426 -0.109766
C19   C     C_R   0.331993 0.042161 0.601589 -0.101087
C20   C     C_R   0.382310 0.979583 0.557240 -0.099101
C21   C     C_R   0.445293 0.025593 0.491386 0.125154
C22   C     C_R   0.442950 0.132284 0.462558 0.045843
C23   C     C_R   0.554095 0.692378 0.483604 0.815655
C24   C     C_R   0.508484 0.967964 0.451960 0.047483
C25   C     C_R   0.532405 0.003950 0.364694 0.005014
C26   C     C_R   0.514420 0.109516 0.329645 0.095523
C27   C     C_R   0.475953 0.172768 0.381253 -0.229954
C28   C     C_R   0.548837 0.875984 0.498032 -0.095271
C29   C     C_R   0.593210 0.831539 0.360807 -0.052353
C30   C     C_R   0.406441 0.196108 0.515756 -0.121383
C31   C     C_R   0.145921 0.627639 0.638635 -0.101151
C32   C     C_R   0.756511 0.375898 0.399263 -0.042068
C33   C     C_R   0.850202 0.332326 0.391927 -0.126879
C34   C     C_R   0.565802 0.487622 0.664037 0.930329
C35   C     C_R   0.948846 0.365397 0.444791 -0.005041
C36   C     C_R   0.952711 0.453797 0.492515 -0.014776
C37   C     C_R   0.853999 0.488310 0.502109 0.231765
C38   C     C_R   0.049704 0.508982 0.531553 0.037286
C39   C     C_R   0.047506 0.579221 0.595202 0.079154
C40   C     C_R   0.947088 0.603264 0.609424 -0.287392
C41   C     C_R   0.852589 0.561489 0.560928 -0.135181
C42   C     C_R   0.148204 0.503291 0.503665 0.039447
C43   C     C_R   0.241855 0.611291 0.611166 0.010407
C44   C     C_R   0.391065 0.518078 0.240298 -0.154442
C45   C     C_R   0.610282 0.493384 0.757280 -0.046260
C46   C     C_R   0.247738 0.510071 0.112894 -0.159518
C47   C     C_R   0.279404 0.498268 0.205211 -0.007367
C48   C     C_R   0.467360 0.545780 0.182914 -0.257212
H1    H     H_    0.208577 0.519800 0.936464 0.151396
H2    H     H_    0.830498 0.610254 0.882000 0.145653
H3    H     H_    0.316485 0.199175 0.623555 0.216101
H4    H     H_    0.371168 0.895442 0.574145 0.147893
H5    H     H_    0.285326 0.006676 0.652857 0.183531
H6    H     H_    0.466166 0.253479 0.354902 0.162959
H7    H     H_    0.319681 0.644733 0.643052 0.172379
H8    H     H_    0.939765 0.659609 0.653332 0.141193
H9    H     H_    0.154731 0.461734 0.449019 0.122765
H10   H     H_    0.678702 0.347210 0.363903 0.155118
H11   H     H_    0.779296 0.588017 0.571079 0.200022
H12   H     H_    0.771725 0.557436 0.733009 0.154270
H13   H     H_    0.784161 0.641748 0.024277 0.164626
H14   H     H_    0.162892 0.493772 0.085067 0.180727
H15   H     H_    0.551912 0.556072 0.211504 0.178909
H16   H     H_    0.344277 0.527516 0.840586 0.158282
H17   H     H_    0.653766 0.633734 0.123211 0.165075
N1    N     N_R   0.239390 0.551900 0.544730 -0.131136
N2    N     N_R   0.759950 0.448600 0.455730 -0.116671
O1    O     O_R   0.374950 0.371210 0.521360 -0.585317
O2    O     O_R   0.542050 0.338030 0.492790 -0.601022
O3    O     O_R   0.368720 0.526070 0.390200 -0.628380
O4    O     O_R   0.535820 0.492890 0.361630 -0.592853
O5    O     O_R   0.457950 0.661970 0.507210 -0.623332
O6    O     O_R   0.625050 0.628790 0.478640 -0.578582
O7    O     O_R   0.464180 0.507110 0.638370 -0.589589
O8    O     O_R   0.631280 0.473930 0.609800 -0.636687
Zn1   Zn    Zn3+2 0.388420 0.522150 0.519080 0.968377
Zn2   Zn    Zn3+2 0.611580 0.477850 0.480920 0.978928
C49   C     C_2   0.624541 0.754632 0.308476 0.503334
H18   H     H_    0.579937 0.744470 0.242825 0.017184
O9    O     O_2   0.704385 0.707804 0.335574 -0.524216
I1    I     I_    0.546410 0.194428 0.205876 -0.380476
C50   C     C_2   0.589487 0.958662 0.224960 0.413174
H19   H     H_    0.520795 0.977033 0.174635 0.098540
O10   O     O_2   0.678175 0.956833 0.203155 -0.504101
C51   C     C_2   0.574326 0.858671 0.597072 0.408875
H20   H     H_    0.580100 0.780229 0.631400 0.051001
O11   O     O_2   0.595435 0.932584 0.641070 -0.525958
C52   C     C_2   0.454923 0.379341 0.815852 0.412803
H21   H     H_    0.409831 0.354066 0.870355 0.093130
O12   O     O_2   0.438545 0.326446 0.753931 -0.566358
C53   C     C_2   0.151906 0.691727 0.713129 0.375487
H22   H     H_    0.084155 0.689034 0.748683 0.073541
O13   O     O_2   0.234645 0.747544 0.737194 -0.572780
C54   C     C_2   0.036743 0.294312 0.464602 0.373723
H23   H     H_    0.056456 0.252833 0.413850 0.137486
O14   O     O_2   0.086521 0.279071 0.539756 -0.566070
C55   C     C_2   0.838792 0.247086 0.334575 0.440727
H24   H     H_    0.764301 0.194731 0.327158 0.106961
O15   O     O_2   0.909830 0.237210 0.292138 -0.524693
C56   C     C_2   0.196190 0.455155 0.261911 0.434572
H25   H     H_    0.218966 0.410437 0.325609 0.055810
O16   O     O_2   0.100338 0.466539 0.236862 -0.546876

loop_
_geom_bond_atom_site_label_1
_geom_bond_atom_site_label_2
_ccdc_geom_bond_type
C17   C29   A    
O2    Zn2   S    
C35   C36   A    
N2    Zn2   S    
C32   H10   S    
C4    C8    A    
C55   H24   S    
C27   H6    S    
C51   H20   S    
C26   C27   A    
C17   C23   S    
C31   C43   A    
C46   H14   S    
C9    H13   S    
C36   C37   A    
C5    C11   A    
C3    C7    A    
C5    C6    A    
C49   O9    D    
C1    O1    A    
C18   C19   A    
C6    H16   S    
C1    C30   S    
C11   C15   A    
C29   C49   S    
C19   C20   A    
C8    C9    A    
C40   H8    S    
C18   C30   A    
C9    C10   A    
C53   H22   S    
C44   C47   A    
O5    Zn1   S    
C34   O8    A    
C19   H5    S    
C8    H17   S    
C21   C22   A    
C23   O6    A    
C42   H9    S    
C56   O16   D    
C55   O15   D    
C18   H3    S    
C14   C45   A    
C51   O11   D    
C24   C25   A    
C41   H11   S    
C39   C40   A    
C49   H18   S    
C48   H15   S    
C2    C48   A    
C16   C29   A    
C1    O2    A    
C47   C56   S    
C2    C4    A    
C53   O13   D    
N1    Zn1   S    
C16   C50   S    
C34   C45   S    
C52   H21   S    
C54   O14   D    
O8    Zn2   S    
C7    H1    S    
O7    Zn1   S    
C34   O7    A    
C32   N2    A    
C43   H7    S    
C40   C41   A    
C12   O4    A    
C52   O12   D    
C26   I1    S    
C31   C53   S    
C22   C27   A    
O3    Zn1   S    
C15   C45   A    
O4    Zn2   S    
C35   C54   S    
C16   C25   A    
C12   O3    A    
C46   C47   A    
C22   C30   A    
C17   C28   A    
C23   O5    A    
C24   C28   A    
C4    C5    A    
C10   C13   A    
C38   C42   A    
C6    C7    A    
O1    Zn1   S    
C14   H12   S    
C3    C46   A    
C50   O10   D    
C32   C33   A    
C36   C38   A    
C2    C3    A    
C25   C26   A    
C12   C44   S    
C38   C39   A    
C43   N1    A    
C37   N2    A    
C56   H25   S    
C33   C35   A    
C31   C39   A    
C33   C55   S    
C37   C41   A    
C54   H23   S    
C10   C11   A    
C13   H2    S    
C20   C21   A    
C20   H4    S    
C50   H19   S    
C21   C24   A    
C28   C51   S    
C42   N1    A    
O6    Zn2   S    
C13   C14   A    
C44   C48   A    
C15   C52   S    
