data_mof_unit_41347.cif
_audit_creation_date              2012-12-11T17:17:00-0500
_audit_creation_method            fapswitch 2.2
_symmetry_space_group_name_H-M    P1
_symmetry_Int_Tables_number       1
_space_group_crystal_system       triclinic
_cell_length_a                    6.941546
_cell_length_b                    13.370273
_cell_length_c                    14.672387
_cell_angle_alpha                 98.856003
_cell_angle_beta                  89.729853
_cell_angle_gamma                 90.347151
_cell_volume                      1345.48077164

loop_
_atom_site_label
_atom_site_type_symbol
_atom_type_description
_atom_site_fract_x
_atom_site_fract_y
_atom_site_fract_z
_atom_type_partial_charge
O1    O     O_R   0.354890 0.151580 0.148210 -0.535072
O2    O     O_R   0.645110 0.848420 0.851790 -0.535072
O3    O     O_R   0.682370 0.152980 0.336770 -0.544743
O4    O     O_R   0.317630 0.847020 0.663230 -0.544743
O5    O     O_R   0.854980 0.348430 0.351800 -0.539053
O6    O     O_R   0.145020 0.651570 0.648200 -0.539053
C1    C     C_R   0.513220 0.131292 0.366427 0.668951
C2    C     C_R   0.486780 0.868708 0.633572 0.668950
O7    O     O_R   0.684450 0.139580 0.148000 -0.532237
O8    O     O_R   0.315550 0.860420 0.852000 -0.532237
O9    O     O_R   0.857080 0.334940 0.161680 -0.525800
O10   O     O_R   0.142920 0.665060 0.838320 -0.525800
C3    C     C_R   0.515546 0.112709 0.114000 0.756088
C4    C     C_R   0.484454 0.887291 0.886000 0.756089
O11   O     O_R   0.352790 0.165070 0.338330 -0.542358
O12   O     O_R   0.647210 0.834930 0.661670 -0.542357
O13   O     O_3   0.522170 0.314120 0.254710 -0.370576
O14   O     O_3   0.477830 0.685880 0.745290 -0.370576
V1    V     V_3+5 0.796120 0.238110 0.249130 1.445859
V2    V     V_3+5 0.203880 0.761890 0.750870 1.445859
O15   O     O_R   0.186930 0.347040 0.163240 -0.546900
O16   O     O_R   0.813070 0.652960 0.836760 -0.546900
C5    C     C_R   0.018762 0.368552 0.133514 0.742667
C6    C     C_R   0.981238 0.631448 0.866486 0.742667
O17   O     O_R   0.184850 0.360440 0.352010 -0.540977
O18   O     O_R   0.815150 0.639560 0.647990 -0.540977
C7    C     C_R   0.015817 0.387340 0.385977 0.719524
C8    C     C_R   0.984183 0.612660 0.614023 0.719524
V3    V     V_3+5 0.296410 0.261900 0.250880 1.425829
V4    V     V_3+5 0.703590 0.738100 0.749120 1.425829
O19   O     O_3   0.020490 0.185890 0.245290 -0.370997
O20   O     O_3   0.979510 0.814110 0.754710 -0.370997
C9    C     C_1   0.005134 0.466911 0.466338 -0.196436
C10   C     C_1   0.994866 0.533088 0.533662 -0.196436
C11   C     C_3   0.099267 0.582997 0.028355 0.559557
C12   C     C_3   0.900733 0.417003 0.971645 0.559557
C13   C     C_3   0.925082 0.547025 0.080764 -0.283521
C14   C     C_3   0.074918 0.452975 0.919236 -0.283522
H1    H     H_    0.866396 0.585553 0.147450 0.120942
H2    H     H_    0.133603 0.414447 0.852550 0.120941
C15   C     C_3   0.010529 0.438900 0.063085 -0.123957
C16   C     C_3   0.989471 0.561099 0.936914 -0.123958
C17   C     C_3   0.186817 0.475844 0.011797 -0.254619
C18   C     C_3   0.813183 0.524156 0.988203 -0.254618
H3    H     H_    0.339438 0.456191 0.022245 0.138437
H4    H     H_    0.660562 0.543810 0.977755 0.138438
C19   C     C_3   0.319200 0.026026 0.481712 -0.114569
C20   C     C_3   0.680800 0.973974 0.518288 -0.114569
C21   C     C_3   0.398122 0.916561 0.467739 -0.142826
C22   C     C_3   0.601878 0.083439 0.532261 -0.142825
H5    H     H_    0.314143 0.847232 0.441567 0.097103
H6    H     H_    0.685857 0.152767 0.558433 0.097103
H7    H     H_    0.169967 0.047615 0.466370 0.108482
H8    H     H_    0.830033 0.952385 0.533630 0.108482
C23   C     C_3   0.496029 0.938732 0.562717 -0.001607
C24   C     C_3   0.503971 0.061268 0.437283 -0.001607
C25   C     C_3   0.417067 0.047371 0.577494 -0.144625
C26   C     C_3   0.582933 0.952629 0.422505 -0.144625
H9    H     H_    0.348992 0.086041 0.641917 0.099863
H10   H     H_    0.651007 0.913959 0.358083 0.099863
C27   C     C_1   0.504951 0.033111 0.033653 -0.173288
C28   C     C_1   0.495049 0.966888 0.966347 -0.173287
O21   O     O_3   0.201061 0.674639 0.053795 -0.553402
C29   C     C_3   0.301111 0.671185 0.136531 -0.269087
H11   H     H_    0.416484 0.613163 0.126461 0.134821
H12   H     H_    0.201938 0.657338 0.193118 0.126167
H13   H     H_    0.371644 0.745672 0.158193 0.162354
O22   O     O_3   0.798939 0.325361 0.946205 -0.553403
C30   C     C_3   0.698883 0.328816 0.863469 -0.269058
H14   H     H_    0.798057 0.342668 0.806878 0.126156
H15   H     H_    0.583499 0.386840 0.873543 0.134812
H16   H     H_    0.628356 0.254325 0.841809 0.162354

loop_
_geom_bond_atom_site_label_1
_geom_bond_atom_site_label_2
_ccdc_geom_bond_type
C20   C23   S    
V4    O20   S    
C6    C16   S    
O4    C2    A    
V1    O19   S    
C19   C21   S    
C7    C9    S    
C20   H8    S    
O9    V1    S    
C11   C13   S    
C14   C16   S    
O3    C1    A    
C25   H9    S    
C26   H10   S    
C4    C28   S    
O13   V3    S    
O9    C5    A    
C30   H15   S    
C11   C16   S    
O7    C3    A    
O5    C7    A    
O7    V1    S    
O6    C8    A    
O8    V2    S    
O22   C30   S    
C21   H5    S    
C22   H6    S    
O3    V1    S    
O14   V4    S    
C11   C17   S    
C19   H7    S    
C20   C22   S    
C8    C10   S    
C2    O12   A    
C15   C17   S    
C12   C15   S    
C27   C28   T    
C16   C18   S    
C1    C24   S    
C2    C23   S    
C18   H4    S    
O11   V3    S    
O17   V3    S    
C29   H13   S    
O8    C4    A    
C21   C23   S    
O15   V3    S    
C22   C24   S    
C21   C26   S    
C29   H12   S    
C30   H16   S    
C19   C25   S    
O10   V2    S    
O1    V3    S    
C9    C10   T    
C17   H3    S    
O18   V4    S    
C23   C25   S    
O16   C6    A    
C12   C18   S    
O1    C3    A    
C12   C14   S    
V2    O20   S    
O16   V4    S    
C22   C25   S    
C12   O22   S    
C20   C26   S    
O5    V1    S    
O17   C7    A    
O6    V2    S    
O10   C6    A    
O18   C8    A    
C5    C15   S    
O2    V4    S    
C29   H11   S    
C13   C18   S    
O15   C5    A    
C14   C17   S    
V3    O19   S    
C14   H2    S    
C1    O11   A    
O13   V1    S    
C24   C26   S    
O14   V2    S    
C13   C15   S    
C30   H14   S    
O2    C4    A    
O21   C29   S    
O4    V2    S    
C3    C27   S    
C13   H1    S    
C11   O21   S    
O12   V4    S    
C19   C24   S    
