data_mof_unit_31001.cif
_audit_creation_date              2012-12-11T14:10:59-0500
_audit_creation_method            fapswitch 2.2
_symmetry_space_group_name_H-M    P1
_symmetry_Int_Tables_number       1
_space_group_crystal_system       triclinic
_cell_length_a                    19.693327
_cell_length_b                    17.169482
_cell_length_c                    15.537901
_cell_angle_alpha                 89.812453
_cell_angle_beta                  52.581382
_cell_angle_gamma                 90.088988
_cell_volume                      4172.54746087

loop_
_atom_site_label
_atom_site_type_symbol
_atom_type_description
_atom_site_fract_x
_atom_site_fract_y
_atom_site_fract_z
_atom_type_partial_charge
C1    C     C_R   0.336828 0.172076 0.052246 -0.131554
C2    C     C_3   0.759934 0.750595 0.444165 -0.152088
C3    C     C_2   0.181979 0.936877 0.572264 0.597379
C4    C     C_2   0.859773 0.647129 0.536393 0.608351
C5    C     C_2   0.247637 0.400818 0.421133 0.528810
C6    C     C_2   0.223075 0.623294 0.442749 0.488261
C7    C     C_2   0.682596 0.436837 0.572432 0.597910
C8    C     C_3   0.667457 0.269529 0.456863 -0.201819
C9    C     C_3   0.232279 0.788979 0.566707 -0.067229
C10   C     C_3   0.841216 0.798861 0.523874 -0.217935
C11   C     C_3   0.259948 0.250779 0.444130 -0.151970
C12   C     C_3   0.167780 0.769095 0.456628 -0.202651
C13   C     C_3   0.732341 0.288666 0.566585 -0.068807
C14   C     C_2   0.289341 0.685624 0.950533 -0.174555
C15   C     C_2   0.812927 0.255125 0.900545 -0.197502
C16   C     C_2   0.711616 0.685969 0.048102 -0.171201
C17   C     C_R   0.621882 0.802185 0.010978 -0.091695
C18   C     C_2   0.188451 0.255280 0.097814 -0.199418
C19   C     C_2   0.789341 0.185626 0.950526 -0.174512
C20   C     C_2   0.312931 0.755121 0.900545 -0.197375
C21   C     C_2   0.211617 0.185971 0.048097 -0.170884
C22   C     C_2   0.688464 0.755286 0.097799 -0.199434
C23   C     C_R   0.349501 0.826582 0.221194 0.001921
C24   C     C_R   0.602536 0.199306 0.789543 -0.085412
C25   C     C_R   0.645110 0.821928 0.776071 -0.048001
C26   C     C_R   0.403999 0.200050 0.206509 -0.056402
C27   C     C_R   0.849476 0.326609 0.221241 0.000297
C28   C     C_R   0.663342 0.172491 0.947549 -0.125950
C29   C     C_R   0.102620 0.699298 0.789528 -0.086424
C30   C     C_R   0.145172 0.321984 0.776064 -0.048174
C31   C     C_R   0.904033 0.700058 0.206480 -0.056486
C32   C     C_R   0.366019 0.889968 0.896136 -0.145676
C33   C     C_R   0.670659 0.086155 0.048281 -0.122718
C34   C     C_R   0.634472 0.889952 0.103319 -0.148834
C35   C     C_R   0.329484 0.086333 0.951370 -0.118679
C36   C     C_R   0.866017 0.389970 0.896137 -0.145827
C37   C     C_R   0.170658 0.586154 0.048286 -0.122770
C38   C     C_R   0.134465 0.389949 0.103327 -0.148866
C39   C     C_R   0.378500 0.801928 0.988708 -0.085457
C40   C     C_R   0.829483 0.586331 0.951372 -0.118942
C41   C     C_R   0.408849 0.107266 0.302793 -0.174495
C42   C     C_R   0.638514 0.917262 0.682261 -0.107804
C43   C     C_R   0.598216 0.106525 0.692925 -0.120101
C44   C     C_R   0.354842 0.922135 0.315010 -0.169129
C45   C     C_R   0.908892 0.607283 0.302762 -0.174709
C46   C     C_R   0.138546 0.417303 0.682268 -0.107413
C47   C     C_R   0.098256 0.606541 0.692913 -0.115178
C48   C     C_R   0.854875 0.422145 0.315025 -0.168910
C49   C     C_R   0.285750 0.145927 0.025258 0.152037
C50   C     C_R   0.836825 0.672070 0.052255 -0.131472
C51   C     C_R   0.651135 0.813685 0.070507 0.150726
C52   C     C_R   0.714636 0.145971 0.974068 0.154024
C53   C     C_R   0.349706 0.813456 0.928583 0.149052
C54   C     C_R   0.785747 0.645923 0.025265 0.152216
C55   C     C_R   0.151120 0.313681 0.070524 0.150738
C56   C     C_R   0.214636 0.645970 0.974074 0.154036
C57   C     C_R   0.849705 0.313458 0.928582 0.149324
C58   C     C_R   0.304486 0.862364 0.322290 0.025786
C59   C     C_R   0.618478 0.183030 0.691816 0.056207
C60   C     C_R   0.684343 0.853425 0.673203 0.024142
C61   C     C_R   0.121867 0.302181 0.010995 -0.091530
C62   C     C_R   0.395624 0.184966 0.300274 0.059055
C63   C     C_R   0.804502 0.362392 0.322341 0.025975
C64   C     C_R   0.118627 0.683018 0.691777 0.056360
C65   C     C_R   0.184423 0.353508 0.673201 0.024405
C66   C     C_R   0.895705 0.684990 0.300217 0.059069
C67   C     C_3   0.327165 0.213236 0.507912 -0.018016
C68   C     C_3   0.774241 0.835648 0.458700 0.006730
C69   C     C_3   0.707574 0.205418 0.482164 0.012089
C70   C     C_3   0.192481 0.853031 0.540761 -0.006249
C71   C     C_3   0.827295 0.713282 0.507838 -0.017768
C72   C     C_R   0.163342 0.672491 0.947554 -0.125627
C73   C     C_3   0.274420 0.335783 0.458650 0.006696
C74   C     C_3   0.208077 0.705318 0.482123 0.014471
C75   C     C_3   0.692709 0.353038 0.540847 -0.006438
C76   C     C_3   0.733543 0.729307 0.557007 -0.109300
C77   C     C_3   0.368610 0.319461 0.409066 -0.174696
C78   C     C_3   0.282406 0.758678 0.450039 -0.179322
C79   C     C_3   0.616630 0.299446 0.575478 -0.216234
C80   C     C_3   0.233465 0.229448 0.557004 -0.109827
C81   C     C_3   0.868477 0.819518 0.409046 -0.174579
C82   C     C_3   0.782190 0.258431 0.449923 -0.176139
C83   C     C_R   0.878500 0.301929 0.988705 -0.085945
C84   C     C_3   0.116680 0.799092 0.575230 -0.218143
C85   C     C_3   0.747752 0.814924 0.571280 0.114432
C86   C     C_3   0.353638 0.234134 0.395388 0.072538
C87   C     C_3   0.242339 0.822813 0.424742 0.058940
C88   C     C_3   0.657702 0.234820 0.598530 0.119844
C89   C     C_3   0.247838 0.315016 0.571266 0.114139
C90   C     C_3   0.853676 0.734141 0.395348 0.072464
C91   C     C_3   0.742298 0.322889 0.424823 0.058263
C92   C     C_3   0.157924 0.734796 0.598484 0.122353
C93   C     C_2   0.338650 0.746097 0.199231 0.458845
C94   C     C_3   0.341252 0.298764 0.523930 -0.217226
C95   C     C_2   0.585397 0.277002 0.839388 0.490388
C96   C     C_2   0.660075 0.744578 0.801627 0.501444
C97   C     C_2   0.417441 0.276674 0.154665 0.476919
C98   C     C_2   0.838500 0.246156 0.199314 0.461907
C99   C     C_2   0.085429 0.776999 0.839381 0.490064
C100  C     C_2   0.160198 0.244646 0.801579 0.501703
C101  C     C_2   0.917462 0.776672 0.154618 0.477006
C102  C     C_2   0.359450 0.146976 0.536574 0.608711
C103  C     C_2   0.747255 0.900550 0.421258 0.526059
C104  C     C_2   0.721988 0.123449 0.442726 0.495773
H1    H     H_    0.322530 0.217723 0.107853 0.084777
H2    H     H_    0.690468 0.052673 0.088555 0.111838
H3    H     H_    0.638899 0.916544 0.162783 0.113475
H4    H     H_    0.309627 0.053182 0.911028 0.120504
H5    H     H_    0.861892 0.416871 0.836403 0.118503
H6    H     H_    0.190464 0.552672 0.088560 0.111743
H7    H     H_    0.138894 0.416543 0.162789 0.113425
H8    H     H_    0.809626 0.553181 0.911029 0.120590
H9    H     H_    0.415042 0.076774 0.358442 0.107391
H10   H     H_    0.649404 0.954496 0.619146 0.148412
H11   H     H_    0.590365 0.078332 0.637430 0.098676
H12   H     H_    0.606649 0.746304 0.995764 0.078597
H13   H     H_    0.342666 0.957964 0.379956 0.129507
H14   H     H_    0.915078 0.576793 0.358420 0.107566
H15   H     H_    0.149410 0.454522 0.619156 0.149713
H16   H     H_    0.090439 0.578384 0.637362 0.099640
H17   H     H_    0.842739 0.457986 0.379937 0.129215
H18   H     H_    0.677639 0.692194 0.616888 0.139501
H19   H     H_    0.425279 0.355868 0.349516 0.176380
H20   H     H_    0.350981 0.741989 0.397656 0.143110
H21   H     H_    0.547961 0.315483 0.629554 0.152807
H22   H     H_    0.177476 0.192418 0.616888 0.139627
H23   H     H_    0.677586 0.218725 0.892260 0.081985
H24   H     H_    0.925063 0.856018 0.349519 0.176642
H25   H     H_    0.850697 0.241513 0.397414 0.143708
H26   H     H_    0.047940 0.814887 0.629183 0.152855
H27   H     H_    0.373149 0.319015 0.559132 0.150671
H28   H     H_    0.726443 0.730680 0.410846 0.140414
H29   H     H_    0.638646 0.263216 0.414197 0.177446
H30   H     H_    0.258653 0.796548 0.612205 0.143728
H31   H     H_    0.873097 0.819222 0.559050 0.150588
H32   H     H_    0.226447 0.230977 0.410778 0.140449
H33   H     H_    0.139032 0.762483 0.413924 0.177973
H34   H     H_    0.393399 0.746090 0.004833 0.082705
H35   H     H_    0.758865 0.295944 0.611949 0.143650
H36   H     H_    0.312182 0.665170 0.994838 0.147903
H37   H     H_    0.791418 0.275299 0.854660 0.137597
H38   H     H_    0.688640 0.665792 0.003922 0.149521
H39   H     H_    0.210201 0.275221 0.143434 0.139980
H40   H     H_    0.812188 0.165169 0.994824 0.147901
H41   H     H_    0.291428 0.775292 0.854652 0.137568
H42   H     H_    0.188649 0.165798 0.003905 0.149539
H43   H     H_    0.710224 0.775232 0.143407 0.140035
H44   H     H_    0.394549 0.709524 0.148754 0.001988
H45   H     H_    0.822520 0.717709 0.107873 0.084774
H46   H     H_    0.568869 0.282638 0.919269 0.000518
H47   H     H_    0.606066 0.707204 0.858567 -0.006556
H48   H     H_    0.435584 0.279555 0.073710 0.008375
H49   H     H_    0.894348 0.209542 0.148753 0.002214
H50   H     H_    0.068895 0.782651 0.919263 0.000741
H51   H     H_    0.106221 0.207215 0.858441 -0.006330
H52   H     H_    0.935599 0.779534 0.073665 0.008403
H53   H     H_    0.426788 0.144007 0.501002 -0.044173
H54   H     H_    0.792685 0.945710 0.368973 0.106692
H55   H     H_    0.685186 0.099306 0.418281 0.049533
H56   H     H_    0.106623 0.246302 0.995791 0.078606
H57   H     H_    0.153377 0.976941 0.548643 -0.034277
H58   H     H_    0.927127 0.644316 0.500781 -0.043983
H59   H     H_    0.293110 0.446046 0.369130 0.104747
H60   H     H_    0.188980 0.599657 0.414149 0.053432
H61   H     H_    0.654091 0.477162 0.548957 -0.034405
H62   H     H_    0.177590 0.718729 0.892270 0.081969
H63   H     H_    0.893399 0.246090 0.004828 0.082461
H64   H     H_    0.361894 0.916868 0.836400 0.118458
N1    N     N_R   0.408680 0.130810 0.995780 -0.059181
N2    N     N_R   0.578590 0.132790 0.846380 -0.074406
N3    N     N_R   0.578590 0.867210 0.846380 -0.080854
N4    N     N_R   0.421410 0.132790 0.153620 -0.077935
N5    N     N_R   0.921410 0.367210 0.153620 -0.085472
N6    N     N_R   0.078590 0.632790 0.846380 -0.074386
N7    N     N_R   0.078590 0.367210 0.846380 -0.080845
N8    N     N_R   0.921410 0.632790 0.153620 -0.077927
N9    N     N_R   0.403840 0.921910 0.935760 -0.043723
N10   N     N_R   0.596160 0.078090 0.064240 -0.042062
N11   N     N_R   0.596160 0.921910 0.064240 -0.041750
N12   N     N_R   0.591320 0.869190 0.004220 -0.056214
N13   N     N_R   0.403840 0.078090 0.935760 -0.044384
N14   N     N_R   0.903840 0.421910 0.935760 -0.043711
N15   N     N_R   0.096160 0.578090 0.064240 -0.042056
N16   N     N_R   0.096160 0.421910 0.064240 -0.041726
N17   N     N_R   0.903840 0.578090 0.935760 -0.044557
N18   N     N_R   0.426250 0.076100 0.213650 -0.037507
N19   N     N_R   0.573750 0.923900 0.786350 -0.048692
N20   N     N_R   0.573750 0.076100 0.786350 -0.042746
N21   N     N_R   0.426250 0.923900 0.213650 -0.042147
N22   N     N_R   0.926250 0.576100 0.213650 -0.037501
N23   N     N_R   0.591320 0.130810 0.004220 -0.058584
N24   N     N_R   0.073750 0.423900 0.786350 -0.048934
N25   N     N_R   0.073750 0.576100 0.786350 -0.043322
N26   N     N_R   0.926250 0.423900 0.213650 -0.042055
N27   N     N_R   0.408680 0.869190 0.995780 -0.058074
N28   N     N_R   0.908680 0.630810 0.995780 -0.059216
N29   N     N_R   0.091320 0.369190 0.004220 -0.056195
N30   N     N_R   0.091320 0.630810 0.004220 -0.058577
N31   N     N_R   0.908680 0.369190 0.995780 -0.058039
N32   N     N_R   0.421410 0.867210 0.153620 -0.085540
Ni1   Ni    Ni4+2 0.500000 0.131570 0.000000 0.203618
Ni2   Ni    Ni4+2 0.500000 0.868430 0.000000 0.191077
Ni3   Ni    Ni4+2 1.000000 0.631570 0.000000 0.203666
Ni4   Ni    Ni4+2 0.000000 0.368430 0.000000 0.191151
Ni5   Ni    Ni4+2 0.488900 1.000000 0.862310 0.227734
Ni6   Ni    Ni4+2 0.511100 1.000000 0.137690 0.219794
Ni7   Ni    Ni4+2 0.988900 0.500000 0.862310 0.227652
Ni8   Ni    Ni4+2 0.011100 0.500000 0.137690 0.219871
O1    O     O_2   0.268633 0.720788 0.232746 -0.615880
O2    O     O_2   0.674937 0.902113 0.447538 -0.608605
O3    O     O_2   0.773584 0.082935 0.441045 -0.617972
O4    O     O_2   0.205596 0.960461 0.624148 -0.509485
O5    O     O_2   0.811111 0.596310 0.599205 -0.513915
O6    O     O_2   0.175422 0.402443 0.447082 -0.609016
O7    O     O_2   0.272181 0.582227 0.445542 -0.618167
O8    O     O_2   0.706425 0.460089 0.624218 -0.509538
O9    O     O_2   0.586722 0.335528 0.793761 -0.560997
O10   O     O_2   0.732512 0.722428 0.760936 -0.566164
O11   O     O_2   0.409656 0.337425 0.199976 -0.613923
O12   O     O_2   0.768415 0.220907 0.233025 -0.615248
O13   O     O_2   0.086702 0.835508 0.793764 -0.560850
O14   O     O_2   0.232650 0.222571 0.760942 -0.566364
O15   O     O_2   0.909665 0.837435 0.199913 -0.613599
O16   O     O_2   0.310646 0.096246 0.599437 -0.513926

loop_
_geom_bond_atom_site_label_1
_geom_bond_atom_site_label_2
_ccdc_geom_bond_type
C78   C87   S    
C42   N19   A    
C23   C58   A    
C14   C56   S    
C99   O13   D    
C10   C85   S    
C102  H53   S    
C19   H40   S    
N25   Ni7   S    
C12   C74   S    
C31   C66   A    
C18   C21   D    
N17   Ni7   S    
C16   H38   S    
C68   C103  S    
C29   N6    A    
C2    C76   S    
C58   C87   S    
C27   N5    A    
C21   C49   S    
C32   C53   A    
C102  O16   D    
C40   H8    S    
N27   Ni2   S    
C61   N29   A    
C33   C52   A    
C65   C89   S    
C62   C86   S    
C34   C51   A    
C50   C54   A    
C75   C79   S    
C80   H22   S    
C93   H44   S    
N5    Ni4   S    
C34   H3    S    
C5    H59   S    
C18   H39   S    
N7    Ni4   S    
C15   C19   D    
C2    C68   S    
C29   C64   A    
C71   C76   S    
N23   Ni1   S    
C11   C86   S    
C37   N15   A    
C99   H50   S    
C30   C100  S    
C77   C94   S    
C80   C89   S    
C38   N16   A    
C12   C84   S    
N29   Ni4   S    
N14   Ni7   S    
C55   C61   A    
C74   C92   S    
C89   C94   S    
C2    C90   S    
C9    C92   S    
C59   C88   S    
N2    Ni1   S    
C35   H4    S    
C43   H11   S    
C67   C86   S    
C15   H37   S    
C37   C56   A    
C50   N28   A    
C19   C52   S    
C42   H10   S    
C38   C55   A    
C13   C75   S    
C44   C58   A    
C56   C72   A    
C35   C49   A    
C8    C79   S    
C2    H28   S    
C97   O11   D    
C69   C82   S    
C25   C60   A    
C70   C84   S    
C74   C78   S    
C7    O8    D    
C28   H23   S    
C43   C59   A    
N18   Ni6   S    
C46   N24   A    
C9    H30   S    
C25   N3    A    
C79   H21   S    
C98   H49   S    
C26   N4    A    
C5    C73   S    
N15   Ni8   S    
C15   C57   S    
N8    Ni3   S    
C17   C51   A    
C34   N11   A    
C41   C62   A    
N11   Ni6   S    
C70   C87   S    
C103  O2    D    
C79   C88   S    
C6    C74   S    
C31   N8    A    
C45   H14   S    
C46   H15   S    
N20   Ni5   S    
N15   N30   A    
C33   H2    S    
C14   C20   D    
C3    C70   S    
C9    C70   S    
C46   C65   A    
C66   C90   S    
C36   C57   A    
C11   C73   S    
C24   C95   S    
C42   C60   A    
N7    N24   A    
C8    C91   S    
C29   C99   S    
C48   C63   A    
C7    C75   S    
C40   N17   A    
C1    N1    A    
C101  H52   S    
C96   H47   S    
C83   H63   S    
C13   C82   S    
C82   C91   S    
C23   C93   S    
N5    N26   A    
C17   N12   A    
C82   H25   S    
N13   Ni5   S    
C73   C89   S    
C77   H19   S    
C44   N21   A    
C67   C94   S    
N8    N22   A    
C72   N30   A    
N9    Ni5   S    
C100  O14   D    
N21   Ni6   S    
C63   C91   S    
N19   Ni5   S    
C57   C83   A    
C8    C69   S    
C95   H46   S    
C10   H31   S    
N28   Ni3   S    
N1    N13   A    
C37   H6    S    
C69   C88   S    
C27   C63   A    
C18   C55   S    
N6    N25   A    
C81   C90   S    
N21   N32   A    
N22   Ni8   S    
C47   H16   S    
N30   Ni3   S    
C6    H60   S    
C77   C86   S    
C14   H36   S    
C40   C54   A    
C32   H64   S    
C81   H24   S    
C93   O1    D    
N31   Ni4   S    
N24   Ni7   S    
C4    H58   S    
C32   N9    A    
C61   H56   S    
C36   N14   A    
C98   O12   D    
C64   C92   S    
C104  H55   S    
C83   N31   A    
C48   H17   S    
C28   N23   A    
C13   H35   S    
C30   N7    A    
C6    O7    D    
C78   H20   S    
C100  H51   S    
N14   N31   A    
C69   C104  S    
C3    O4    D    
C27   C98   S    
C16   C22   D    
C4    O5    D    
N9    N27   A    
C12   C87   S    
C48   N26   A    
C8    H29   S    
C12   H33   S    
C72   H62   S    
C47   N25   A    
C67   C80   S    
C41   H9    S    
C20   C53   S    
C36   H5    S    
C60   C85   S    
C47   C64   A    
C103  H54   S    
C75   C91   S    
N17   N28   A    
C35   N13   A    
N26   Ni8   S    
C10   C81   S    
N12   Ni2   S    
C94   H27   S    
N16   Ni8   S    
N3    N19   A    
C76   H18   S    
C24   N2    A    
N3    Ni2   S    
C26   C62   A    
N4    N18   A    
C11   H32   S    
C21   H42   S    
N10   N23   A    
C28   C52   A    
C50   H45   S    
C101  O15   D    
C39   C53   A    
C68   C81   S    
C39   N27   A    
C43   N20   A    
C31   C101  S    
C24   C59   A    
C96   O10   D    
C5    O6    D    
C23   N32   A    
C13   C88   S    
C84   H26   S    
N6    Ni3   S    
C95   O9    D    
C97   H48   S    
C71   C90   S    
C41   N18   A    
C68   C85   S    
C9    C78   S    
C7    H61   S    
N4    Ni1   S    
C26   C97   S    
C16   C54   S    
C39   H34   S    
C30   C65   A    
C11   C80   S    
C3    H57   S    
C10   C71   S    
N1    Ni1   S    
N11   N12   A    
C45   N22   A    
C44   H13   S    
C22   H43   S    
C17   H12   S    
C25   C96   S    
N32   Ni2   S    
N16   N29   A    
C33   N10   A    
N10   Ni6   S    
N2    N20   A    
C45   C66   A    
C73   C77   S    
C20   H41   S    
C84   C92   S    
C104  O3    D    
C38   H7    S    
C1    C49   A    
C76   C85   S    
C4    C71   S    
C67   C102  S    
C1    H1    S    
C22   C51   S    
