data_mof_unit_32546.cif
_audit_creation_date              2012-12-10T17:02:02-0500
_audit_creation_method            fapswitch 2.2
_symmetry_space_group_name_H-M    P1
_symmetry_Int_Tables_number       1
_space_group_crystal_system       triclinic
_cell_length_a                    10.76849
_cell_length_b                    11.033358
_cell_length_c                    9.85149
_cell_angle_alpha                 111.204523
_cell_angle_beta                  97.688348
_cell_angle_gamma                 91.180837
_cell_volume                      1078.40452613

loop_
_atom_site_label
_atom_site_type_symbol
_atom_type_description
_atom_site_fract_x
_atom_site_fract_y
_atom_site_fract_z
_atom_type_partial_charge
C1    C     C_R   0.490922 0.254165 0.440634 0.881942
C2    C     C_R   0.078749 0.627492 0.600038 -0.033761
C3    C     C_R   0.130037 0.514968 0.507712 -0.196763
C4    C     C_R   0.052329 0.407463 0.410181 -0.286549
C5    C     C_R   0.923850 0.406275 0.405523 0.603235
C6    C     C_R   0.871008 0.513063 0.499029 -0.194537
C7    C     C_2   0.486206 0.114655 0.407272 -0.324603
C8    C     C_2   0.503219 0.069605 0.516401 -0.130715
C9    C     C_2   0.515513 0.885333 0.592676 -0.290302
C10   C     C_2   0.498864 0.930388 0.483552 -0.165743
C11   C     C_2   0.504673 0.517270 0.083121 -0.160917
C12   C     C_R   0.263193 0.506292 0.503222 0.923292
C13   C     C_2   0.478409 0.501789 0.922140 0.557954
C14   C     C_R   0.510141 0.745837 0.559303 0.905364
C15   C     C_R   0.737233 0.503031 0.499095 0.844603
C16   C     C_R   0.153017 0.743046 0.693106 0.576249
C17   C     C_R   0.097336 0.851031 0.780412 -0.182215
C18   C     C_R   0.967904 0.848472 0.775442 -0.225984
C19   C     C_R   0.892783 0.737775 0.682941 -0.148468
C20   C     C_R   0.946587 0.625671 0.595157 -0.043752
Cu1   Cu    Cu3+1 0.521920 0.521810 0.644910 1.016253
Cu2   Cu    Cu3+1 0.478080 0.478190 0.355090 0.978020
H1    H     H_    0.091986 0.322634 0.338466 0.172307
H2    H     H_    0.468929 0.048325 0.292826 0.154551
H3    H     H_    0.574519 0.592886 0.156536 0.137817
H4    H     H_    0.634249 0.607776 0.930163 0.145169
H5    H     H_    0.384916 0.368817 0.065147 0.228165
H6    H     H_    0.155075 0.938327 0.850892 0.165965
H7    H     H_    0.925308 0.933411 0.841979 0.174196
H8    H     H_    0.792301 0.742287 0.679321 0.145671
H9    H     H_    0.481603 0.864365 0.368902 0.178844
H10   H     H_    0.520481 0.135625 0.631050 0.194577
H11   H     H_    0.532739 0.951625 0.707134 0.160729
N1    N     N_2   0.445130 0.445430 0.137370 -0.280015
N2    N     N_2   0.554930 0.554500 0.862630 -0.311658
O1    O     O_R   0.511700 0.332330 0.577400 -0.551296
O2    O     O_R   0.474680 0.295500 0.332650 -0.571072
O3    O     O_R   0.338160 0.518420 0.622400 -0.501704
O4    O     O_R   0.301140 0.481590 0.377650 -0.592780
O5    O     O_R   0.525320 0.704500 0.667350 -0.546007
O6    O     O_R   0.488300 0.667670 0.422600 -0.598714
O7    O     O_R   0.698860 0.518410 0.622350 -0.598170
O8    O     O_R   0.661840 0.481580 0.377600 -0.544250
O9    O     O_3   0.372595 0.426012 0.834418 -0.550681
C21   C     C_3   0.264189 0.490793 0.878012 -0.267178
H12   H     H_    0.272177 0.594724 0.888280 0.180031
H13   H     H_    0.242693 0.485212 0.982654 0.143923
H14   H     H_    0.182547 0.441747 0.792200 0.186020
F1    F     F_    0.278833 0.755871 0.698541 -0.693599
F2    F     F_    0.850914 0.298558 0.313028 -0.663447

loop_
_geom_bond_atom_site_label_1
_geom_bond_atom_site_label_2
_ccdc_geom_bond_type
C9    C14   S    
Cu1   N2    S    
C7    H2    S    
C6    C20   A    
C9    C10   D    
Cu2   O8    S    
C11   N1    D    
C1    O2    A    
C17   H6    S    
C12   O4    A    
Cu2   O2    S    
C17   C18   A    
C15   O8    A    
C7    C8    D    
Cu1   O1    S    
C21   H12   S    
C16   F1    S    
C9    H11   S    
C11   C13   S    
Cu1   O7    S    
Cu1   O5    S    
C14   O6    A    
Cu2   O4    S    
Cu1   Cu2   S    
C13   N2    D    
C2    C3    A    
C21   H13   S    
H5    N1    S    
C12   O3    A    
C5    C6    A    
Cu2   N1    S    
C5    F2    S    
Cu2   O6    S    
C11   H3    S    
C14   O5    A    
C3    C4    A    
C8    H10   S    
H4    N2    S    
C2    C16   A    
O9    C21   S    
C15   O7    A    
C8    C10   S    
C18   C19   A    
C21   H14   S    
C18   H7    S    
C4    H1    S    
C16   C17   A    
C3    C12   S    
C6    C15   S    
C1    C7    S    
C19   H8    S    
C2    C20   A    
C10   H9    S    
C13   O9    S    
Cu1   O3    S    
C19   C20   A    
C1    O1    A    
C4    C5    A    
