data_mof_unit_25580.cif
_audit_creation_date              2012-12-10T18:22:32-0500
_audit_creation_method            fapswitch 2.2
_symmetry_space_group_name_H-M    P1
_symmetry_Int_Tables_number       1
_space_group_crystal_system       triclinic
_cell_length_a                    23.477493
_cell_length_b                    10.6535
_cell_length_c                    9.44087
_cell_angle_alpha                 90.758405
_cell_angle_beta                  89.414639
_cell_angle_gamma                 88.916742
_cell_volume                      2360.56831527

loop_
_atom_site_label
_atom_site_type_symbol
_atom_type_description
_atom_site_fract_x
_atom_site_fract_y
_atom_site_fract_z
_atom_type_partial_charge
C1    C     C_R   0.500024 0.259680 0.498941 0.898987
C2    C     C_R   0.698767 0.601684 0.552946 -0.160739
C3    C     C_R   0.241665 0.389482 0.482686 -0.106691
C4    C     C_R   0.757912 0.605886 0.553202 -0.109206
C5    C     C_R   0.209660 0.500483 0.501666 0.230935
C6    C     C_R   0.790393 0.504153 0.500643 0.246114
C7    C     C_3   0.545988 0.042554 0.571726 -0.240372
C8    C     C_3   0.454969 0.957129 0.428960 -0.335057
C9    C     C_3   0.548382 0.954617 0.439834 0.415173
C10   C     C_3   0.452579 0.044979 0.560940 0.395793
C11   C     C_3   0.500617 0.876716 0.503772 -0.162562
C12   C     C_R   0.500330 0.740231 0.501137 0.895196
C13   C     C_3   0.500298 0.123026 0.496795 -0.191606
C14   C     C_3   0.497755 0.963521 0.635025 -0.091242
C15   C     C_3   0.503222 0.036115 0.365626 -0.171236
C16   C     C_R   0.391298 0.502180 0.500628 0.850885
C17   C     C_R   0.608765 0.498670 0.499427 0.873878
C18   C     C_3   0.506026 0.612690 0.052294 -0.119195
C19   C     C_3   0.493895 0.387401 0.947695 -0.084914
C20   C     C_3   0.459153 0.568744 0.952876 0.472608
C21   C     C_3   0.540758 0.431285 0.047038 0.490769
C22   C     C_3   0.547353 0.543130 0.948604 -0.102161
C23   C     C_R   0.237160 0.615588 0.520709 0.409620
C24   C     C_3   0.452620 0.456910 0.051404 -0.107507
C25   C     C_R   0.879745 0.555867 0.388920 0.625930
C26   C     C_R   0.120178 0.450834 0.615674 0.614484
C27   C     C_R   0.879587 0.462320 0.617181 0.603622
C28   C     C_R   0.120171 0.541565 0.385909 0.614026
C29   C     C_R   0.939240 0.460457 0.619327 -0.032632
C30   C     C_R   0.060542 0.544262 0.384382 -0.033734
C31   C     C_R   0.969758 0.503786 0.501051 0.000692
C32   C     C_R   0.030069 0.501586 0.503008 -0.000121
C33   C     C_R   0.940009 0.548780 0.381020 -0.080024
C34   C     C_R   0.763684 0.396665 0.447325 0.388187
C35   C     C_R   0.059844 0.456950 0.623172 -0.079985
C36   C     C_R   0.968552 0.416991 0.737954 -0.178385
C37   C     C_R   0.031218 0.587520 0.265644 -0.176428
C38   C     C_R   0.028040 0.417940 0.743526 -0.023524
C39   C     C_R   0.971741 0.587102 0.260351 -0.023982
C40   C     C_2   0.054016 0.384490 0.880683 0.933224
C41   C     C_2   0.945669 0.619333 0.122887 0.932450
C42   C     C_2   0.325820 0.743264 0.522881 0.929152
C43   C     C_2   0.675237 0.275150 0.396710 0.987302
C44   C     C_2   0.496656 0.923764 0.786856 0.986304
C45   C     C_R   0.297259 0.619844 0.516968 -0.133507
C46   C     C_2   0.504295 0.075829 0.213323 0.961971
C47   C     C_R   0.703567 0.391321 0.446174 -0.150429
C48   C     C_R   0.328965 0.505643 0.502085 -0.140764
C49   C     C_R   0.671232 0.496145 0.498982 -0.139874
C50   C     C_R   0.300853 0.391969 0.483979 -0.171954
Cl1   Cl    Cl    0.402088 0.663506 0.889303 -0.482776
Cl2   Cl    Cl    0.596926 0.334524 0.110455 -0.507482
Cl3   Cl    Cl    0.195150 0.751791 0.558797 -0.438430
Cl4   Cl    Cl    0.807150 0.267620 0.391033 -0.446567
Cl5   Cl    Cl    0.612556 0.890197 0.364032 -0.547527
Cl6   Cl    Cl    0.388765 0.109303 0.638625 -0.549806
Cu1   Cu    Cu3+1 0.500010 0.499990 0.643150 1.063264
Cu2   Cu    Cu3+1 0.499990 0.500010 0.356850 1.035924
H1    H     H_    0.944942 0.385477 0.829704 0.223558
H2    H     H_    0.778685 0.688265 0.594700 0.181935
H3    H     H_    0.583011 0.078391 0.631065 0.226249
H4    H     H_    0.418443 0.919906 0.368990 0.188746
H5    H     H_    0.105837 0.433910 0.040119 0.357462
H6    H     H_    0.893179 0.569138 0.965092 0.356368
H7    H     H_    0.324210 0.925565 0.466463 0.361864
H8    H     H_    0.674192 0.129281 0.258179 0.398052
H9    H     H_    0.454070 0.922291 0.973163 0.350919
H10   H     H_    0.426893 0.160774 0.227625 0.302702
H11   H     H_    0.054800 0.618505 0.173619 0.224676
H12   H     H_    0.510713 0.707805 0.099690 0.191706
H13   H     H_    0.489226 0.292295 0.900260 0.211284
H14   H     H_    0.587309 0.578782 0.901389 0.190816
H15   H     H_    0.412689 0.421165 0.098651 0.185626
H16   H     H_    0.324935 0.304917 0.469624 0.189303
H17   H     H_    0.674237 0.681671 0.593831 0.188666
H18   H     H_    0.220487 0.300963 0.467528 0.189907
N1    N     N_R   0.851386 0.509090 0.503192 -0.457274
N2    N     N_R   0.148530 0.496520 0.500658 -0.456641
N3    N     N_3   0.500040 0.499970 0.858290 -0.229575
N4    N     N_3   0.499960 0.500030 0.141710 -0.223445
O1    O     O_R   0.500030 0.316850 0.620870 -0.571892
O2    O     O_2   0.150623 0.398128 0.720290 -0.463975
O3    O     O_2   0.849780 0.417852 0.728150 -0.482198
O4    O     O_2   0.149847 0.583200 0.273222 -0.479255
O5    O     O_2   0.040820 0.287206 0.938909 -0.532604
O6    O     O_R   0.091162 0.467230 0.946972 -0.691118
O7    O     O_2   0.959407 0.715193 0.062508 -0.534199
O8    O     O_R   0.907788 0.536888 0.058785 -0.687972
O9    O     O_2   0.369667 0.755887 0.589615 -0.547897
O10   O     O_R   0.302414 0.845531 0.450873 -0.676169
O11   O     O_2   0.632517 0.239199 0.457536 -0.623075
O12   O     O_R   0.499970 0.683150 0.379130 -0.583432
O13   O     O_R   0.697272 0.206351 0.280794 -0.620190
O14   O     O_2   0.537067 0.864469 0.834312 -0.580608
O15   O     O_R   0.449903 0.955449 0.873583 -0.636734
O16   O     O_2   0.545128 0.047584 0.137770 -0.467666
O17   O     O_R   0.458687 0.143576 0.156198 -0.729513
O18   O     O_R   0.500000 0.316860 0.379090 -0.563497
O19   O     O_R   0.500000 0.683140 0.620910 -0.541977
O20   O     O_R   0.417890 0.499960 0.620920 -0.501981
O21   O     O_R   0.582110 0.500040 0.379080 -0.526105
O22   O     O_R   0.417870 0.499970 0.379140 -0.602213
O23   O     O_R   0.582130 0.500030 0.620860 -0.583544
O24   O     O_2   0.849354 0.610918 0.285702 -0.461157

loop_
_geom_bond_atom_site_label_1
_geom_bond_atom_site_label_2
_ccdc_geom_bond_type
C18   H12   S    
C38   C40   S    
C23   C45   A    
C37   H11   S    
C27   C29   A    
Cu1   N3    S    
C19   H13   S    
Cu2   O18   S    
C36   H1    S    
C16   C48   S    
C39   C41   S    
C18   N4    S    
C29   C36   A    
C33   C39   A    
C25   N1    A    
C19   C21   S    
C22   N3    S    
C20   Cl1   S    
C50   H16   S    
C11   C14   S    
C24   H15   S    
C28   O4    S    
C1    O1    A    
Cu1   O19   S    
C40   O6    S    
C17   O21   A    
H10   O17   S    
C7    H3    S    
C12   O19   A    
C24   N4    S    
C7    C14   S    
C20   C24   S    
C31   C33   A    
Cu2   O22   S    
C10   Cl6   S    
Cu2   N4    S    
C48   C50   A    
C26   O2    S    
C21   C22   S    
H9    O15   S    
C41   O7    D    
C22   H14   S    
C3    C50   A    
C23   Cl3   S    
H7    O10   S    
Cu1   O23   S    
C32   C35   A    
C35   C38   A    
C4    C6    A    
C10   C14   S    
C17   C49   S    
C16   O20   A    
C6    N1    S    
C3    C5    A    
Cu1   O20   S    
C43   O11   D    
C6    C34   A    
C30   C37   A    
C42   O10   S    
C42   C45   S    
C40   O5    D    
C2    C4    A    
C2    C49   A    
C31   C32   A    
C5    C23   A    
C7    C13   S    
C4    H2    S    
Cu2   O21   S    
C26   N2    A    
C19   N3    S    
C3    H18   S    
C9    C11   S    
H8    O13   S    
C9    Cl5   S    
C16   O22   A    
C46   O17   S    
C34   Cl4   S    
C8    C15   S    
C13   C15   S    
H5    O6    S    
Cu1   O1    S    
C1    C13   S    
C28   N2    A    
C14   C44   S    
C45   C48   A    
C7    C9    S    
C41   O8    S    
C20   N3    S    
C18   C22   S    
C12   O12   A    
C27   N1    A    
C10   C13   S    
C1    O18   A    
C11   C12   S    
C25   O24   S    
C47   C49   A    
C42   O9    D    
C28   C30   A    
C19   C24   S    
C17   O23   A    
C29   C31   A    
C44   O15   S    
C30   C32   A    
Cu1   Cu2   S    
C43   C47   S    
C8    C11   S    
C21   N4    S    
C36   C38   A    
C43   O13   S    
C18   C20   S    
C9    C15   S    
C44   O14   D    
C27   O3    S    
C26   C35   A    
C37   C39   A    
C46   O16   D    
C8    C10   S    
C8    H4    S    
C34   C47   A    
C15   C46   S    
C5    N2    S    
Cu2   O12   S    
H6    O8    S    
C21   Cl2   S    
C2    H17   S    
C25   C33   A    
