data_mof_unit_58939.cif
_audit_creation_date              2013-03-05T15:44:02-0500
_audit_creation_method            fapswitch 2.2
_symmetry_space_group_name_H-M    P1
_symmetry_Int_Tables_number       1
_space_group_crystal_system       triclinic
_cell_length_a                    30.461778
_cell_length_b                    22.147177
_cell_length_c                    18.036587
_cell_angle_alpha                 89.999135
_cell_angle_beta                  124.110019
_cell_angle_gamma                 89.999114
_cell_volume                      10074.8488904

loop_
_atom_site_label
_atom_site_type_symbol
_atom_site_description
_atom_site_fract_x
_atom_site_fract_y
_atom_site_fract_z
_atom_type_partial_charge
C1    C     C_R   0.545360 0.582794 0.743693 -0.138591
C2    C     C_R   0.466813 0.390169 0.292310 -0.113665
C3    C     C_R   0.454640 0.582794 0.256306 -0.138590
C4    C     C_R   0.533185 0.390167 0.707685 -0.113663
C5    C     C_R   0.045355 0.082803 0.743685 -0.138596
C6    C     C_R   0.966814 0.890170 0.292310 -0.113669
C7    C     C_R   0.954639 0.082791 0.256304 -0.138585
C8    C     C_R   0.033186 0.890167 0.707686 -0.113665
H1    H     H_    0.519992 0.578810 0.767691 0.088230
H2    H     H_    0.498133 0.377619 0.284258 0.096467
H3    H     H_    0.480008 0.578810 0.232309 0.088232
H4    H     H_    0.501865 0.377617 0.715735 0.096477
H5    H     H_    0.019983 0.078828 0.767675 0.088247
H6    H     H_    0.998134 0.877620 0.284259 0.096478
H7    H     H_    0.980008 0.078806 0.232308 0.088226
H8    H     H_    0.001865 0.877617 0.715735 0.096478
N1    N     N_R   0.532970 0.559900 0.665210 -0.040287
N2    N     N_R   0.467030 0.440100 0.334790 -0.043272
N3    N     N_R   0.467030 0.559900 0.334790 -0.040287
N4    N     N_R   0.532970 0.440100 0.665210 -0.043273
N5    N     N_R   0.032970 0.059900 0.665210 -0.040285
N6    N     N_R   0.967030 0.940100 0.334790 -0.043273
N7    N     N_R   0.967030 0.059900 0.334790 -0.040287
N8    N     N_R   0.032970 0.940100 0.665210 -0.043273
C9    C     C_R   0.623931 0.612423 0.574317 -0.121829
C10   C     C_R   0.353868 0.419924 0.426332 -0.092570
C11   C     C_R   0.376070 0.612426 0.425681 -0.121810
C12   C     C_R   0.646138 0.419930 0.573643 -0.092484
C13   C     C_R   0.123931 0.112424 0.574316 -0.121811
C14   C     C_R   0.853868 0.919924 0.426333 -0.092575
C15   C     C_R   0.876047 0.112401 0.425653 -0.121787
C16   C     C_R   0.146133 0.919924 0.573667 -0.092581
H9    H     H_    0.650713 0.624704 0.643645 0.099202
H10   H     H_    0.320112 0.424552 0.358014 0.096467
H11   H     H_    0.349288 0.624711 0.356353 0.099200
H12   H     H_    0.679903 0.424529 0.641960 0.096535
H13   H     H_    0.150714 0.124707 0.643643 0.099200
H14   H     H_    0.820111 0.924552 0.358015 0.096468
H15   H     H_    0.849262 0.124651 0.356314 0.099166
H16   H     H_    0.179890 0.924553 0.641984 0.096466
N9    N     N_R   0.597900 0.559930 0.545530 -0.044821
N10   N     N_R   0.402100 0.440070 0.454470 -0.045878
N11   N     N_R   0.402100 0.559930 0.454470 -0.044818
N12   N     N_R   0.597900 0.440070 0.545530 -0.045895
N13   N     N_R   0.097900 0.059930 0.545530 -0.044817
N14   N     N_R   0.902100 0.940070 0.454470 -0.045878
N15   N     N_R   0.902100 0.059930 0.454470 -0.044824
N16   N     N_R   0.097900 0.940070 0.545530 -0.045878
C17   C     C_R   0.573521 0.612616 0.425269 -0.127392
C18   C     C_R   0.403614 0.419784 0.574543 -0.134904
C19   C     C_R   0.426479 0.612616 0.574729 -0.127399
C20   C     C_R   0.596373 0.419802 0.425433 -0.134964
C21   C     C_R   0.073520 0.112615 0.425267 -0.127398
C22   C     C_R   0.903615 0.919785 0.574544 -0.134902
C23   C     C_R   0.926461 0.112628 0.574702 -0.127426
C24   C     C_R   0.096386 0.919785 0.425457 -0.134890
H17   H     H_    0.553284 0.625191 0.355873 0.095739
H18   H     H_    0.415664 0.423954 0.643175 0.086627
H19   H     H_    0.446716 0.625189 0.644125 0.095738
H20   H     H_    0.584307 0.424005 0.356798 0.086627
H21   H     H_    0.053283 0.125189 0.355871 0.095740
H22   H     H_    0.915665 0.923956 0.643176 0.086628
H23   H     H_    0.946689 0.125229 0.644089 0.095764
H24   H     H_    0.084335 0.923956 0.356824 0.086624
N17   N     N_R   0.567170 0.559950 0.454460 -0.044790
N18   N     N_R   0.432830 0.440050 0.545540 -0.041459
N19   N     N_R   0.432830 0.559950 0.545540 -0.044791
N20   N     N_R   0.567170 0.440050 0.454460 -0.041453
N21   N     N_R   0.067170 0.059950 0.454460 -0.044792
N22   N     N_R   0.932830 0.940050 0.545540 -0.041459
N23   N     N_R   0.932830 0.059950 0.545540 -0.044784
N24   N     N_R   0.067170 0.940050 0.454460 -0.041460
C25   C     C_R   0.381848 0.582675 0.256322 -0.133908
C26   C     C_R   0.606857 0.390736 0.708010 -0.081234
C27   C     C_R   0.618152 0.582674 0.743676 -0.133901
C28   C     C_R   0.393141 0.390741 0.291983 -0.081221
C29   C     C_R   0.881847 0.082668 0.256317 -0.133886
C30   C     C_R   0.106858 0.890738 0.708014 -0.081224
C31   C     C_R   0.118150 0.082679 0.743673 -0.133903
C32   C     C_R   0.893142 0.890741 0.291983 -0.081223
H25   H     H_    0.340728 0.578841 0.233256 0.112246
H26   H     H_    0.643889 0.379567 0.716643 0.110136
H27   H     H_    0.659272 0.578838 0.766741 0.112250
H28   H     H_    0.356108 0.379576 0.283345 0.110114
H29   H     H_    0.840727 0.078825 0.233246 0.112236
H30   H     H_    0.143891 0.879570 0.716651 0.110110
H31   H     H_    0.159270 0.078844 0.766741 0.112254
H32   H     H_    0.856108 0.879575 0.283344 0.110115
N25   N     N_R   0.421470 0.559970 0.334770 -0.041607
N26   N     N_R   0.578530 0.440030 0.665230 -0.044914
N27   N     N_R   0.578530 0.559970 0.665230 -0.041606
N28   N     N_R   0.421470 0.440030 0.334770 -0.044913
N29   N     N_R   0.921470 0.059970 0.334770 -0.041610
N30   N     N_R   0.078530 0.940030 0.665230 -0.044912
N31   N     N_R   0.078530 0.059970 0.665230 -0.041608
N32   N     N_R   0.921470 0.940030 0.334770 -0.044915
C33   C     C_R   0.598666 0.598337 0.794792 0.065458
C34   C     C_R   0.421079 0.357238 0.265676 0.055145
C35   C     C_R   0.401333 0.598338 0.205205 0.065457
C36   C     C_R   0.578919 0.357232 0.734316 0.055146
C37   C     C_R   0.098661 0.098348 0.794784 0.065446
C38   C     C_R   0.921080 0.857238 0.265675 0.055148
C39   C     C_R   0.901332 0.098330 0.205199 0.065464
C40   C     C_R   0.078920 0.857233 0.734318 0.055141
C41   C     C_R   0.608065 0.647715 0.499689 0.074610
C42   C     C_R   0.353117 0.407235 0.500654 0.099098
C43   C     C_R   0.391936 0.647717 0.500309 0.074607
C44   C     C_R   0.646876 0.407263 0.499298 0.099076
C45   C     C_R   0.108064 0.147715 0.499686 0.074607
C46   C     C_R   0.853118 0.907236 0.500656 0.099096
C47   C     C_R   0.891899 0.147708 0.500254 0.074608
C48   C     C_R   0.146884 0.907238 0.499345 0.099101
Ni1   Ni    Ni4+2 0.483030 0.500000 0.604430 0.215636
Ni2   Ni    Ni4+2 0.516970 0.500000 0.395570 0.215635
Ni3   Ni    Ni4+2 0.983030 0.000000 0.604430 0.215644
Ni4   Ni    Ni4+2 0.016970 1.000000 0.395570 0.215633
Ni5   Ni    Ni4+2 0.587400 0.500000 0.604430 0.232787
Ni6   Ni    Ni4+2 0.412600 0.500000 0.395570 0.232794
Ni7   Ni    Ni4+2 0.087400 0.000000 0.604430 0.232796
Ni8   Ni    Ni4+2 0.912600 1.000000 0.395570 0.232783
C49   C     C_R   0.689337 0.384261 0.418019 -0.244967
C50   C     C_R   0.389180 0.736621 0.581753 -0.241184
C51   C     C_R   0.310519 0.384398 0.581777 -0.245071
C52   C     C_R   0.610823 0.736622 0.418247 -0.241186
C53   C     C_R   0.189482 0.884412 0.418219 -0.245071
C54   C     C_R   0.889171 0.236742 0.581560 -0.241247
C55   C     C_R   0.810524 0.884396 0.581783 -0.245068
C56   C     C_R   0.110824 0.236615 0.418237 -0.241176
C57   C     C_R   0.694017 0.393274 0.499265 0.102117
C58   C     C_R   0.373927 0.709213 0.500444 0.112237
C59   C     C_R   0.305952 0.393216 0.500593 0.101938
C60   C     C_R   0.626077 0.709209 0.499555 0.112238
C61   C     C_R   0.194050 0.893222 0.499404 0.101941
C62   C     C_R   0.873854 0.209204 0.500293 0.112247
C63   C     C_R   0.805953 0.893218 0.500597 0.101943
C64   C     C_R   0.126074 0.209209 0.499547 0.112237
C65   C     C_R   0.743193 0.384123 0.580731 -0.187321
C66   C     C_R   0.335777 0.737208 0.419173 -0.241009
C67   C     C_R   0.256858 0.383855 0.419083 -0.186998
C68   C     C_R   0.664230 0.737198 0.580830 -0.241005
C69   C     C_R   0.243144 0.883856 0.580914 -0.187011
C70   C     C_R   0.835614 0.237076 0.418962 -0.240929
C71   C     C_R   0.756857 0.883860 0.419089 -0.187017
C72   C     C_R   0.164220 0.237204 0.580819 -0.241011
C73   C     C_R   0.785022 0.358139 0.581569 0.131066
C74   C     C_R   0.305417 0.784474 0.418419 0.135347
C75   C     C_R   0.215007 0.357895 0.418180 0.130954
C76   C     C_R   0.694591 0.784461 0.581584 0.135350
C77   C     C_R   0.284996 0.857898 0.581814 0.130955
C78   C     C_R   0.805237 0.284334 0.418150 0.135356
C79   C     C_R   0.715007 0.857901 0.418189 0.130956
C80   C     C_R   0.194582 0.284466 0.581573 0.135351
C81   C     C_R   0.777908 0.342519 0.499752 0.028500
C82   C     C_R   0.315288 0.805421 0.500268 0.034368
C83   C     C_R   0.222015 0.342469 0.499970 0.028470
C84   C     C_R   0.684717 0.805415 0.499735 0.034365
C85   C     C_R   0.277987 0.842477 0.500023 0.028472
C86   C     C_R   0.815198 0.305443 0.499994 0.034332
C87   C     C_R   0.722017 0.842471 0.499980 0.028473
C88   C     C_R   0.184713 0.305413 0.499724 0.034366
C89   C     C_R   0.730862 0.358326 0.417679 0.140912
C90   C     C_R   0.359289 0.783897 0.582300 0.140041
C91   C     C_R   0.268971 0.358453 0.582051 0.140913
C92   C     C_R   0.640715 0.783898 0.417702 0.140040
C93   C     C_R   0.231030 0.858466 0.417943 0.140915
C94   C     C_R   0.859284 0.284060 0.582048 0.140040
C95   C     C_R   0.768977 0.858450 0.582060 0.140914
C96   C     C_R   0.140715 0.283891 0.417691 0.140038
C97   C     C_R   0.831854 0.342174 0.662917 -0.158130
C98   C     C_R   0.261584 0.806061 0.337149 -0.182987
C99   C     C_R   0.168268 0.341764 0.336820 -0.157887
C100  C     C_R   0.738426 0.806039 0.662855 -0.182989
C101  C     C_R   0.331737 0.841766 0.663173 -0.157903
C102  C     C_R   0.761305 0.305746 0.336851 -0.182949
C103  C     C_R   0.668264 0.841776 0.336830 -0.157902
C104  C     C_R   0.238414 0.306050 0.662843 -0.182986
C105  C     C_R   0.368852 0.804883 0.663417 -0.196965
C106  C     C_R   0.724147 0.342606 0.336618 -0.186444
C107  C     C_R   0.631150 0.804892 0.336586 -0.196962
C108  C     C_R   0.275574 0.342915 0.663080 -0.186453
C109  C     C_R   0.868947 0.305242 0.663157 -0.196820
C110  C     C_R   0.224425 0.842930 0.336914 -0.186451
C111  C     C_R   0.131154 0.304879 0.336574 -0.196965
C112  C     C_R   0.775584 0.842906 0.663090 -0.186455
H33   H     H_    0.652321 0.392828 0.354606 0.118180
H34   H     H_    0.420576 0.717697 0.645052 0.117884
H35   H     H_    0.347465 0.393149 0.645203 0.118232
H36   H     H_    0.579426 0.717703 0.354947 0.117886
H37   H     H_    0.152536 0.893168 0.354793 0.118230
H38   H     H_    0.920633 0.217905 0.644884 0.117936
H39   H     H_    0.847471 0.893143 0.645208 0.118231
H40   H     H_    0.079432 0.217691 0.354938 0.117886
H41   H     H_    0.748223 0.392507 0.644102 0.130827
H42   H     H_    0.325717 0.718810 0.355924 0.121362
H43   H     H_    0.251915 0.392049 0.355747 0.131026
H44   H     H_    0.674292 0.718796 0.644080 0.121357
H45   H     H_    0.248087 0.892044 0.644251 0.131022
H46   H     H_    0.825487 0.218582 0.355721 0.121306
H47   H     H_    0.751912 0.892057 0.355752 0.131021
H48   H     H_    0.174276 0.218809 0.644068 0.121360
H49   H     H_    0.838109 0.354821 0.726228 0.141404
H50   H     H_    0.254062 0.791003 0.273832 0.137507
H51   H     H_    0.162105 0.354248 0.273526 0.141440
H52   H     H_    0.745950 0.790974 0.726172 0.137503
H53   H     H_    0.337900 0.854247 0.726467 0.141438
H54   H     H_    0.753704 0.290542 0.273533 0.137449
H55   H     H_    0.662098 0.854264 0.273536 0.141441
H56   H     H_    0.245934 0.290990 0.726160 0.137505
H57   H     H_    0.402975 0.789343 0.726872 0.132556
H58   H     H_    0.688563 0.355411 0.273123 0.134095
H59   H     H_    0.597025 0.789359 0.273130 0.132559
H60   H     H_    0.311078 0.355868 0.726575 0.134156
H61   H     H_    0.903144 0.289832 0.726627 0.132599
H62   H     H_    0.188921 0.855887 0.273418 0.134156
H63   H     H_    0.097032 0.289341 0.273118 0.132558
H64   H     H_    0.811090 0.855855 0.726585 0.134155
C113  C     C_R   0.369543 0.615413 0.109106 0.102149
C114  C     C_R   0.593299 0.296347 0.775681 0.101675
C115  C     C_R   0.630456 0.615416 0.890888 0.102155
C116  C     C_R   0.406696 0.296355 0.224308 0.101681
C117  C     C_R   0.869540 0.115401 0.109098 0.102153
C118  C     C_R   0.093300 0.796347 0.775681 0.101677
C119  C     C_R   0.130450 0.115430 0.890879 0.102154
C120  C     C_R   0.906698 0.796356 0.224306 0.101678
C121  C     C_R   0.364051 0.649589 0.976109 -0.166422
C122  C     C_R   0.578876 0.211482 0.844912 -0.157352
C123  C     C_R   0.635949 0.649592 0.023885 -0.166407
C124  C     C_R   0.421120 0.211484 0.155090 -0.157341
C125  C     C_R   0.864043 0.149566 0.976093 -0.166394
C126  C     C_R   0.078876 0.711476 0.844901 -0.157341
C127  C     C_R   0.135940 0.149611 0.023871 -0.166420
C128  C     C_R   0.921122 0.711489 0.155082 -0.157340
C129  C     C_R   0.394139 0.629983 0.064837 -0.172821
C130  C     C_R   0.562760 0.267073 0.801042 -0.155050
C131  C     C_R   0.605861 0.629983 0.935160 -0.172819
C132  C     C_R   0.437238 0.267074 0.198959 -0.155054
C133  C     C_R   0.894134 0.129962 0.064822 -0.172823
C134  C     C_R   0.062759 0.767068 0.801035 -0.155052
C135  C     C_R   0.105853 0.130002 0.935146 -0.172832
C136  C     C_R   0.937239 0.767078 0.198952 -0.155051
C137  C     C_R   0.314051 0.618189 0.061231 -0.152388
C138  C     C_R   0.638412 0.267100 0.790388 -0.139603
C139  C     C_R   0.685948 0.618199 0.938758 -0.152384
C140  C     C_R   0.361578 0.267117 0.209592 -0.139605
C141  C     C_R   0.814048 0.118184 0.061230 -0.152370
C142  C     C_R   0.138415 0.767103 0.790390 -0.139611
C143  C     C_R   0.185942 0.118209 0.938753 -0.152386
C144  C     C_R   0.861581 0.767115 0.209592 -0.139605
C145  C     C_R   0.282861 0.635250 0.970588 0.127843
C146  C     C_R   0.654030 0.209974 0.830946 0.125604
C147  C     C_R   0.717138 0.635262 0.029399 0.127843
C148  C     C_R   0.345959 0.209991 0.169039 0.125599
C149  C     C_R   0.782857 0.135242 0.970586 0.127843
C150  C     C_R   0.154033 0.709976 0.830943 0.125603
C151  C     C_R   0.217131 0.135272 0.029393 0.127841
C152  C     C_R   0.845963 0.709989 0.169037 0.125598
C153  C     C_R   0.308856 0.654789 0.930035 0.126878
C154  C     C_R   0.625571 0.184133 0.863580 0.120099
C155  C     C_R   0.691144 0.654797 0.069953 0.126877
C156  C     C_R   0.374422 0.184143 0.136415 0.120096
C157  C     C_R   0.808849 0.154772 0.930025 0.126852
C158  C     C_R   0.125572 0.684130 0.863571 0.120095
C159  C     C_R   0.191135 0.154812 0.069944 0.126877
C160  C     C_R   0.874425 0.684144 0.136410 0.120095
C161  C     C_R   0.226936 0.641042 0.923311 -0.121374
C162  C     C_R   0.701401 0.182057 0.850593 -0.117369
C163  C     C_R   0.773063 0.641057 0.076671 -0.121373
C164  C     C_R   0.298586 0.182082 0.149387 -0.117376
C165  C     C_R   0.726932 0.141038 0.923314 -0.121377
C166  C     C_R   0.201405 0.682063 0.850592 -0.117376
C167  C     C_R   0.273056 0.141062 0.076670 -0.121377
C168  C     C_R   0.798592 0.682077 0.149388 -0.117376
C169  C     C_R   0.726123 0.195951 0.805026 0.349895
C170  C     C_R   0.195893 0.610748 0.948419 0.347474
C171  C     C_R   0.273860 0.195985 0.194945 0.349923
C172  C     C_R   0.804106 0.610765 0.051563 0.347474
C173  C     C_R   0.226130 0.695963 0.805031 0.349918
C174  C     C_R   0.695891 0.110750 0.948430 0.347473
C175  C     C_R   0.773867 0.695975 0.194950 0.349921
C176  C     C_R   0.304100 0.110766 0.051566 0.347475
C177  C     C_R   0.779601 0.181221 0.845221 -0.321812
C178  C     C_R   0.145092 0.632451 0.916947 -0.316159
C179  C     C_R   0.220381 0.181262 0.154744 -0.321875
C180  C     C_R   0.854907 0.632468 0.083034 -0.316150
C181  C     C_R   0.279609 0.681238 0.845232 -0.321877
C182  C     C_R   0.645090 0.132457 0.916960 -0.316170
C183  C     C_R   0.720390 0.681248 0.154753 -0.321857
C184  C     C_R   0.354902 0.132466 0.083040 -0.316151
H65   H     H_    0.798931 0.192630 0.811704 0.177271
H66   H     H_    0.121618 0.610312 0.937085 0.181686
H67   H     H_    0.201047 0.192678 0.188254 0.177241
H68   H     H_    0.878381 0.610329 0.062896 0.181686
H69   H     H_    0.298942 0.692654 0.811721 0.177242
H70   H     H_    0.621618 0.110321 0.937104 0.181687
H71   H     H_    0.701058 0.692661 0.188266 0.177242
H72   H     H_    0.378377 0.110324 0.062905 0.181687
H73   H     H_    0.663496 0.290540 0.775490 0.128658
H74   H     H_    0.295199 0.610797 0.096105 0.126113
H75   H     H_    0.336491 0.290563 0.224477 0.128637
H76   H     H_    0.704799 0.610811 0.903881 0.126106
H77   H     H_    0.163500 0.790546 0.775499 0.128639
H78   H     H_    0.795198 0.110801 0.096109 0.126097
H79   H     H_    0.836495 0.790558 0.224481 0.128640
H80   H     H_    0.204794 0.110817 0.903879 0.126109
H81   H     H_    0.527382 0.287716 0.789942 0.118429
H82   H     H_    0.436773 0.628540 0.099280 0.113668
H83   H     H_    0.472619 0.287710 0.210066 0.118421
H84   H     H_    0.563228 0.628534 0.900722 0.113666
H85   H     H_    0.027380 0.787709 0.789933 0.118431
H86   H     H_    0.936766 0.128513 0.099259 0.113669
H87   H     H_    0.972618 0.787717 0.210057 0.118432
H88   H     H_    0.063220 0.128557 0.900705 0.113673
H89   H     H_    0.384188 0.663080 0.944746 0.123578
H90   H     H_    0.555974 0.191084 0.867465 0.130983
H91   H     H_    0.615814 0.663080 0.055250 0.123579
H92   H     H_    0.444025 0.191080 0.132547 0.130982
H93   H     H_    0.884178 0.163050 0.944723 0.123601
H94   H     H_    0.055972 0.691075 0.867448 0.130984
H95   H     H_    0.115803 0.163103 0.055233 0.123579
H96   H     H_    0.944026 0.691088 0.132536 0.130986
N33   N     N_R   0.696548 0.219304 0.715068 0.230084
O1    O     O_R   0.719855 0.252331 0.687122 -0.420792
O2    O     O_R   0.647910 0.201916 0.657774 -0.373505
N34   N     N_R   0.212985 0.554968 0.997851 0.229873
O3    O     O_R   0.196497 0.539816 0.048032 -0.414345
O4    O     O_R   0.239816 0.515897 0.984548 -0.389329
N35   N     N_R   0.303431 0.219338 0.284901 0.230088
O5    O     O_R   0.280122 0.252369 0.312838 -0.421000
O6    O     O_R   0.352069 0.201945 0.342202 -0.373494
N36   N     N_R   0.787018 0.554985 0.002135 0.229875
O7    O     O_R   0.803504 0.539837 0.951950 -0.414348
O8    O     O_R   0.760192 0.515911 0.015445 -0.389295
N37   N     N_R   0.196557 0.719317 0.715074 0.230090
O9    O     O_R   0.219865 0.752346 0.687132 -0.420990
O10   O     O_R   0.147919 0.701929 0.657777 -0.373493
N38   N     N_R   0.712982 0.054972 0.997867 0.229873
O11   O     O_R   0.696498 0.039827 0.048055 -0.414358
O12   O     O_R   0.739810 0.015896 0.984562 -0.389326
N39   N     N_R   0.803440 0.719328 0.284906 0.230088
O13   O     O_R   0.780131 0.752357 0.312846 -0.420989
O14   O     O_R   0.852078 0.701938 0.342204 -0.373492
N40   N     N_R   0.287010 0.054987 0.002138 0.229873
O15   O     O_R   0.303497 0.039835 0.951957 -0.414343
O16   O     O_R   0.260180 0.015916 0.015445 -0.389323

loop_
_geom_bond_atom_site_label_1
_geom_bond_atom_site_label_2
_geom_bond_distance
_ccdc_geom_bond_type
C141  H78   1.075796 S    
N21   Ni4   1.846035 S    
C34   C116  1.483304 S    
C170  C178  1.400999 A    
C103  H55   1.083760 S    
C21   N21   1.337662 A    
C31   H31   1.079260 S    
C38   C120  1.483304 S    
N37   O9    1.301726 A    
C2    C34   1.397499 A    
C121  H89   1.083835 S    
C99   C111  1.392807 A    
C127  H95   1.083837 S    
C28   C34   1.397448 A    
C128  H96   1.083756 S    
C14   H14   1.079412 S    
C90   C105  1.401234 A    
N34   O3    1.301491 A    
C24   N24   1.337634 A    
C126  C134  1.395424 A    
C3    N3    1.343191 A    
N29   Ni8   1.836277 S    
C4    H4    1.078868 S    
C75   C83   1.409020 A    
C130  H81   1.080949 S    
C5    H5    1.080481 S    
C49   C57   1.404752 A    
C7    H7    1.080480 S    
C8    H8    1.078867 S    
C10   C42   1.382331 A    
C69   H45   1.080600 S    
N32   Ni8   1.836297 S    
C25   H25   1.079260 S    
C67   H43   1.080596 S    
C111  H63   1.083742 S    
C5    C37   1.387870 A    
N36   O7    1.301492 A    
N13   N21   1.360088 A    
N26   Ni5   1.836277 S    
C137  C145  1.405758 A    
C9    C41   1.388049 A    
C113  C129  1.404987 A    
N40   O15   1.301493 A    
C26   C36   1.397460 A    
C11   H11   1.076581 S    
C141  C149  1.405755 A    
C12   N12   1.333987 A    
C117  C133  1.404986 A    
C161  C166  1.416476 A    
C51   C91   1.392493 A    
C163  C168  1.416479 A    
C22   N22   1.337638 A    
C49   C89   1.392347 A    
C8    C40   1.397490 A    
N15   N23   1.360086 A    
C92   C107  1.401243 A    
C151  C159  1.413807 A    
C152  C160  1.413452 A    
C29   C39   1.391571 A    
C125  C133  1.394481 A    
C58   C66   1.404653 A    
C147  C163  1.420037 A    
C148  C156  1.413452 A    
N35   O6    1.301615 A    
C21   C45   1.388935 A    
C23   C47   1.389067 A    
N6    N32   1.387637 A    
N38   O11   1.301493 A    
C103  C107  1.392812 A    
C137  H74   1.075800 S    
N22   Ni3   1.846036 S    
N5    N31   1.387635 A    
C119  C143  1.403478 A    
C26   N26   1.336039 A    
C121  C129  1.394476 A    
C32   H32   1.077466 S    
C119  C135  1.404985 A    
C39   C117  1.484095 S    
C104  H56   1.083737 S    
C12   C44   1.382440 A    
C87   C95   1.409988 A    
C88   C96   1.410188 A    
N14   N22   1.360086 A    
C3    H3    1.080481 S    
N11   Ni6   1.836762 S    
C174  N38   1.439250 S    
C4    N4    1.343229 A    
C57   C65   1.405490 A    
C180  H68   1.083950 S    
C19   C43   1.388930 A    
N33   O1    1.301726 A    
C173  N37   1.439531 S    
C102  H54   1.083836 S    
C149  C157  1.413805 A    
C23   N23   1.337863 A    
C132  H83   1.080949 S    
C175  C183  1.400404 A    
C133  H86   1.081054 S    
N18   Ni1   1.846036 S    
N1    N27   1.387635 A    
N1    Ni1   1.845430 S    
C166  C173  1.425296 A    
C124  H92   1.083759 S    
C30   N30   1.336037 A    
C125  H93   1.083835 S    
N4    Ni1   1.845374 S    
C50   H34   1.081260 S    
C162  C169  1.425294 A    
C17   H17   1.076491 S    
C52   C60   1.403879 A    
C145  C161  1.420033 A    
C81   C86   1.399649 A    
C54   H38   1.081363 S    
N28   Ni6   1.836297 S    
C20   H20   1.079802 S    
C21   H21   1.076491 S    
C178  H66   1.083951 S    
C78   C86   1.409752 A    
C142  H77   1.075087 S    
C183  H71   1.084098 S    
C23   H23   1.076535 S    
C24   H24   1.079817 S    
C171  C179  1.400404 A    
C27   N27   1.340229 A    
C184  H72   1.083954 S    
C36   C114  1.483303 S    
C7    C39   1.387855 A    
C98   C110  1.393771 A    
C24   C48   1.385740 A    
N16   N24   1.360088 A    
C40   C118  1.483304 S    
C126  H94   1.083757 S    
C148  C164  1.420044 A    
C139  C147  1.405759 A    
C30   C40   1.397452 A    
C115  C131  1.404984 A    
C85   C93   1.409994 A    
C52   H36   1.081269 S    
C139  H76   1.075799 S    
C172  C180  1.400998 A    
C83   C91   1.409986 A    
C173  C181  1.400404 A    
C55   H39   1.081154 S    
N7    N29   1.387637 A    
C32   C38   1.397453 A    
C56   H40   1.081263 S    
C22   C46   1.385741 A    
C79   C87   1.409019 A    
C53   C93   1.392489 A    
C6    H6    1.078867 S    
C18   N18   1.337644 A    
C95   C112  1.401820 A    
C96   C111  1.401245 A    
N14   Ni8   1.836747 S    
C19   N19   1.337658 A    
C120  C136  1.404372 A    
C54   C62   1.403989 A    
C156  C184  1.395798 A    
C157  C177  1.395715 A    
N15   Ni8   1.836762 S    
C13   H13   1.076580 S    
C10   N10   1.333799 A    
C127  C159  1.401316 A    
C128  C160  1.402253 A    
N39   O14   1.301616 A    
C82   C90   1.410191 A    
C162  C165  1.416478 A    
C124  C156  1.402250 A    
C47   C62   1.468846 S    
C125  C157  1.401318 A    
C169  N33   1.439532 S    
C50   C90   1.391232 A    
N2    N28   1.387637 A    
C74   C98   1.401737 A    
C72   C80   1.391814 A    
N20   Ni2   1.845979 S    
C66   C74   1.391817 A    
C7    N7    1.343197 A    
C71   C79   1.390267 A    
C8    N8    1.343235 A    
C114  C138  1.403417 A    
C59   C67   1.405333 A    
C3    C35   1.387858 A    
C104  C108  1.393770 A    
C150  C158  1.413453 A    
N34   O4    1.301663 A    
C15   C47   1.387959 A    
C31   C37   1.391593 A    
C109  H61   1.083812 S    
N9    Ni5   1.836747 S    
C13   N13   1.337247 A    
C9    H9    1.076576 S    
C138  H73   1.075092 S    
C126  C158  1.402249 A    
N5    Ni3   1.845430 S    
C28   H28   1.077464 S    
N36   O8    1.301665 A    
C14   C46   1.382334 A    
C93   C110  1.401813 A    
C65   C73   1.390449 A    
C55   C63   1.404666 A    
C56   C64   1.403875 A    
N40   O16   1.301664 A    
C112  H64   1.083694 S    
C6    N6    1.343235 A    
C27   C33   1.391577 A    
C100  H52   1.083736 S    
C147  C155  1.413805 A    
N7    Ni4   1.845370 S    
C17   N17   1.337673 A    
C120  C144  1.403418 A    
C134  H85   1.080948 S    
C149  C165  1.420032 A    
N27   Ni5   1.836294 S    
C136  H87   1.080949 S    
C102  C106  1.393659 A    
N13   Ni7   1.836747 S    
N37   O10   1.301616 A    
C122  H90   1.083759 S    
C15   N15   1.337053 A    
C16   N16   1.333806 A    
N2    Ni2   1.845429 S    
C26   H26   1.077471 S    
C43   C58   1.468805 S    
C135  H88   1.081054 S    
C14   N14   1.333805 A    
N16   Ni7   1.836765 S    
C66   H42   1.081313 S    
C129  H82   1.081054 S    
C42   C59   1.469313 S    
C73   C97   1.401888 A    
C163  C172  1.424684 A    
C79   C103  1.401749 A    
C138  C146  1.404206 A    
C1    H1    1.080478 S    
C146  C162  1.420047 A    
C82   C85   1.399635 A    
N38   O12   1.301664 A    
N10   Ni6   1.836747 S    
C17   C41   1.388943 A    
C22   H22   1.079816 S    
N3    Ni2   1.845370 S    
C179  H67   1.084098 S    
C5    N5    1.343184 A    
C18   H18   1.079816 S    
C176  C184  1.401000 A    
C31   N31   1.340228 A    
C131  H84   1.081053 S    
C62   C70   1.404737 A    
C152  C168  1.420045 A    
N39   O13   1.301728 A    
C11   C43   1.388051 A    
C67   C75   1.390260 A    
C153  C181  1.395713 A    
C155  C183  1.395711 A    
C97   C109  1.392941 A    
C150  C166  1.420045 A    
C146  C154  1.413454 A    
C167  C176  1.424683 A    
C160  C180  1.395797 A    
C9    N9    1.337236 A    
C123  C131  1.394475 A    
C86   C94   1.410293 A    
C16   C48   1.382335 A    
C51   C59   1.404666 A    
C1    N1    1.343196 A    
C145  C153  1.413808 A    
C54   C94   1.391431 A    
C122  C130  1.395418 A    
C60   C68   1.404669 A    
C142  C150  1.404201 A    
N24   Ni4   1.845979 S    
C61   C69   1.405334 A    
C169  C177  1.400409 A    
C70   C78   1.391644 A    
C25   N25   1.340235 A    
N35   O5    1.301729 A    
C64   C72   1.404660 A    
C118  C142  1.403417 A    
C27   H27   1.079261 S    
C158  C178  1.395799 A    
C29   N29   1.340237 A    
C99   H51   1.083763 S    
C113  C137  1.403475 A    
N31   Ni7   1.836294 S    
C97   H49   1.083853 S    
C11   N11   1.337254 A    
C12   H12   1.079422 S    
C6    C38   1.397495 A    
C81   C89   1.410067 A    
C18   C42   1.385745 A    
C101  H53   1.083757 S    
C76   C84   1.409682 A    
C89   C106  1.401892 A    
C77   C85   1.409016 A    
C52   C92   1.391241 A    
C143  C151  1.405756 A    
C80   C88   1.409684 A    
C143  H80   1.075798 S    
C2    N2    1.343242 A    
N17   Ni2   1.846035 S    
C144  H79   1.075090 S    
C171  N35   1.439530 S    
C48   C61   1.469317 S    
C68   C76   1.391805 A    
C69   C77   1.390265 A    
C151  C167  1.420038 A    
C116  C140  1.403416 A    
C106  H58   1.083793 S    
C175  N39   1.439531 S    
C170  N34   1.439252 S    
C107  H59   1.083742 S    
C159  C179  1.395711 A    
C127  C135  1.394477 A    
C105  H57   1.083743 S    
C108  H60   1.083694 S    
C10   H10   1.079411 S    
C35   C113  1.484091 S    
C115  C139  1.403479 A    
N33   O2    1.301616 A    
C72   H48   1.081329 S    
C33   C115  1.484092 S    
C32   N32   1.336033 A    
C20   N20   1.337481 A    
C123  C155  1.401318 A    
C73   C81   1.409146 A    
C30   H30   1.077468 S    
C45   C64   1.468806 S    
C70   H46   1.081372 S    
C46   C63   1.469311 S    
C13   C45   1.388052 A    
C94   C109  1.401394 A    
C75   C99   1.401746 A    
C65   H41   1.080716 S    
C56   C96   1.391233 A    
C114  C130  1.404373 A    
C128  C136  1.395421 A    
C1    C33   1.387864 A    
C41   C60   1.468810 S    
N9    N17   1.360088 A    
N4    N26   1.387635 A    
C118  C134  1.404375 A    
C49   H33   1.081254 S    
C74   C82   1.409670 A    
N3    N25   1.387637 A    
N8    N30   1.387635 A    
C122  C154  1.402248 A    
N30   Ni7   1.836277 S    
C100  C112  1.393764 A    
C164  C167  1.416477 A    
C101  C105  1.392808 A    
C98   H50   1.083725 S    
C123  H91   1.083834 S    
N23   Ni3   1.845978 S    
C68   H44   1.081336 S    
C84   C92   1.410192 A    
C44   C57   1.469353 S    
C28   N28   1.336030 A    
N11   N19   1.360086 A    
C78   C102  1.401798 A    
C168  C175  1.425297 A    
C4    C36   1.397491 A    
N12   N20   1.360088 A    
C19   H19   1.076487 S    
C2    H2    1.078866 S    
C172  N36   1.439248 S    
C110  H62   1.083700 S    
C53   C61   1.404681 A    
C25   C35   1.391581 A    
C140  C148  1.404198 A    
C83   C88   1.399635 A    
C116  C132  1.404372 A    
C84   C87   1.399633 A    
C174  C182  1.400997 A    
C144  C152  1.404201 A    
C71   H47   1.080595 S    
C154  C182  1.395798 A    
N19   Ni1   1.845978 S    
C121  C153  1.401315 A    
C37   C119  1.484091 S    
C117  C141  1.403479 A    
N12   Ni5   1.836765 S    
C164  C171  1.425299 A    
N6    Ni4   1.845429 S    
C63   C71   1.405331 A    
C76   C100  1.401728 A    
C182  H70   1.083950 S    
C15   H15   1.076540 S    
C165  C174  1.424681 A    
C77   C101  1.401748 A    
C16   H16   1.079413 S    
C51   H35   1.081154 S    
C124  C132  1.395423 A    
C29   H29   1.079257 S    
C80   C104  1.401729 A    
C161  C170  1.424682 A    
N25   Ni6   1.836277 S    
C20   C44   1.385649 A    
N8    Ni3   1.845374 S    
C55   C95   1.392487 A    
C181  H69   1.084101 S    
C91   C108  1.401823 A    
N10   N18   1.360086 A    
C53   H37   1.081162 S    
C176  N40   1.439250 S    
C50   C58   1.403867 A    
C140  H75   1.075089 S    
C177  H65   1.084096 S    
