data_mof_unit_8505.cif
_audit_creation_date              2012-12-10T17:33:40-0500
_audit_creation_method            fapswitch 2.2
_symmetry_space_group_name_H-M    P1
_symmetry_Int_Tables_number       1
_space_group_crystal_system       triclinic
_cell_length_a                    11.696841
_cell_length_b                    12.297458
_cell_length_c                    13.293454
_cell_angle_alpha                 116.553325
_cell_angle_beta                  77.885562
_cell_angle_gamma                 101.009305
_cell_volume                      1662.01216358

loop_
_atom_site_label
_atom_site_type_symbol
_atom_type_description
_atom_site_fract_x
_atom_site_fract_y
_atom_site_fract_z
_atom_type_partial_charge
C1    C     C_R   0.506008 0.854553 0.287549 0.808574
C2    C     C_R   0.466682 0.228587 0.834874 -0.120322
C3    C     C_R   0.559790 0.814726 0.085638 -0.167269
C4    C     C_R   0.586456 0.734551 0.972574 -0.108396
C5    C     C_R   0.558543 0.609456 0.938757 -0.095939
C6    C     C_R   0.494171 0.562452 0.015942 0.087417
C7    C     C_R   0.462132 0.643658 0.130433 0.024666
C8    C     C_R   0.467004 0.435009 0.982804 0.015921
C9    C     C_R   0.437377 0.388952 0.066355 0.009746
C10   C     C_R   0.392260 0.468859 0.176052 -0.180413
C11   C     C_R   0.391802 0.592303 0.203033 0.244136
C12   C     C_R   0.715751 0.999514 0.499800 0.809674
C13   C     C_R   0.458915 0.353059 0.869809 0.193138
C14   C     C_R   0.460050 0.184613 0.917043 -0.231713
C15   C     C_R   0.503451 0.770693 0.166667 -0.086729
C16   C     C_R   0.691364 0.345481 0.330685 -0.213254
C17   C     C_R   0.335334 0.750848 0.637855 0.389383
C18   C     C_R   0.282339 0.639391 0.641324 -0.170137
C19   C     C_R   0.333492 0.531067 0.569341 -0.097582
C20   C     C_R   0.448444 0.539115 0.510409 -0.080673
C21   C     C_R   0.491968 0.650207 0.498877 0.213719
C22   C     C_R   0.519810 0.439547 0.459048 0.021732
C23   C     C_R   0.481559 0.145555 0.713248 0.857254
C24   C     C_R   0.621070 0.442821 0.379651 0.121486
C25   C     C_R   0.651533 0.544777 0.353822 -0.083146
C26   C     C_R   0.591330 0.647876 0.417518 -0.203372
C27   C     C_R   0.497463 0.338936 0.488278 0.118310
C28   C     C_R   0.661509 0.247500 0.360074 0.083994
C29   C     C_R   0.284232 0.000670 0.500430 0.870639
C30   C     C_1   0.837393 0.999041 0.499908 -0.127507
C31   C     C_1   0.940013 0.999510 0.499950 0.048473
C32   C     C_1   0.060033 0.000492 0.500038 0.048877
C33   C     C_1   0.162633 0.001047 0.500180 -0.091011
C34   C     C_R   0.438810 0.262126 0.033337 0.003279
Cu1   Cu    Cu3+1 0.526510 0.098270 0.475420 0.990633
Cu2   Cu    Cu3+1 0.473490 0.901730 0.524580 1.015990
H1    H     H_    0.466882 0.088674 0.890356 0.215642
H2    H     H_    0.770934 0.345161 0.272078 0.179222
H3    H     H_    0.426773 0.333392 0.552207 0.165067
H4    H     H_    0.622663 0.722998 0.396562 0.218333
H5    H     H_    0.343598 0.433884 0.236130 0.217310
H6    H     H_    0.590023 0.910944 0.110637 0.165960
H7    H     H_    0.590650 0.549594 0.852360 0.163559
H8    H     H_    0.634488 0.769123 0.911898 0.158541
H9    H     H_    0.715097 0.172467 0.321320 0.134591
N1    N     N_R   0.566700 0.246290 0.438210 -0.196500
N2    N     N_R   0.434010 0.754320 0.561170 -0.216230
O1    O     O_R   0.533340 0.972510 0.318140 -0.590748
O2    O     O_R   0.488570 0.806530 0.359650 -0.582891
O3    O     O_R   0.685190 0.083000 0.479260 -0.583036
O4    O     O_R   0.640410 0.917020 0.520770 -0.593160
O5    O     O_R   0.511430 0.193470 0.640350 -0.561995
O6    O     O_R   0.466660 0.027490 0.681860 -0.557138
O7    O     O_R   0.359590 0.082980 0.479230 -0.577159
O8    O     O_R   0.314810 0.917000 0.520740 -0.511195
C35   C     C_2   0.745245 0.547205 0.259817 0.842882
O9    O     O_2   0.813496 0.639775 0.273148 -0.577123
O10   O     O_R   0.751917 0.445699 0.154376 -0.758134
H10   H     H_    0.817909 0.459328 0.096760 0.347061
Br1   Br    Br    0.258777 0.895149 0.739346 -0.409826
C36   C     C_2   0.256986 0.411908 0.536525 0.853132
O11   O     O_2   0.258667 0.341246 0.436070 -0.563022
O12   O     O_R   0.183991 0.379950 0.619151 -0.704517
H11   H     H_    0.137628 0.296433 0.585284 0.335843
C37   C     C_2   0.169315 0.635547 0.715533 0.966143
O13   O     O_2   0.080189 0.657032 0.696562 -0.554229
O14   O     O_R   0.165393 0.607280 0.807092 -0.669190
H12   H     H_    0.083554 0.607128 0.851480 0.346495
C38   C     C_2   0.423620 0.207529 0.115813 0.872853
O15   O     O_2   0.447948 0.269585 0.211843 -0.581522
O16   O     O_R   0.385260 0.082919 0.081935 -0.738210
H13   H     H_    0.380369 0.055861 0.144605 0.347756
Br2   Br    Br    0.384795 0.403594 0.782861 -0.476678
Br3   Br    Br    0.263639 0.669525 0.314462 -0.447464

loop_
_geom_bond_atom_site_label_1
_geom_bond_atom_site_label_2
_ccdc_geom_bond_type
C16   C28   A    
C21   C26   A    
C3    H6    S    
C8    C13   A    
C19   C20   A    
C25   C35   S    
C18   C37   S    
C7    C11   A    
C28   N1    A    
C5    C6    A    
C29   O7    A    
C29   C33   S    
C35   O9    D    
Cu2   N2    S    
C36   O12   S    
C18   C19   A    
C38   O16   S    
C2    C13   A    
Cu2   O6    S    
Cu1   Cu2   S    
C27   H3    S    
C8    C9    A    
C37   O14   S    
C1    C15   S    
C9    C10   A    
C7    C15   A    
C5    H7    S    
C16   C24   A    
Cu1   O7    S    
C38   O15   D    
Cu1   O1    S    
C23   O6    A    
C28   H9    S    
O14   H12   S    
C24   C25   A    
C6    C8    A    
C4    H8    S    
O10   H10   S    
C31   C32   S    
Cu1   O3    S    
C17   C18   A    
C34   C38   S    
Cu2   O4    S    
C27   N1    A    
C20   C22   A    
C22   C27   A    
C9    C34   A    
C22   C24   A    
C3    C4    A    
C2    C23   S    
C12   O4    A    
C3    C15   A    
C12   C30   S    
C17   N2    A    
C13   Br2   S    
C4    C5    A    
C11   Br3   S    
C14   C34   A    
C12   O3    A    
C1    O1    A    
C6    C7    A    
C29   O8    A    
C32   C33   T    
C25   C26   A    
O16   H13   S    
Cu2   O8    S    
C14   H1    S    
C26   H4    S    
C23   O5    A    
C30   C31   T    
C19   C36   S    
C10   H5    S    
C35   O10   S    
C36   O11   D    
C2    C14   A    
C10   C11   A    
C17   Br1   S    
O12   H11   S    
C20   C21   A    
C37   O13   D    
Cu1   O5    S    
Cu1   N1    S    
C1    O2    A    
Cu2   O2    S    
C16   H2    S    
C21   N2    A    
