data_mof_unit_23298.cif
_audit_creation_date              2012-12-10T20:26:30-0500
_audit_creation_method            fapswitch 2.2
_symmetry_space_group_name_H-M    P1
_symmetry_Int_Tables_number       1
_space_group_crystal_system       triclinic
_cell_length_a                    10.718234
_cell_length_b                    10.749484
_cell_length_c                    9.955109
_cell_angle_alpha                 89.49812
_cell_angle_beta                  89.813518
_cell_angle_gamma                 91.213904
_cell_volume                      1146.67451331

loop_
_atom_site_label
_atom_site_type_symbol
_atom_type_description
_atom_site_fract_x
_atom_site_fract_y
_atom_site_fract_z
_atom_type_partial_charge
C1    C     C_R   0.501319 0.260465 0.500089 0.898735
C2    C     C_R   0.597140 0.552710 0.071482 -0.012900
C3    C     C_R   0.597494 0.551671 0.926751 -0.002660
C4    C     C_R   0.262838 0.495218 0.500223 0.944586
C5    C     C_R   0.394936 0.467679 0.930363 0.179362
C6    C     C_3   0.320529 0.349208 0.926549 -0.420729
C7    C     C_3   0.323801 0.346216 0.079348 -0.444079
C8    C     C_R   0.494777 0.739352 0.499549 0.900076
C9    C     C_R   0.737172 0.501200 0.499690 0.923538
C10   C     C_2   0.932191 0.470398 0.390696 -0.112351
C11   C     C_2   0.869352 0.507796 0.498513 -0.311331
C12   C     C_R   0.506332 0.128474 0.497128 -0.134124
C13   C     C_2   0.066494 0.478823 0.387582 -0.138117
C14   C     C_2   0.131176 0.477493 0.501769 -0.333035
C15   C     C_R   0.555492 0.062575 0.604878 -0.001023
C16   C     C_2   0.628984 0.117420 0.833604 0.415991
C17   C     C_2   0.695971 0.621266 0.145185 0.436128
C18   C     C_2   0.698039 0.616401 0.850856 0.510625
C19   C     C_3   0.433052 0.878761 0.166715 0.127376
C20   C     C_3   0.364640 0.785831 0.077985 -0.749415
C21   C     C_2   0.366420 0.889454 0.767987 0.424839
C22   C     C_R   0.456296 0.065930 0.386095 -0.283607
C23   C     C_R   0.448503 0.937051 0.386195 0.460543
C24   C     C_R   0.492841 0.871716 0.498445 -0.177816
C25   C     C_R   0.543995 0.934852 0.607366 -0.037751
C26   C     C_3   0.501483 0.932357 0.751640 -0.258805
C27   C     C_3   0.520912 0.072868 0.749619 -0.158745
C28   C     C_R   0.395937 0.465481 0.071325 0.167727
H1    H     H_    0.884808 0.436393 0.301526 0.213282
H2    H     H_    0.566307 0.881672 0.818482 0.099505
H3    H     H_    0.435128 0.126309 0.762378 0.209765
H4    H     H_    0.719122 0.073842 0.825154 0.082078
H5    H     H_    0.671408 0.683728 0.224897 0.083189
H6    H     H_    0.676087 0.691795 0.782831 0.038726
H7    H     H_    0.532346 0.850882 0.174190 0.107629
H8    H     H_    0.428933 0.972746 0.119386 0.157396
H9    H     H_    0.276040 0.825577 0.041655 0.275578
H10   H     H_    0.424305 0.761004 0.991598 0.152418
H11   H     H_    0.341621 0.700132 0.136402 0.266082
H12   H     H_    0.225510 0.362682 0.885183 0.203640
H13   H     H_    0.340655 0.793006 0.750303 0.103576
H14   H     H_    0.372728 0.273396 0.881341 0.232573
H15   H     H_    0.230491 0.357363 0.126037 0.195177
H16   H     H_    0.379593 0.268971 0.120916 0.221151
H17   H     H_    0.913816 0.546883 0.586715 0.181902
H18   H     H_    0.111695 0.487407 0.290030 0.184642
H19   H     H_    0.088169 0.459704 0.599050 0.165648
H20   H     H_    0.413590 0.116740 0.304518 0.168512
N1    N     N_R   0.499170 0.499140 0.142800 -0.150116
N2    N     N_R   0.499170 0.499180 0.857150 -0.143085
O1    O     O_R   0.500020 0.316790 0.614690 -0.608687
O2    O     O_2   0.806211 0.606776 0.120492 -0.535354
O3    O     O_2   0.805687 0.582307 0.858622 -0.517316
O4    O     O_3   0.373842 0.876949 0.293254 -0.594487
O5    O     O_2   0.285384 0.960275 0.803795 -0.577614
O6    O     O_R   0.500000 0.316760 0.385350 -0.618101
O7    O     O_R   0.319080 0.500020 0.614640 -0.627914
O8    O     O_R   0.319070 0.499980 0.385300 -0.615816
O9    O     O_R   0.500000 0.683240 0.614650 -0.675511
O10   O     O_R   0.499980 0.683210 0.385310 -0.616927
O11   O     O_R   0.680930 0.500020 0.614700 -0.601730
O12   O     O_R   0.680920 0.499980 0.385360 -0.627922
O13   O     O_2   0.616153 0.202959 0.911887 -0.562065
Zn1   Zn    Zn3+2 0.500010 0.500020 0.653130 0.959875
Zn2   Zn    Zn3+2 0.499990 0.499980 0.346870 0.957260

loop_
_geom_bond_atom_site_label_1
_geom_bond_atom_site_label_2
_ccdc_geom_bond_type
C4    O7    A    
O11   Zn1   S    
C22   H20   S    
C23   C24   A    
C6    C7    S    
C2    N1    A    
C7    H15   S    
C16   H4    S    
C5    C28   A    
C1    O1    A    
C28   N1    A    
O8    Zn2   S    
C15   C27   S    
C19   C20   S    
C18   O3    D    
C12   C15   A    
C21   C26   S    
C16   C27   S    
C2    C3    A    
C26   C27   S    
C19   H7    S    
C13   C14   D    
C8    O10   A    
C2    C17   S    
C20   H9    S    
C18   H6    S    
C10   H1    S    
O9    Zn1   S    
C14   H19   S    
C1    C12   S    
C17   H5    S    
C3    C18   S    
C9    O11   A    
N2    Zn1   S    
C17   O2    D    
C16   O13   D    
C3    N2    A    
O10   Zn2   S    
C26   H2    S    
C1    O6    A    
C19   H8    S    
C9    C11   S    
C8    O9    A    
C4    C14   S    
C5    C6    S    
C6    H12   S    
C5    N2    A    
C11   H17   S    
C15   C25   A    
C10   C11   D    
O1    Zn1   S    
C27   H3    S    
O6    Zn2   S    
C12   C22   A    
C20   H10   S    
C24   C25   A    
C19   O4    S    
O7    Zn1   S    
C23   O4    S    
C21   H13   S    
C4    O8    A    
C21   O5    D    
C20   H11   S    
C13   H18   S    
O12   Zn2   S    
C8    C24   S    
C25   C26   S    
N1    Zn2   S    
C6    H14   S    
C7    H16   S    
C22   C23   A    
C7    C28   S    
C9    O12   A    
C10   C13   S    
