data_mof_unit_49503.cif
_audit_creation_date              2012-12-10T18:34:32-0500
_audit_creation_method            fapswitch 2.2
_symmetry_space_group_name_H-M    P1
_symmetry_Int_Tables_number       1
_space_group_crystal_system       triclinic
_cell_length_a                    15.009713
_cell_length_b                    15.450583
_cell_length_c                    15.728674
_cell_angle_alpha                 89.982152
_cell_angle_beta                  104.770021
_cell_angle_gamma                 82.148924
_cell_volume                      3491.67698658

loop_
_atom_site_label
_atom_site_type_symbol
_atom_type_description
_atom_site_fract_x
_atom_site_fract_y
_atom_site_fract_z
_atom_type_partial_charge
Br1   Br    Br    0.347821 0.661268 0.031146 -0.492804
Br2   Br    Br    0.652110 0.338948 0.968958 -0.495928
C1    C     C_R   0.441719 0.662293 0.485922 0.863453
C2    C     C_R   0.552340 0.101530 0.461250 0.057639
C3    C     C_R   0.349119 0.931244 0.411545 0.061501
C4    C     C_R   0.648494 0.068755 0.478216 0.064396
C5    C     C_R   0.513088 0.954664 0.443865 0.008434
C6    C     C_R   0.484331 0.045230 0.435393 0.009535
C7    C     C_R   0.388641 0.076659 0.401388 -0.320288
C8    C     C_R   0.608502 0.922824 0.455276 -0.320817
C9    C     C_R   0.320849 0.020672 0.390322 0.476007
C10   C     C_R   0.676317 0.978857 0.473342 0.472758
C11   C     C_R   0.839449 0.644500 0.622412 -0.328865
C12   C     C_R   0.558123 0.337760 0.510104 0.867513
C13   C     C_R   0.160082 0.356557 0.376301 -0.321583
C14   C     C_R   0.751485 0.619549 0.603348 0.024119
C15   C     C_R   0.247977 0.381650 0.395216 0.023962
C16   C     C_R   0.501200 0.500312 0.662085 0.902224
C17   C     C_R   0.498792 0.499704 0.337917 0.901532
C18   C     C_R   0.794973 0.507770 0.512183 -0.050425
C19   C     C_R   0.205574 0.491048 0.489205 -0.052927
C20   C     C_R   0.885870 0.529725 0.528845 0.000576
C21   C     C_R   0.114727 0.468998 0.472624 -0.000590
C22   C     C_R   0.906897 0.600071 0.585054 0.181862
C23   C     C_R   0.283071 0.873501 0.406015 -0.157166
C24   C     C_R   0.093332 0.399458 0.415442 0.181082
C25   C     C_R   0.955489 0.485348 0.491406 0.081010
C26   C     C_R   0.045342 0.512893 0.510627 0.080834
C27   C     C_R   0.062663 0.583611 0.566703 -0.226152
C28   C     C_R   0.938200 0.414601 0.435352 -0.227704
C29   C     C_R   0.994675 0.625988 0.603209 -0.203420
C30   C     C_R   0.005834 0.372975 0.397939 -0.204703
C31   C     C_3   0.437870 0.565996 0.011985 0.343250
C32   C     C_3   0.562024 0.434225 0.988028 0.343379
C33   C     C_3   0.524328 0.576644 0.979068 -0.232677
C34   C     C_R   0.714832 0.126594 0.501887 -0.169909
C35   C     C_3   0.475566 0.423577 0.020939 -0.231406
C36   C     C_1   0.503526 0.501115 0.751674 -0.159334
C37   C     C_1   0.496434 0.498975 0.248332 -0.152744
C38   C     C_3   0.415022 0.490965 0.948987 -0.233384
C39   C     C_3   0.584869 0.509256 0.051021 -0.230391
C40   C     C_3   0.502120 0.500923 0.917683 0.076860
C41   C     C_3   0.497775 0.499294 0.082322 0.076647
C42   C     C_1   0.503729 0.501332 0.827089 0.018779
C43   C     C_1   0.496195 0.498829 0.172914 0.021632
C44   C     C_R   0.406702 0.754840 0.464744 -0.056426
C45   C     C_R   0.311829 0.785503 0.431605 -0.202186
C46   C     C_R   0.592179 0.245514 0.502733 -0.052048
C47   C     C_3   0.191208 0.112084 0.406944 0.073907
C48   C     C_3   0.161649 0.065005 0.478851 -0.378414
C49   C     C_3   0.114417 0.130113 0.532291 -0.910751
C50   C     C_3   0.806216 0.891464 0.557453 0.072751
C51   C     C_3   0.847119 0.944660 0.636459 -0.378609
C52   C     C_3   0.893473 0.885657 0.717907 -0.916233
C53   C     C_R   0.686715 0.214679 0.513556 -0.208195
C54   C     C_R   0.471868 0.812037 0.470724 -0.219832
C55   C     C_R   0.526445 0.188743 0.477384 -0.225181
C56   C     C_R   0.445385 0.898740 0.440356 0.059779
H1    H     H_    0.543706 0.639335 0.960137 0.176068
H2    H     H_    0.872831 0.389348 0.418585 0.141718
H3    H     H_    0.654359 0.516057 0.094476 0.177030
H4    H     H_    0.345531 0.484164 0.905536 0.175992
H5    H     H_    0.454516 0.212753 0.473438 0.156704
H6    H     H_    0.543949 0.788455 0.501612 0.153628
H7    H     H_    0.738710 0.258234 0.531549 0.161261
H8    H     H_    0.260148 0.741766 0.425493 0.164893
H9    H     H_    0.209239 0.896097 0.382401 0.181211
H10   H     H_    0.788479 0.103836 0.512759 0.176659
H11   H     H_    0.365522 0.144212 0.379631 0.150521
H12   H     H_    0.456190 0.360887 0.039878 0.177455
H13   H     H_    0.631754 0.854637 0.447613 0.163578
H14   H     H_    0.010915 0.679963 0.645793 0.146071
H15   H     H_    0.989484 0.319274 0.355000 0.149649
H16   H     H_    0.128366 0.151832 0.364470 0.174260
H17   H     H_    0.239332 0.159071 0.436722 0.127061
H18   H     H_    0.112457 0.019404 0.448155 0.234341
H19   H     H_    0.223738 0.026487 0.523810 0.217075
H20   H     H_    0.162785 0.175775 0.564525 0.268865
H21   H     H_    0.094005 0.094311 0.583948 0.266320
H22   H     H_    0.050884 0.168253 0.489061 0.262218
H23   H     H_    0.229503 0.541559 0.532552 0.127577
H24   H     H_    0.863155 0.843582 0.544543 0.179427
H25   H     H_    0.755397 0.852183 0.573780 0.122084
H26   H     H_    0.899541 0.981737 0.620387 0.232062
H27   H     H_    0.790849 0.992056 0.651232 0.224428
H28   H     H_    0.841702 0.849598 0.736507 0.260307
H29   H     H_    0.922898 0.926072 0.773684 0.279837
H30   H     H_    0.950805 0.838136 0.705249 0.256700
H31   H     H_    0.771449 0.456395 0.469848 0.126440
H32   H     H_    0.300654 0.348497 0.366143 0.133125
H33   H     H_    0.698347 0.653730 0.631202 0.132671
H34   H     H_    0.854494 0.698198 0.665554 0.148142
H35   H     H_    0.144502 0.304097 0.331665 0.144056
H36   H     H_    0.128154 0.608626 0.583763 0.140975
N1    N     N_R   0.731710 0.552730 0.549140 -0.099078
N2    N     N_R   0.268290 0.447270 0.450860 -0.099664
O1    O     O_R   0.383110 0.605620 0.475230 -0.616875
O2    O     O_3   0.769164 0.946789 0.481119 -0.642430
O3    O     O_R   0.616890 0.394380 0.524770 -0.616750
O4    O     O_R   0.531900 0.639510 0.506760 -0.626903
O5    O     O_R   0.468100 0.360490 0.493240 -0.626705
O6    O     O_R   0.425620 0.483070 0.607460 -0.612215
O7    O     O_R   0.574380 0.516930 0.392540 -0.612067
O8    O     O_R   0.574400 0.516960 0.638990 -0.604833
O9    O     O_R   0.425600 0.483040 0.361010 -0.606184
O10   O     O_3   0.227667 0.051379 0.352600 -0.640857
Zn1   Zn    Zn3+2 0.400660 0.477370 0.478940 0.954607
Zn2   Zn    Zn3+2 0.599340 0.522630 0.521060 0.955214

loop_
_geom_bond_atom_site_label_1
_geom_bond_atom_site_label_2
_ccdc_geom_bond_type
O5    Zn1   S    
C5    C8    A    
C52   H30   S    
C24   C30   A    
C46   C53   A    
C32   C35   S    
C23   H9    S    
C39   H3    S    
C2    C6    A    
Br1   C31   S    
C46   C55   A    
C51   C52   S    
O3    Zn2   S    
O9    Zn1   S    
C3    C56   A    
C51   H26   S    
C26   C27   A    
C7    H11   S    
C3    C9    A    
C35   C38   S    
C4    C10   A    
C27   H36   S    
C38   H4    S    
C33   H1    S    
C16   O6    A    
C21   C24   A    
C33   C40   S    
C49   H22   S    
C17   O7    A    
C1    O4    A    
C54   C56   A    
C6    C7    A    
C32   C40   S    
C2    C55   A    
C47   H17   S    
O7    Zn2   S    
C23   C45   A    
C5    C56   A    
C10   O2    S    
C37   C43   T    
C8    H13   S    
Br2   C32   S    
C38   C40   S    
C35   H12   S    
C25   C28   A    
C39   C41   S    
C32   C39   S    
C40   C42   S    
C8    C10   A    
C53   H7    S    
C55   H5    S    
O4    Zn2   S    
C31   C38   S    
C31   C41   S    
C12   O3    A    
C2    C4    A    
C30   H15   S    
C52   H28   S    
C13   C24   A    
C12   C46   S    
C11   C22   A    
C28   H2    S    
C35   C41   S    
C50   H25   S    
C36   C42   T    
C48   H18   S    
C7    C9    A    
C1    O1    A    
C9    O10   S    
C54   H6    S    
C48   C49   S    
O6    Zn1   S    
C15   N2    A    
C16   O8    A    
C21   C26   A    
C50   H24   S    
C41   C43   S    
C17   C37   S    
C3    C23   A    
C17   O9    A    
C29   H14   S    
C18   N1    A    
C19   H23   S    
C20   C25   A    
C19   C21   A    
C11   H34   S    
C20   C22   A    
C48   H19   S    
O8    Zn2   S    
C50   C51   S    
C13   C15   A    
C44   C45   A    
C14   N1    A    
C45   H8    S    
N2    Zn1   S    
C15   H32   S    
C18   C20   A    
C12   O5    A    
C13   H35   S    
C34   H10   S    
C47   O10   S    
C19   N2    A    
C18   H31   S    
C1    C44   S    
C16   C36   S    
C49   H20   S    
C27   C29   A    
C34   C53   A    
C28   C30   A    
C52   H29   S    
C50   O2    S    
C31   C33   S    
C4    C34   A    
C33   C39   S    
C49   H21   S    
C22   C29   A    
C5    C6    A    
N1    Zn2   S    
O1    Zn1   S    
C14   H33   S    
C47   C48   S    
C11   C14   A    
C44   C54   A    
C25   C26   A    
C47   H16   S    
C51   H27   S    
