data_mof_unit_25682.cif
_audit_creation_date              2012-10-26T21:24:50-0400
_audit_creation_method            fapswitch 2.2
_symmetry_space_group_name_H-M    P1
_symmetry_Int_Tables_number       1
_space_group_crystal_system       triclinic
_cell_length_a                    9.544378
_cell_length_b                    10.871845
_cell_length_c                    15.565094
_cell_angle_alpha                 89.47484
_cell_angle_beta                  74.220349
_cell_angle_gamma                 89.844931
_cell_volume                      1554.1805431

loop_
_atom_site_label
_atom_site_type_symbol
_atom_type_description
_atom_site_fract_x
_atom_site_fract_y
_atom_site_fract_z
_atom_type_partial_charge
C1    C     C_R   0.999844 0.262632 0.500364 0.550933
C2    C     C_R   0.222283 0.473506 0.043788 0.050508
C3    C     C_R   0.324717 0.501354 0.091752 0.033997
C4    C     C_R   0.918065 0.501079 0.671843 0.543574
C5    C     C_R   0.074347 0.458629 0.088748 -0.141463
C6    C     C_R   0.026541 0.470549 0.181155 -0.140129
C7    C     C_R   0.274660 0.505923 0.185271 -0.132706
C8    C     C_R   0.128020 0.063248 0.483636 0.017072
C9    C     C_R   0.999048 0.129852 0.498126 -0.004824
C10   C     C_R   0.866943 0.066989 0.510850 -0.163223
C11   C     C_R   0.862518 0.939123 0.516166 -0.042709
C12   C     C_R   0.671024 0.514792 0.905475 0.036046
C13   C     C_R   0.994349 0.871691 0.503855 -0.009129
C14   C     C_R   0.125996 0.936165 0.486002 -0.001236
C15   C     C_3   0.239360 0.931979 0.536308 -0.252738
C16   C     C_R   0.997827 0.737700 0.503198 0.549007
C17   C     C_3   0.241714 0.071081 0.532806 -0.258580
C18   C     C_R   0.607501 0.528227 0.423967 0.155255
C19   C     C_R   0.542346 0.458654 0.571950 0.000960
C20   C     C_R   0.393646 0.458720 0.571961 -0.012928
C21   C     C_R   0.460067 0.529239 0.424235 0.162640
C22   C     C_3   0.477986 0.647884 0.373637 -0.268599
C23   C     C_R   0.770199 0.556366 0.952239 0.049508
C24   C     C_3   0.637958 0.644911 0.371354 -0.272612
C25   C     C_R   0.081921 0.498324 0.327999 0.546384
C26   C     C_R   0.872233 0.511611 0.769227 0.000871
C27   C     C_R   0.127082 0.492893 0.230003 -0.001245
C28   C     C_R   0.917405 0.575288 0.907414 -0.144133
C29   C     C_R   0.968183 0.553358 0.816313 -0.142984
C30   C     C_R   0.726473 0.489125 0.814209 -0.125798
C31   C     C_1   0.719814 0.882987 0.543113 0.207372
C32   C     C_R   0.520438 0.501334 0.951229 0.035325
C33   C     C_R   0.473785 0.520780 0.045063 0.034012
C34   C     C_R   0.576758 0.562482 0.088736 -0.137013
C35   C     C_R   0.721535 0.580388 0.043007 -0.138937
C36   C     C_R   0.414390 0.472587 0.906080 -0.134873
C37   C     C_R   0.268408 0.459906 0.951620 -0.138719
Cu1   Cu    Cu3+1 0.140670 0.499980 0.500000 0.940337
Cu2   Cu    Cu3+1 0.859330 0.500020 0.500000 0.955388
H1    H     H_    0.795990 0.613732 0.079179 0.106685
H2    H     H_    0.459522 0.638867 0.306878 0.110891
H3    H     H_    0.349351 0.515433 0.225263 0.116443
H4    H     H_    0.416934 0.723958 0.413867 0.153569
H5    H     H_    0.711039 0.630026 0.303276 0.114840
H6    H     H_    0.670919 0.721258 0.408360 0.175462
H7    H     H_    0.911908 0.458759 0.214441 0.125703
H8    H     H_    0.191128 0.438292 0.914231 0.107601
H9    H     H_    0.992725 0.609518 0.942574 0.112333
H10   H     H_    0.081259 0.571970 0.782444 0.126199
H11   H     H_    0.658799 0.451240 0.775987 0.108905
H12   H     H_    0.995706 0.436758 0.052470 0.113449
H13   H     H_    0.548581 0.586604 0.158059 0.094120
H14   H     H_    0.439213 0.462473 0.834806 0.095957
H15   H     H_    0.765453 0.117515 0.522096 0.138497
H16   H     H_    0.197245 0.893842 0.605059 0.149354
H17   H     H_    0.343495 0.891531 0.497041 0.151570
H18   H     H_    0.201093 0.114121 0.599549 0.138858
H19   H     H_    0.345725 0.109447 0.490387 0.145613
H20   H     H_    0.571076 0.426208 0.630718 0.109604
H21   H     H_    0.312281 0.426792 0.630678 0.110423
N1    N     N_R   0.648210 0.500930 0.499430 -0.223304
N2    N     N_R   0.352300 0.500890 0.499430 -0.230514
N3    N     N_1   0.605234 0.838841 0.565394 -0.323997
O1    O     O_R   0.118810 0.319640 0.500000 -0.498406
O2    O     O_R   0.881230 0.319680 0.499990 -0.510785
O3    O     O_R   0.055580 0.499970 0.629840 -0.515179
O4    O     O_R   0.818000 0.500010 0.629830 -0.510507
O5    O     O_R   0.118770 0.680320 0.500010 -0.499923
O6    O     O_R   0.881190 0.680360 0.500000 -0.487161
O7    O     O_R   0.182000 0.499990 0.370170 -0.505830
O8    O     O_R   0.944420 0.500030 0.370160 -0.505078

loop_
_geom_bond_atom_site_label_1
_geom_bond_atom_site_label_2
_ccdc_geom_bond_type
C8    C9    A    
C4    O4    A    
C4    C26   S    
Cu1   O7    S    
C18   N1    A    
C23   C28   A    
C25   O8    A    
C2    C3    A    
C37   H8    S    
C18   C21   A    
C11   C13   A    
C9    C10   A    
C16   O6    A    
C3    C7    A    
C6    C27   A    
C12   C23   A    
C17   H19   S    
C16   O5    A    
C12   C30   A    
C15   H17   S    
C25   O7    A    
C33   C34   A    
C30   H11   S    
C11   C31   S    
C29   H10   S    
C13   C14   A    
C12   C32   A    
C8    C17   S    
C4    O3    A    
Cu2   O2    S    
C2    C37   A    
C21   N2    A    
C5    C6    A    
C19   N1    A    
C18   C24   S    
C24   H6    S    
C32   C36   A    
C28   C29   A    
Cu1   O5    S    
C26   C30   A    
C23   C35   A    
Cu2   O6    S    
Cu1   Cu2   S    
C24   H5    S    
C22   C24   S    
C13   C16   S    
C2    C5    A    
C25   C27   S    
C10   C11   A    
C3    C33   A    
C10   H15   S    
C35   H1    S    
C22   H2    S    
C1    O1    A    
C31   N3    T    
Cu2   N1    S    
C7    C27   A    
C26   C29   A    
C34   C35   A    
C7    H3    S    
C5    H12   S    
C34   H13   S    
C15   C17   S    
Cu1   O1    S    
Cu1   O3    S    
C14   C15   S    
C36   C37   A    
C8    C14   A    
C36   H14   S    
C6    H7    S    
C19   H20   S    
C20   H21   S    
C21   C22   S    
Cu2   O4    S    
C1    O2    A    
C22   H4    S    
C28   H9    S    
C1    C9    S    
C19   C20   A    
C32   C33   A    
C17   H18   S    
C20   N2    A    
Cu1   N2    S    
Cu2   O8    S    
C15   H16   S    
