data_mof_unit_17671.cif
_audit_creation_date              2012-10-26T20:17:40-0400
_audit_creation_method            fapswitch 2.2
_symmetry_space_group_name_H-M    P1
_symmetry_Int_Tables_number       1
_space_group_crystal_system       triclinic
_cell_length_a                    27.811954
_cell_length_b                    8.616443
_cell_length_c                    7.520884
_cell_angle_alpha                 103.691854
_cell_angle_beta                  94.82549
_cell_angle_gamma                 94.552414
_cell_volume                      1735.68307922

loop_
_atom_site_label
_atom_site_type_symbol
_atom_type_description
_atom_site_fract_x
_atom_site_fract_y
_atom_site_fract_z
_atom_type_partial_charge
C1    C     C_R   0.498288 0.199483 0.452497 0.549735
C2    C     C_R   0.865650 0.372452 0.402038 0.020272
C3    C     C_R   0.354510 0.490416 0.502797 0.012002
C4    C     C_R   0.645486 0.508795 0.497478 0.012200
C5    C     C_R   0.967667 0.360046 0.404670 -0.016615
C6    C     C_R   0.032174 0.629008 0.605090 -0.019254
C7    C     C_R   0.981048 0.634031 0.604514 -0.014813
C8    C     C_R   0.018908 0.353311 0.409432 -0.013073
C9    C     C_R   0.949039 0.500653 0.501992 0.009675
C10   C     C_R   0.050876 0.488218 0.508479 0.010495
C11   C     C_R   0.934225 0.229946 0.305352 -0.157911
C12   C     C_R   0.501714 0.800517 0.547503 0.549755
C13   C     C_R   0.065395 0.762016 0.697686 -0.152900
C14   C     C_R   0.884116 0.231670 0.308356 0.252296
C15   C     C_R   0.115290 0.761021 0.693076 0.246552
C16   C     C_R   0.407544 0.497759 0.500842 0.549546
C17   C     C_R   0.592455 0.502148 0.499171 0.549390
C18   C     C_R   0.039262 0.214885 0.318271 -0.150961
C19   C     C_R   0.960815 0.769498 0.703315 -0.154814
C20   C     C_2   0.496894 0.030413 0.426736 -0.129671
C21   C     C_2   0.503112 0.969588 0.573263 -0.129704
C22   C     C_R   0.172043 0.339942 0.425163 0.386978
C23   C     C_R   0.101992 0.482801 0.510140 -0.121571
C24   C     C_R   0.828210 0.653437 0.579101 0.391861
C25   C     C_R   0.184337 0.613072 0.597181 0.400787
C26   C     C_R   0.815353 0.380998 0.405526 0.407120
C27   C     C_R   0.273791 0.460686 0.340281 -0.056161
C28   C     C_R   0.726009 0.535764 0.660665 -0.056613
C29   C     C_R   0.323994 0.468635 0.338070 -0.133555
C30   C     C_R   0.675826 0.529194 0.662346 -0.133304
C31   C     C_R   0.333825 0.502549 0.669198 -0.126474
C32   C     C_R   0.666353 0.496890 0.331447 -0.126984
C33   C     C_R   0.283650 0.493353 0.670860 -0.054773
C34   C     C_R   0.897945 0.507691 0.497585 -0.125224
C35   C     C_R   0.716549 0.504660 0.330315 -0.058800
C36   C     C_R   0.253467 0.473640 0.506737 0.235569
C37   C     C_R   0.746530 0.522848 0.494624 0.233122
C38   C     C_3   0.082117 0.921568 0.245882 -0.002374
C39   C     C_3   0.114433 0.785172 0.211967 -0.329433
C40   C     C_3   0.918600 0.064228 0.768078 -0.003400
C41   C     C_3   0.884989 0.196785 0.784374 -0.326886
C42   C     C_3   0.861929 0.956867 0.242749 0.026516
C43   C     C_3   0.817284 0.836330 0.176658 -0.303971
C44   C     C_3   0.144557 0.023991 0.722935 0.036822
C45   C     C_R   0.121166 0.340582 0.420061 0.020103
C46   C     C_3   0.173446 0.169350 0.854755 -0.311143
C47   C     C_R   0.878998 0.649868 0.588829 0.024760
C48   C     C_R   0.089420 0.203512 0.328121 0.255690
C49   C     C_R   0.910922 0.783583 0.688023 0.258907
C50   C     C_R   0.134080 0.619990 0.601870 0.016048
Cu1   Cu    Cu3+1 0.505380 0.517380 0.684380 1.065974
Cu2   Cu    Cu3+1 0.494620 0.482620 0.315620 1.066079
H1    H     H_    0.356307 0.519843 0.798370 0.151185
H2    H     H_    0.054365 0.871363 0.777402 0.116752
H3    H     H_    0.017072 0.112443 0.234965 0.086307
H4    H     H_    0.982688 0.867154 0.797884 0.089283
H5    H     H_    0.490512 0.956021 0.286759 0.157089
H6    H     H_    0.509494 0.043980 0.713239 0.157035
H7    H     H_    0.050745 0.888173 0.137744 0.122047
H8    H     H_    0.069095 0.931582 0.383858 0.102336
H9    H     H_    0.147380 0.813773 0.312085 0.174652
H10   H     H_    0.094164 0.673126 0.225912 0.088228
H11   H     H_    0.125740 0.764285 0.071348 0.208824
H12   H     H_    0.643993 0.480695 0.202207 0.151052
H13   H     H_    0.934076 0.050401 0.633749 0.100076
H14   H     H_    0.948550 0.103145 0.881492 0.122486
H15   H     H_    0.870428 0.220209 0.919750 0.209108
H16   H     H_    0.905348 0.309034 0.771472 0.088402
H17   H     H_    0.854191 0.161586 0.674286 0.186997
H18   H     H_    0.869965 0.970344 0.393207 0.137023
H19   H     H_    0.892540 0.906438 0.170381 0.138662
H20   H     H_    0.807639 0.820120 0.026708 0.210026
H21   H     H_    0.824754 0.718577 0.202969 0.083894
H22   H     H_    0.786195 0.879445 0.251170 0.198795
H23   H     H_    0.268159 0.503620 0.800051 0.124089
H24   H     H_    0.107057 0.055736 0.696631 0.096508
H25   H     H_    0.161644 0.999539 0.592227 0.190089
H26   H     H_    0.211190 0.142771 0.886561 0.197102
H27   H     H_    0.174451 0.273498 0.791577 0.087457
H28   H     H_    0.156121 0.201357 0.984384 0.203386
H29   H     H_    0.732199 0.494432 0.201434 0.122888
H30   H     H_    0.660860 0.539030 0.792483 0.143210
H31   H     H_    0.338835 0.458550 0.207678 0.143201
H32   H     H_    0.748976 0.548625 0.788019 0.117811
H33   H     H_    0.250661 0.446564 0.213029 0.119926
H34   H     H_    0.945374 0.124561 0.218799 0.103169
I1    I     I_    0.431862 0.280960 0.897428 -0.242958
I2    I     I_    0.568156 0.718976 0.102573 -0.244169
N1    N     N_R   0.202002 0.475036 0.510414 -0.420947
N2    N     N_R   0.797967 0.519725 0.491791 -0.423611
N3    N     N_2   0.486510 0.456430 0.038510 -0.035309
N4    N     N_2   0.513490 0.543570 0.961490 -0.035283
O1    O     O_R   0.503500 0.286120 0.619780 -0.491616
O2    O     O_2   0.808827 0.789197 0.654956 -0.445990
O3    O     O_2   0.783718 0.251130 0.326180 -0.432731
O4    O     O_2   0.215651 0.743918 0.675909 -0.440559
O5    O     O_3   0.108375 0.065776 0.233156 -0.504308
O6    O     O_3   0.892410 0.921103 0.784484 -0.505822
O7    O     O_3   0.852656 0.103948 0.200397 -0.496790
O8    O     O_3   0.145638 0.890560 0.801711 -0.501132
O9    O     O_R   0.496500 0.713880 0.380220 -0.491563
O10   O     O_R   0.494410 0.256780 0.308360 -0.484283
O11   O     O_R   0.505590 0.743220 0.691640 -0.484242
O12   O     O_R   0.434810 0.514700 0.655690 -0.491929
O13   O     O_R   0.565190 0.485300 0.344310 -0.491777
O14   O     O_R   0.425720 0.485350 0.344280 -0.497837
O15   O     O_R   0.574280 0.514650 0.655720 -0.498009
O16   O     O_2   0.191810 0.205555 0.347252 -0.446097

loop_
_geom_bond_atom_site_label_1
_geom_bond_atom_site_label_2
_ccdc_geom_bond_type
C36   N1    S    
C43   H21   S    
C43   H20   S    
C23   C45   A    
I1    N3    S    
C28   H32   S    
C19   H4    S    
C15   O8    S    
C35   H29   S    
C14   O7    S    
C47   C49   A    
C48   O5    S    
Cu2   O10   S    
C37   N2    S    
C44   H25   S    
C35   C37   A    
C29   H31   S    
C17   O13   A    
C17   O15   A    
C40   O6    S    
C46   H27   S    
C11   C14   A    
C27   C29   A    
C11   H34   S    
Cu1   O11   S    
C42   H18   S    
C33   C36   A    
C27   H33   S    
C15   C50   A    
C3    C29   A    
C25   C50   A    
C49   O6    S    
C33   H23   S    
I2    N4    S    
C44   C46   S    
C31   C33   A    
C16   O14   A    
C2    C34   A    
C43   H22   S    
Cu2   O14   S    
C40   H14   S    
C38   O5    S    
C16   O12   A    
C41   H16   S    
C39   H9    S    
Cu2   O9    S    
Cu1   Cu2   S    
C32   C35   A    
C32   H12   S    
C12   O11   A    
C41   H15   S    
N3    N4    D    
C46   H26   S    
C23   C50   A    
Cu1   O12   S    
C12   C21   S    
C8    C18   A    
C24   N2    A    
C30   H30   S    
C5    C9    A    
C24   O2    S    
Cu1   N4    S    
C19   C49   A    
C2    C26   A    
C31   H1    S    
C3    C31   A    
C4    C32   A    
C18   H3    S    
Cu1   O1    S    
C38   H8    S    
C4    C17   S    
C1    O1    A    
C40   C41   S    
Cu2   O13   S    
C7    C19   A    
C40   H13   S    
C13   C15   A    
C9    C34   A    
C10   C23   A    
C42   C43   S    
C41   H17   S    
C13   H2    S    
C45   C48   A    
C26   O3    S    
C7    C9    A    
C39   H10   S    
C1    C20   S    
C24   C47   A    
C8    C10   A    
C18   C48   A    
C6    C10   A    
C5    C8    A    
C5    C11   A    
C6    C7    A    
C27   C36   A    
C26   N2    A    
C39   H11   S    
C25   N1    A    
C28   C30   A    
C12   O9    A    
C42   O7    S    
C6    C13   A    
C46   H28   S    
C44   O8    S    
C38   C39   S    
C28   C37   A    
C22   O16   S    
C42   H19   S    
C22   N1    A    
C2    C14   A    
C38   H7    S    
C21   H6    S    
C22   C45   A    
C20   C21   D    
C25   O4    S    
Cu1   O15   S    
Cu2   N3    S    
C34   C47   A    
C44   H24   S    
C20   H5    S    
C1    O10   A    
C4    C30   A    
C3    C16   S    
