data_mof_unit_60612.cif
_audit_creation_date              2012-12-10T21:01:53-0500
_audit_creation_method            fapswitch 2.2
_symmetry_space_group_name_H-M    P1
_symmetry_Int_Tables_number       1
_space_group_crystal_system       triclinic
_cell_length_a                    22.268035
_cell_length_b                    22.281744
_cell_length_c                    22.180993
_cell_angle_alpha                 108.044912
_cell_angle_beta                  110.083521
_cell_angle_gamma                 110.322746
_cell_volume                      8465.14360767

loop_
_atom_site_label
_atom_site_type_symbol
_atom_type_description
_atom_site_fract_x
_atom_site_fract_y
_atom_site_fract_z
_atom_type_partial_charge
C1    C     C_R   0.699603 0.849974 0.349964 0.828735
C2    C     C_R   0.300397 0.150027 0.650038 0.830050
C3    C     C_3   0.534789 0.487899 0.462729 -0.123756
C4    C     C_3   0.465225 0.512135 0.537307 -0.122648
C5    C     C_3   0.500007 0.536563 0.463588 0.156133
C6    C     C_3   0.500006 0.463472 0.536447 0.156147
C7    C     C_1   0.500004 0.577224 0.423075 -0.007189
C8    C     C_1   0.500007 0.422802 0.576952 -0.006337
C9    C     C_3   0.974927 0.455460 0.026140 0.220324
C10   C     C_3   0.025008 0.542856 0.973505 0.212826
C11   C     C_3   0.024779 0.451924 0.992318 0.206221
C12   C     C_3   0.975181 0.546377 0.007335 0.217740
C13   C     C_1   0.221352 0.610150 0.110377 -0.050413
C14   C     C_1   0.778631 0.389139 0.889478 -0.056636
C15   C     C_3   0.024298 0.539816 0.070912 -0.192830
C16   C     C_3   0.975648 0.458487 0.928727 -0.206061
C17   C     C_3   0.073732 0.536165 0.037046 -0.114773
C18   C     C_3   0.926235 0.462154 0.962610 -0.105818
C19   C     C_1   0.154719 0.576610 0.077092 0.162240
C20   C     C_1   0.845258 0.422133 0.922651 0.175146
C21   C     C_R   0.297385 0.566275 0.917700 0.003246
C22   C     C_R   0.704212 0.439383 0.094275 -0.000082
C23   C     C_R   0.300534 0.650125 0.150170 0.832526
C24   C     C_R   0.699459 0.349778 0.849807 0.828596
C25   C     C_R   0.339565 0.534458 0.939153 -0.191360
C26   C     C_R   0.661378 0.470376 0.071830 -0.216218
C27   C     C_R   0.411214 0.561150 0.948751 0.036487
C28   C     C_R   0.585938 0.436342 0.050677 0.045075
C29   C     C_R   0.440237 0.619051 0.934849 0.301787
C30   C     C_R   0.553107 0.371136 0.052977 0.307677
C31   C     C_R   0.397814 0.649850 0.912200 -0.166508
C32   C     C_R   0.595726 0.340549 0.075758 -0.164337
C33   C     C_R   0.327081 0.623953 0.903866 -0.191778
C34   C     C_R   0.670609 0.374207 0.096128 -0.182145
C35   C     C_R   0.457760 0.476547 0.925328 -0.183831
C36   C     C_R   0.540385 0.521792 0.074395 -0.196424
C37   C     C_R   0.499950 0.445265 0.947399 -0.046361
C38   C     C_R   0.498488 0.553354 0.052374 -0.050839
C39   C     C_R   0.541389 0.467907 0.023017 0.049368
C40   C     C_R   0.456382 0.530136 0.976637 0.048391
C41   C     C_3   0.024708 0.990506 0.558743 -0.152575
C42   C     C_3   0.975293 0.009493 0.441271 -0.152858
C43   C     C_3   0.975499 0.025128 0.544034 -0.147865
C44   C     C_3   0.024502 0.974870 0.455980 -0.147615
C45   C     C_R   0.499059 0.890106 0.389527 0.863570
C46   C     C_R   0.500941 0.109894 0.610472 0.863140
C47   C     C_1   0.779079 0.889816 0.389732 -0.112935
C48   C     C_1   0.220922 0.110184 0.610275 -0.112400
C49   C     C_3   0.974992 0.928413 0.477695 -0.148735
C50   C     C_3   0.025009 0.071586 0.522318 -0.149027
C51   C     C_3   0.927066 0.963676 0.463627 0.174415
C52   C     C_3   0.072935 0.036322 0.536386 0.174291
C53   C     C_1   0.845888 0.923205 0.423115 -0.051282
C54   C     C_1   0.154112 0.076795 0.576896 -0.051023
C55   C     C_3   0.519183 0.068560 0.044235 -0.152202
C56   C     C_3   0.480727 0.931557 0.955867 -0.152178
C57   C     C_3   0.450911 0.997726 0.022774 -0.142041
C58   C     C_3   0.548998 0.002389 0.977329 -0.142833
C59   C     C_1   0.499826 0.889322 0.110278 -0.103811
C60   C     C_1   0.500114 0.110719 0.889757 -0.104096
C61   C     C_3   0.568127 0.033615 0.058514 -0.149033
C62   C     C_3   0.431782 0.966500 0.941588 -0.148241
C63   C     C_3   0.499854 0.963432 0.036397 0.170994
C64   C     C_3   0.500055 0.036681 0.963705 0.171286
C65   C     C_1   0.499787 0.922723 0.076852 -0.045907
C66   C     C_1   0.500132 0.077359 0.923221 -0.046373
C67   C     C_R   0.499890 0.609873 0.109432 0.826229
C68   C     C_R   0.499769 0.389809 0.890520 0.833090
C69   C     C_R   0.373397 0.743625 0.471862 -0.165635
C70   C     C_R   0.626649 0.256417 0.528225 -0.165338
C71   C     C_R   0.390637 0.809266 0.469287 -0.036273
C72   C     C_R   0.609411 0.190755 0.530761 -0.036578
C73   C     C_R   0.466348 0.861434 0.498449 0.014801
C74   C     C_R   0.533692 0.138577 0.501572 0.014848
C75   C     C_R   0.522728 0.844917 0.527107 -0.050737
C76   C     C_R   0.477320 0.155111 0.472943 -0.050453
C77   C     C_R   0.502435 0.777768 0.527186 -0.199349
C78   C     C_R   0.497612 0.222274 0.472904 -0.199607
C79   C     C_R   0.428680 0.728227 0.500790 0.318595
C80   C     C_R   0.571367 0.271822 0.499313 0.318399
C81   C     C_R   0.489230 0.988054 0.555330 0.270525
C82   C     C_R   0.510771 0.011944 0.444669 0.270937
C83   C     C_R   0.501752 0.054329 0.554790 -0.106490
C84   C     C_R   0.498249 0.945670 0.445210 -0.106156
C85   C     C_R   0.514335 0.066914 0.500297 -0.000704
C86   C     C_R   0.485677 0.933089 0.499709 -0.000742
C87   C     C_R   0.499992 0.849773 0.150187 0.842949
C88   C     C_R   0.499991 0.150235 0.849820 0.846089
C89   C     C_R   0.500031 0.650396 0.349960 0.835247
C90   C     C_R   0.499970 0.349606 0.650041 0.835491
C91   C     C_3   0.464446 0.428106 0.452527 -0.142436
C92   C     C_3   0.535567 0.571929 0.547509 -0.141632
C93   C     C_3   0.429662 0.477423 0.452734 -0.128589
C94   C     C_3   0.570352 0.522612 0.547302 -0.127868
C95   C     C_1   0.499941 0.610700 0.389724 -0.099020
C96   C     C_1   0.500066 0.389314 0.610291 -0.097659
H1    H     H_    0.371864 0.459438 0.413394 0.178708
H2    H     H_    0.628149 0.540597 0.586643 0.178800
H3    H     H_    0.420047 0.694671 0.901844 0.171792
H4    H     H_    0.570641 0.290158 0.077184 0.167612
H5    H     H_    0.425856 0.459716 0.867633 0.179689
H6    H     H_    0.572350 0.538657 0.132090 0.178157
H7    H     H_    0.954381 0.045301 0.579736 0.158898
H8    H     H_    0.045620 0.954698 0.420278 0.159203
H9    H     H_    0.045996 0.983186 0.607512 0.155891
H10   H     H_    0.954005 0.016813 0.392502 0.155535
H11   H     H_    0.046550 0.130922 0.541150 0.157197
H12   H     H_    0.953451 0.869076 0.458864 0.157482
H13   H     H_    0.410599 0.995272 0.041953 0.161971
H14   H     H_    0.589310 0.004843 0.958150 0.161987
H15   H     H_    0.534998 0.125387 0.079991 0.154194
H16   H     H_    0.464910 0.874733 0.920101 0.154649
H17   H     H_    0.375761 0.939441 0.893026 0.158939
H18   H     H_    0.624149 0.060676 0.107076 0.158737
H19   H     H_    0.435306 0.368482 0.414083 0.172597
H20   H     H_    0.564708 0.631553 0.585953 0.172903
H21   H     H_    0.316421 0.703439 0.450659 0.211677
H22   H     H_    0.683623 0.296618 0.549441 0.212217
H23   H     H_    0.544154 0.764039 0.549164 0.196600
H24   H     H_    0.455888 0.236004 0.450943 0.196350
H25   H     H_    0.436633 0.521606 0.568456 0.178502
H26   H     H_    0.563380 0.478428 0.431581 0.177717
H27   H     H_    0.295944 0.649591 0.887276 0.190574
H28   H     H_    0.702056 0.348936 0.113021 0.197485
H29   H     H_    0.317906 0.490244 0.950524 0.191735
H30   H     H_    0.686053 0.520285 0.069396 0.187839
O1    O     O_3   0.500050 0.750060 0.250070 -0.504690
O2    O     O_3   0.499950 0.249940 0.749930 -0.505493
O3    O     O_R   0.456830 0.822700 0.365800 -0.650652
O4    O     O_R   0.543170 0.177300 0.634200 -0.650744
O5    O     O_R   0.543260 0.634320 0.177440 -0.643830
O6    O     O_R   0.456740 0.365680 0.822560 -0.643461
O7    O     O_R   0.664430 0.884240 0.341140 -0.627639
O8    O     O_R   0.335570 0.115760 0.658860 -0.627472
O9    O     O_R   0.335680 0.659000 0.115900 -0.636539
O10   O     O_R   0.664320 0.341000 0.884100 -0.634670
O11   O     O_R   0.664480 0.780430 0.323540 -0.632669
O12   O     O_R   0.335520 0.219570 0.676460 -0.632497
O13   O     O_R   0.335610 0.676590 0.219700 -0.617993
O14   O     O_R   0.664390 0.323410 0.780300 -0.617738
O15   O     O_R   0.543050 0.908950 0.365840 -0.594718
O16   O     O_R   0.456950 0.091050 0.634160 -0.595041
O17   O     O_R   0.457060 0.634290 0.091200 -0.639840
O18   O     O_R   0.542940 0.365710 0.908800 -0.637953
O19   O     O_R   0.543140 0.884190 0.219790 -0.612270
O20   O     O_R   0.456860 0.115810 0.780210 -0.612055
O21   O     O_R   0.543170 0.659080 0.323490 -0.634235
O22   O     O_R   0.456830 0.340920 0.676510 -0.633468
O23   O     O_R   0.456990 0.780350 0.115960 -0.636565
O24   O     O_R   0.543010 0.219650 0.884040 -0.635746
O25   O     O_R   0.456900 0.676640 0.341050 -0.630186
O26   O     O_R   0.543100 0.323360 0.658950 -0.630602
Zn1   Zn    Zn3+2 0.438420 0.731820 0.293400 1.017133
Zn2   Zn    Zn3+2 0.561580 0.268180 0.706600 1.016742
Zn3   Zn    Zn3+2 0.561600 0.855040 0.293450 1.043267
Zn4   Zn    Zn3+2 0.438400 0.144960 0.706550 1.044712
Zn5   Zn    Zn3+2 0.438510 0.706680 0.145100 1.004921
Zn6   Zn    Zn3+2 0.561490 0.293320 0.854900 1.009036
Zn7   Zn    Zn3+2 0.561670 0.706730 0.268320 0.999001
Zn8   Zn    Zn3+2 0.438330 0.293270 0.731680 1.002461
Br1   Br    Br    0.538150 0.658797 0.948227 -0.506977
Br2   Br    Br    0.450149 0.321656 0.023944 -0.512221
Br3   Br    Br    0.402801 0.639077 0.504951 -0.534554
Br4   Br    Br    0.597250 0.360993 0.495195 -0.534940
C97   C     C_2   0.327818 0.820677 0.435399 0.957938
O27   O     O_2   0.334391 0.863784 0.411537 -0.586589
O28   O     O_R   0.259757 0.780223 0.429136 -0.789898
H31   H     H_    0.221138 0.792001 0.404616 0.360082
C98   C     C_2   0.672244 0.179356 0.564658 0.958115
O29   O     O_2   0.665565 0.135975 0.588184 -0.586530
O30   O     O_R   0.740441 0.220128 0.571319 -0.789562
H32   H     H_    0.779050 0.208326 0.595807 0.359832
C99   C     C_2   0.603036 0.895794 0.557594 0.908688
O31   O     O_2   0.627289 0.961075 0.577566 -0.578393
O32   O     O_R   0.651673 0.868718 0.564458 -0.818787
H33   H     H_    0.704703 0.908168 0.585847 0.356809
C100  C     C_2   0.397020 0.104237 0.442466 0.908366
O33   O     O_2   0.372710 0.038898 0.422184 -0.578278
O34   O     O_R   0.348458 0.131392 0.435969 -0.819113
H34   H     H_    0.295422 0.091937 0.414553 0.356726
Br5   Br    Br    0.483619 0.973214 0.635445 -0.438989
Br6   Br    Br    0.516382 0.026787 0.364556 -0.439021
Br7   Br    Br    0.061045 0.383953 0.982365 -0.372953
Br8   Br    Br    0.938427 0.613944 0.017586 -0.343447
Br9   Br    Br    0.937995 0.391553 0.063239 -0.377161
Br10  Br    Br    0.061876 0.606574 0.936212 -0.333199
C101  C     C_2   0.949661 0.413383 0.849262 1.046808
O35   O     O_2   0.995218 0.416111 0.829813 -0.568373
O36   O     O_R   0.873775 0.368581 0.797896 -0.786104
H35   H     H_    0.863363 0.340945 0.746217 0.360838
C102  C     C_2   0.050170 0.585030 0.150311 1.042722
O37   O     O_2   0.004528 0.583205 0.169441 -0.569245
O38   O     O_R   0.126025 0.629010 0.201948 -0.786513
H36   H     H_    0.136345 0.656860 0.253542 0.360243
C103  C     C_2   0.223411 0.540380 0.911502 0.952358
O39   O     O_2   0.185398 0.565914 0.889799 -0.563524
O40   O     O_R   0.197094 0.487052 0.931102 -0.781350
H37   H     H_    0.146593 0.474968 0.925603 0.389721
C104  C     C_2   0.783514 0.474315 0.115050 0.947723
O41   O     O_2   0.812262 0.529794 0.111256 -0.571140
O42   O     O_R   0.825756 0.443790 0.139066 -0.771947
H38   H     H_    0.879102 0.472849 0.152155 0.398731

loop_
_geom_bond_atom_site_label_1
_geom_bond_atom_site_label_2
_ccdc_geom_bond_type
C44   C49   S    
O3    Zn1   S    
O30   H32   S    
C63   C65   S    
C45   O3    A    
C97   O27   D    
O9    Zn5   S    
C93   H1    S    
C27   C29   A    
C98   O30   S    
O42   H38   S    
C8    C96   T    
C81   Br5   S    
O21   Zn7   S    
O1    Zn1   S    
C44   H8    S    
O2    Zn6   S    
C57   C62   S    
C46   O16   A    
C94   H2    S    
C99   O31   D    
C24   O14   A    
C48   C54   T    
C92   H20   S    
O6    Zn8   S    
C74   C76   A    
C3    C91   S    
C35   C37   A    
C76   C78   A    
C9    Br9   S    
O22   Zn8   S    
C78   C80   A    
C46   C83   S    
C21   C33   A    
O13   Zn1   S    
C10   C17   S    
C6    C91   S    
C37   C68   S    
C33   H27   S    
C13   C23   S    
C36   H6    S    
C26   H30   S    
C14   C24   S    
C69   C71   A    
C25   H29   S    
C80   Br4   S    
C90   O22   A    
C90   O26   A    
C17   C19   S    
C43   C51   S    
C57   H13   S    
C56   C58   S    
C75   C99   S    
C6    C94   S    
C62   C64   S    
C31   C33   A    
O17   Zn5   S    
C31   H3    S    
C87   O19   A    
O1    Zn5   S    
C41   C52   S    
C81   C86   A    
C3    H26   S    
O2    Zn2   S    
C42   C51   S    
C47   C53   T    
O10   Zn6   S    
C44   C52   S    
C58   C61   S    
C99   O32   S    
C67   O17   A    
C104  O41   D    
C97   O28   S    
C38   C40   A    
C58   H14   S    
C45   O15   A    
C73   C75   A    
O36   H35   S    
C42   C44   S    
C1    O7    A    
C10   C12   S    
C41   C49   S    
C81   C83   A    
C52   C54   S    
C57   C63   S    
C49   H12   S    
C59   C87   S    
C77   C79   A    
C60   C88   S    
C22   C34   A    
O8    Zn4   S    
O11   Zn7   S    
C70   C80   A    
C102  O37   D    
C2    O12   A    
C98   O29   D    
C29   Br1   S    
C22   C104  S    
C11   Br7   S    
C62   H17   S    
C72   C74   A    
C76   C100  S    
O1    Zn3   S    
O28   H31   S    
C5    C7    S    
C13   C19   T    
O15   Zn3   S    
C6    C8    S    
C103  O39   D    
C58   C64   S    
C49   C51   S    
C32   C34   A    
C32   H4    S    
C51   C53   S    
C68   O6    A    
C89   C95   S    
C78   H24   S    
C102  O38   S    
C14   C20   T    
C91   C93   S    
C42   H10   S    
C11   C16   S    
C50   C52   S    
O32   H33   S    
C12   C15   S    
C27   C40   S    
C55   C64   S    
C3    C5    S    
C61   C63   S    
C56   C63   S    
C87   O23   A    
O4    Zn2   S    
C16   C18   S    
C2    O8    A    
C21   C103  S    
O5    Zn7   S    
C9    C11   S    
C64   C66   S    
C41   H9    S    
C42   C50   S    
C4    C6    S    
C83   C85   A    
O26   Zn2   S    
C100  O33   D    
C82   C84   A    
C55   C57   S    
C4    C92   S    
C22   C26   A    
C50   H11   S    
C56   C62   S    
C69   C79   A    
C45   C84   S    
C35   H5    S    
C30   Br2   S    
O18   Zn6   S    
O1    Zn7   S    
C1    O11   A    
O2    Zn8   S    
C71   C73   A    
C23   O13   A    
C15   C17   S    
C21   C25   A    
C11   C17   S    
C34   H28   S    
O24   Zn6   S    
C55   H15   S    
O7    Zn3   S    
C88   O24   A    
C36   C39   A    
C1    C47   S    
C41   C43   S    
C79   Br3   S    
C77   H23   S    
C16   C101  S    
C46   O4    A    
C5    C93   S    
C43   C50   S    
C90   C96   S    
O34   H34   S    
C25   C27   A    
C82   C85   A    
C7    C95   T    
C15   C102  S    
C82   Br6   S    
C26   C28   A    
C28   C39   S    
C23   O9    A    
C2    C48   S    
C72   C98   S    
C36   C38   A    
C35   C40   A    
C9    C15   S    
C101  O35   D    
C37   C39   A    
C10   C16   S    
C59   C65   T    
C30   C32   A    
C69   H21   S    
C24   O10   A    
C92   C94   S    
C12   Br8   S    
C100  O34   S    
C70   H22   S    
C89   O21   A    
C55   C61   S    
C28   C30   A    
C10   Br10  S    
C91   H19   S    
C4    H25   S    
C68   O18   A    
C3    C94   S    
C18   C20   S    
O25   Zn1   S    
C74   C85   S    
O40   H37   S    
C67   O5    A    
C43   H7    S    
C73   C86   S    
C101  O36   S    
C5    C92   S    
O2    Zn4   S    
C60   C66   T    
C4    C93   S    
O19   Zn3   S    
O12   Zn8   S    
C9    C18   S    
C89   O25   A    
O20   Zn4   S    
C38   C67   S    
C29   C31   A    
O38   H36   S    
C71   C97   S    
C75   C77   A    
C12   C18   S    
C61   H18   S    
C104  O42   S    
C88   O20   A    
C84   C86   A    
C70   C72   A    
O16   Zn4   S    
O23   Zn5   S    
C56   H16   S    
O14   Zn2   S    
C103  O40   S    
