data_mof_unit_38300.cif
_audit_creation_date              2013-03-05T15:41:12-0500
_audit_creation_method            fapswitch 2.2
_symmetry_space_group_name_H-M    P1
_symmetry_Int_Tables_number       1
_space_group_crystal_system       triclinic
_cell_length_a                    16.950065
_cell_length_b                    16.949903
_cell_length_c                    16.950038
_cell_angle_alpha                 67.49211
_cell_angle_beta                  67.492121
_cell_angle_gamma                 67.491413
_cell_volume                      3993.69390578

loop_
_atom_site_label
_atom_site_type_symbol
_atom_site_description
_atom_site_fract_x
_atom_site_fract_y
_atom_site_fract_z
_atom_type_partial_charge
O1    O     O_R   0.124540 0.978640 0.385460 -0.576769
O2    O     O_R   0.875460 0.021360 0.614540 -0.576792
O3    O     O_R   0.978640 0.385460 0.124540 -0.576790
O4    O     O_R   0.021360 0.614540 0.875460 -0.576808
O5    O     O_R   0.385460 0.124540 0.978640 -0.576773
O6    O     O_R   0.614540 0.875460 0.021360 -0.576793
O7    O     O_R   0.614540 0.021360 0.875460 -0.592386
O8    O     O_R   0.385460 0.978640 0.124540 -0.592354
O9    O     O_R   0.875460 0.614540 0.021360 -0.592399
O10   O     O_R   0.124540 0.385460 0.978640 -0.592370
O11   O     O_R   0.021360 0.875460 0.614540 -0.592398
O12   O     O_R   0.978640 0.124540 0.385460 -0.592375
C1    C     C_R   0.308731 0.011167 0.432244 -0.045577
C2    C     C_R   0.691258 0.988896 0.567740 -0.045671
C3    C     C_R   0.011142 0.432250 0.308738 -0.045596
C4    C     C_R   0.988870 0.567750 0.691262 -0.045612
C5    C     C_R   0.432262 0.308759 0.011086 -0.045640
C6    C     C_R   0.567753 0.691272 0.988853 -0.045645
C7    C     C_R   0.553473 0.016530 0.686030 -0.052328
C8    C     C_R   0.446514 0.983549 0.313942 -0.052360
C9    C     C_R   0.686055 0.553491 0.016454 -0.052360
C10   C     C_R   0.313957 0.446539 0.983485 -0.052396
C11   C     C_R   0.016498 0.686042 0.553479 -0.052346
C12   C     C_R   0.983507 0.313956 0.446524 -0.052403
Cu1   Cu    Cu3+1 0.995180 0.995180 0.424630 1.215767
Cu2   Cu    Cu3+1 0.004820 0.004820 0.575370 1.215665
Cu3   Cu    Cu3+1 0.995180 0.424630 0.995180 1.215720
Cu4   Cu    Cu3+1 0.004820 0.575370 0.004820 1.215640
Cu5   Cu    Cu3+1 0.424630 0.995180 0.995180 1.215814
Cu6   Cu    Cu3+1 0.575370 0.004820 0.004820 1.215751
C13   C     C_R   0.020693 0.830123 0.566740 0.784296
C14   C     C_R   0.979307 0.169877 0.433260 0.784259
C15   C     C_R   0.830125 0.566743 0.020685 0.784299
C16   C     C_R   0.169877 0.433262 0.979304 0.784288
C17   C     C_R   0.566739 0.020697 0.830122 0.784270
C18   C     C_R   0.433258 0.979315 0.169876 0.784273
C19   C     C_R   0.430281 0.168542 0.986357 0.793510
C20   C     C_R   0.569722 0.831464 0.013631 0.793510
C21   C     C_R   0.986369 0.430278 0.168537 0.793560
C22   C     C_R   0.013633 0.569721 0.831463 0.793546
C23   C     C_R   0.168536 0.986372 0.430278 0.793552
C24   C     C_R   0.831463 0.013636 0.569721 0.793523
O13   O     O_R   0.013780 0.867370 0.487190 -0.474088
O14   O     O_R   0.986220 0.132630 0.512810 -0.474128
O15   O     O_R   0.867370 0.487190 0.013780 -0.474127
O16   O     O_R   0.132630 0.512810 0.986220 -0.474146
O17   O     O_R   0.487190 0.013780 0.867370 -0.474066
O18   O     O_R   0.512810 0.986220 0.132630 -0.474139
O19   O     O_R   0.512810 0.132630 0.986220 -0.514443
O20   O     O_R   0.487190 0.867370 0.013780 -0.514446
O21   O     O_R   0.986220 0.512810 0.132630 -0.514490
O22   O     O_R   0.013780 0.487190 0.867370 -0.514452
O23   O     O_R   0.132630 0.986220 0.512810 -0.514485
O24   O     O_R   0.867370 0.013780 0.487190 -0.514455
C25   C     C_R   0.402220 0.994510 0.400040 -0.071205
C26   C     C_R   0.597770 0.005579 0.599927 -0.071218
C27   C     C_R   0.994469 0.400055 0.402228 -0.071211
C28   C     C_R   0.005542 0.599942 0.597775 -0.071218
C29   C     C_R   0.400065 0.402249 0.994419 -0.071219
C30   C     C_R   0.599952 0.597786 0.005506 -0.071222
H1    H     H_    0.271169 0.970165 0.269650 0.204793
H2    H     H_    0.728840 0.029818 0.730366 0.204791
H3    H     H_    0.970169 0.269644 0.271167 0.204782
H4    H     H_    0.029830 0.730360 0.728836 0.204785
H5    H     H_    0.269644 0.271172 0.970158 0.204795
H6    H     H_    0.730358 0.728836 0.029830 0.204780
C31   C     C_R   0.262309 0.992899 0.389038 -0.084133
C32   C     C_R   0.737687 0.007127 0.610961 -0.084126
C33   C     C_R   0.992887 0.389039 0.262312 -0.084126
C34   C     C_R   0.007118 0.610963 0.737688 -0.084115
C35   C     C_R   0.389044 0.262325 0.992855 -0.084123
C36   C     C_R   0.610966 0.737693 0.007106 -0.084120
C37   C     C_R   0.603964 0.019543 0.735972 -0.089315
C38   C     C_R   0.396029 0.980492 0.264020 -0.089322
C39   C     C_R   0.735982 0.603974 0.019508 -0.089314
C40   C     C_R   0.264026 0.396043 0.980455 -0.089308
C41   C     C_R   0.019531 0.735976 0.603967 -0.089320
C42   C     C_R   0.980472 0.264024 0.396035 -0.089326
C43   C     C_R   0.460964 0.021721 0.717767 0.666590
C44   C     C_R   0.539012 0.978408 0.282180 0.666571
C45   C     C_R   0.021672 0.717788 0.460974 0.666608
C46   C     C_R   0.978333 0.282208 0.539031 0.666603
C47   C     C_R   0.717814 0.460992 0.021595 0.666593
C48   C     C_R   0.282196 0.539039 0.978347 0.666575
C49   C     C_R   0.265095 0.050895 0.502892 0.627919
C50   C     C_R   0.734892 0.949179 0.497089 0.628251
C51   C     C_R   0.502911 0.265126 0.050803 0.628222
C52   C     C_R   0.497099 0.734913 0.949141 0.628228
C53   C     C_R   0.050874 0.502893 0.265104 0.628001
C54   C     C_R   0.949142 0.497106 0.734896 0.628134
C55   C     C_R   0.307034 0.979384 0.304913 -0.246265
C56   C     C_R   0.692966 0.020629 0.695091 -0.246225
C57   C     C_R   0.979375 0.304913 0.307036 -0.246279
C58   C     C_R   0.020627 0.695089 0.692965 -0.246264
C59   C     C_R   0.304916 0.307045 0.979353 -0.246230
C60   C     C_R   0.695092 0.692969 0.020616 -0.246263
C61   C     C_R   0.687957 0.950075 0.443621 -0.178375
C62   C     C_R   0.312046 0.050091 0.556296 -0.178441
C63   C     C_R   0.949994 0.443665 0.687958 -0.178373
C64   C     C_R   0.050044 0.556317 0.312050 -0.178441
C65   C     C_R   0.443636 0.687981 0.950024 -0.178329
C66   C     C_R   0.556370 0.312061 0.049919 -0.178383
C67   C     C_R   0.588941 0.955243 0.340251 -0.170263
C68   C     C_R   0.411054 0.044924 0.659670 -0.170311
C69   C     C_R   0.340267 0.588969 0.955180 -0.170162
C70   C     C_R   0.659740 0.411070 0.044757 -0.170246
C71   C     C_R   0.955154 0.340294 0.588947 -0.170171
C72   C     C_R   0.044864 0.659697 0.411061 -0.170307
C73   C     C_R   0.732381 0.923831 0.364088 0.245843
C74   C     C_R   0.267634 0.076433 0.635768 0.246045
C75   C     C_R   0.923699 0.364163 0.732376 0.245963
C76   C     C_R   0.076377 0.635796 0.267638 0.246023
C77   C     C_R   0.364093 0.732408 0.923800 0.245850
C78   C     C_R   0.635894 0.267637 0.076177 0.245909
C79   C     C_R   0.682808 0.928127 0.311536 0.278475
C80   C     C_R   0.317191 0.072116 0.688341 0.278469
C81   C     C_R   0.311544 0.682838 0.928088 0.278540
C82   C     C_R   0.688449 0.317204 0.071880 0.278535
C83   C     C_R   0.928003 0.311602 0.682812 0.278582
C84   C     C_R   0.072048 0.688373 0.317198 0.278485
C85   C     C_R   0.544753 0.974468 0.421679 -0.025008
C86   C     C_R   0.455247 0.025675 0.578252 -0.025022
C87   C     C_R   0.974396 0.421714 0.544756 -0.024992
C88   C     C_R   0.025618 0.578278 0.455251 -0.025011
C89   C     C_R   0.421707 0.544778 0.974382 -0.024982
C90   C     C_R   0.578309 0.455263 0.025536 -0.024996
C91   C     C_R   0.594072 0.976389 0.471191 -0.024938
C92   C     C_R   0.405928 0.023755 0.528738 -0.024913
C93   C     C_R   0.471219 0.594094 0.976309 -0.024896
C94   C     C_R   0.528797 0.405947 0.023610 -0.024910
C95   C     C_R   0.976321 0.471226 0.594075 -0.024891
C96   C     C_R   0.023699 0.528764 0.405932 -0.024912
C97   C     C_R   0.450813 0.997846 0.450194 0.026939
C98   C     C_R   0.549184 0.002272 0.549752 0.026933
C99   C     C_R   0.997791 0.450219 0.450818 0.026936
C100  C     C_R   0.002220 0.549776 0.549188 0.026938
C101  C     C_R   0.450231 0.450838 0.997739 0.026918
C102  C     C_R   0.549789 0.549201 0.002175 0.026917
N1    N     N_R   0.272150 0.095782 0.770815 0.191333
O25   O     O_R   0.206961 0.063647 0.827977 -0.179587
O26   O     O_R   0.298379 0.147046 0.790450 -0.344241
N2    N     N_R   0.727836 0.904537 0.229023 0.191435
O27   O     O_R   0.792900 0.936841 0.171807 -0.179517
O28   O     O_R   0.701694 0.853198 0.209398 -0.344165
N3    N     N_R   0.095700 0.770855 0.272160 0.191376
O29   O     O_R   0.063561 0.828012 0.206971 -0.179616
O30   O     O_R   0.146963 0.790496 0.298384 -0.344196
N4    N     N_R   0.904392 0.229101 0.727848 0.191403
O31   O     O_R   0.936664 0.171896 0.792936 -0.179509
O32   O     O_R   0.853065 0.209475 0.701691 -0.344200
N5    N     N_R   0.770958 0.272170 0.095478 0.191436
O33   O     O_R   0.828169 0.207096 0.063185 -0.179513
O34   O     O_R   0.790581 0.298312 0.146817 -0.344162
N6    N     N_R   0.229015 0.727872 0.904531 0.191439
O35   O     O_R   0.171792 0.792897 0.936895 -0.179460
O36   O     O_R   0.209378 0.701764 0.853174 -0.344145
N7    N     N_R   0.172487 0.103493 0.666130 0.231969
O37   O     O_R   0.127931 0.046476 0.689859 -0.208811
O38   O     O_R   0.131598 0.180472 0.682268 -0.272888
N8    N     N_R   0.827542 0.896879 0.333649 0.231731
O39   O     O_R   0.872116 0.953630 0.310807 -0.208979
O40   O     O_R   0.868508 0.820103 0.317081 -0.272373
N9    N     N_R   0.666310 0.172478 0.103171 0.231770
O41   O     O_R   0.689272 0.127883 0.046401 -0.208875
O42   O     O_R   0.682826 0.131545 0.179972 -0.272583
N10   N     N_R   0.333637 0.827570 0.896885 0.231711
O43   O     O_R   0.310804 0.872116 0.953660 -0.208991
O44   O     O_R   0.317038 0.868563 0.820127 -0.272286
N11   N     N_R   0.103495 0.666137 0.172490 0.231904
O45   O     O_R   0.046601 0.689664 0.127859 -0.208690
O46   O     O_R   0.180446 0.682343 0.131652 -0.272978
N12   N     N_R   0.896674 0.333769 0.827530 0.231812
O47   O     O_R   0.953513 0.310574 0.872121 -0.208788
O48   O     O_R   0.819831 0.317337 0.868437 -0.272771
F1    F     F_    0.425438 0.972244 0.798876 -0.528271
F2    F     F_    0.574489 0.027908 0.201065 -0.528246
F3    F     F_    0.972189 0.798900 0.425461 -0.528255
F4    F     F_    0.027798 0.201088 0.574550 -0.528242
F5    F     F_    0.798933 0.425501 0.972112 -0.528248
F6    F     F_    0.201080 0.574522 0.027842 -0.528231
F7    F     F_    0.181156 0.104597 0.508833 -0.589021
F8    F     F_    0.818775 0.895355 0.491255 -0.588973
F9    F     F_    0.508748 0.181243 0.104620 -0.588958
F10   F     F_    0.491252 0.818806 0.895337 -0.588992
F11   F     F_    0.104609 0.508798 0.181183 -0.588987
F12   F     F_    0.895367 0.491240 0.818798 -0.588991

loop_
_geom_bond_atom_site_label_1
_geom_bond_atom_site_label_2
_geom_bond_distance
_ccdc_geom_bond_type
C7    C26   1.410647 A    
O10   Cu3   1.970893 S    
C11   C28   1.410628 A    
C2    C26   1.414845 A    
C4    C54   1.411464 A    
N7    O37   1.301841 A    
C62   C74   1.416822 A    
O5    C19   1.317246 A    
C15   O15   1.281778 A    
N11   O45   1.301723 A    
C72   C84   1.413477 A    
C21   O21   1.293822 A    
N9    O41   1.301395 A    
C91   C98   1.400196 A    
C71   C87   1.392182 A    
C61   C91   1.412980 A    
C17   O17   1.281799 A    
Cu1   O13   1.972617 S    
C52   C65   1.409500 A    
Cu2   O14   1.972616 S    
C23   C31   1.500673 S    
N12   O47   1.301541 A    
N9    O42   1.301227 A    
Cu4   O16   1.972624 S    
C32   C56   1.396384 A    
C45   F3    1.351321 S    
C13   O13   1.281795 A    
Cu5   O17   1.972638 S    
O8    Cu5   1.970900 S    
Cu6   O18   1.972636 S    
C34   C58   1.396382 A    
N4    O32   1.301506 A    
C85   C91   1.408237 A    
C33   C57   1.396389 A    
C40   C59   1.402664 A    
C51   F9    1.353465 S    
Cu4   O21   1.972635 S    
C52   F10   1.353509 S    
C35   C59   1.396362 A    
C90   C94   1.408214 A    
C42   C57   1.402667 A    
C41   C58   1.402665 A    
C61   C73   1.416932 A    
C88   C96   1.408233 A    
C75   C83   1.407543 A    
C75   N12   1.433678 S    
O8    C18   1.318142 A    
C48   F6    1.351299 S    
C50   C61   1.409503 A    
C12   C46   1.428537 A    
C86   C98   1.414274 A    
C49   C62   1.409502 A    
N3    O30   1.301498 A    
C68   C80   1.413483 A    
C15   C39   1.479426 S    
C17   C37   1.479438 S    
C93   C102  1.400193 A    
O4    C22   1.317229 A    
C12   C27   1.410637 A    
H2    C56   1.083367 S    
N5    O33   1.301348 A    
O6    C20   1.317229 A    
C16   O16   1.281763 A    
C10   C40   1.439790 A    
N6    O36   1.301501 A    
C80   N1    1.440746 S    
Cu3   O15   1.972625 S    
C62   C92   1.412928 A    
C45   C72   1.388027 A    
O11   C13   1.318123 A    
C84   N3    1.440750 S    
N7    O38   1.301289 A    
O7    Cu6   1.970902 S    
O12   C14   1.318135 A    
O1    Cu1   1.970898 S    
C3    C27   1.414895 A    
C69   C81   1.413541 A    
C53   F11   1.353462 S    
C72   C88   1.392188 A    
C8    C25   1.410621 A    
C71   C83   1.413504 A    
O4    Cu4   1.970902 S    
N12   O48   1.301250 A    
C39   C60   1.402651 A    
C13   C41   1.479421 S    
C2    C32   1.432633 A    
O5    Cu5   1.970873 S    
Cu5   O20   1.972609 S    
C6    C36   1.432648 A    
C3    C33   1.432690 A    
C20   C36   1.500611 S    
C8    C44   1.428521 A    
C44   C67   1.388058 A    
C9    C47   1.428500 A    
C7    C37   1.439762 A    
N10   O44   1.301212 A    
C4    C34   1.432661 A    
Cu1   O24   1.972635 S    
C2    C50   1.411456 A    
C9    C30   1.410624 A    
O10   C16   1.318138 A    
C95   C100  1.400169 A    
C77   N10   1.433780 S    
C76   C84   1.407530 A    
C88   C100  1.414275 A    
C54   F12   1.353457 S    
O11   Cu2   1.970879 S    
C28   C100  1.418715 A    
C83   N4    1.440732 S    
C25   C97   1.418742 A    
C63   C95   1.412951 A    
C6    C52   1.411455 A    
C87   C99   1.414300 A    
C10   C48   1.428543 A    
C38   C55   1.402664 A    
C67   C79   1.413532 A    
Cu5   Cu6   2.690991 S    
C66   C78   1.416912 A    
C43   F1    1.351324 S    
C3    C53   1.411510 A    
C51   C66   1.409473 A    
C19   O19   1.293839 A    
C81   N6    1.440723 S    
C76   N11   1.433585 S    
C63   C75   1.416883 A    
C46   F4    1.351314 S    
C31   C55   1.396396 A    
C48   C69   1.388075 A    
C14   O14   1.281789 A    
C44   F2    1.351296 S    
C8    C38   1.439759 A    
O2    Cu2   1.970898 S    
C4    C28   1.414855 A    
C46   C71   1.388037 A    
C11   C41   1.439748 A    
C7    C43   1.428516 A    
C23   O23   1.293822 A    
N6    O35   1.301352 A    
C78   C82   1.407547 A    
C74   N7    1.433572 S    
C22   C34   1.500635 S    
O9    C15   1.318126 A    
C77   C81   1.407582 A    
C12   C42   1.439763 A    
O6    Cu6   1.970873 S    
Cu6   O19   1.972610 S    
C5    C29   1.414879 A    
C64   C76   1.416857 A    
C19   C35   1.500664 S    
C65   C93   1.412988 A    
N10   O43   1.301315 A    
N2    O28   1.301503 A    
C43   C68   1.388033 A    
C67   C85   1.392183 A    
Cu2   O23   1.972636 S    
C74   C80   1.407516 A    
N3    O29   1.301319 A    
C10   C29   1.410612 A    
Cu3   O22   1.972636 S    
H6    C60   1.083368 S    
C1    C31   1.432719 A    
O1    C23   1.317268 A    
C53   C64   1.409509 A    
C54   C63   1.409499 A    
C9    C39   1.439762 A    
C90   C102  1.414303 A    
C49   F7    1.353469 S    
C24   C32   1.500623 S    
C11   C45   1.428511 A    
C87   C95   1.408235 A    
C5    C51   1.411428 A    
O7    C17   1.318129 A    
N8    O40   1.301218 A    
C66   C94   1.412975 A    
C37   C56   1.402670 A    
C26   C98   1.418713 A    
N1    O25   1.301334 A    
C64   C96   1.412939 A    
C5    C35   1.432657 A    
C20   O20   1.293832 A    
C47   F5    1.351292 S    
C70   C90   1.392189 A    
C47   C70   1.388026 A    
C69   C89   1.392192 A    
O12   Cu1   1.970879 S    
C89   C101  1.414323 A    
N8    O39   1.301310 A    
O3    Cu3   1.970900 S    
Cu1   Cu2   2.690982 S    
H4    C58   1.083368 S    
C22   O22   1.293830 A    
C92   C97   1.400153 A    
C24   O24   1.293841 A    
N1    O26   1.301505 A    
C78   N9    1.433737 S    
O2    C24   1.317224 A    
C96   C99   1.400165 A    
C21   C33   1.500659 S    
C18   O18   1.281793 A    
N4    O31   1.301337 A    
N5    O34   1.301503 A    
C86   C92   1.408233 A    
C82   N5    1.440737 S    
C65   C77   1.416920 A    
C6    C30   1.414854 A    
C79   N2    1.440736 S    
C73   C79   1.407592 A    
C14   C42   1.479434 S    
C36   C60   1.396374 A    
C89   C93   1.408235 A    
H5    C59   1.083370 S    
C68   C86   1.392201 A    
C1    C49   1.411528 A    
Cu3   Cu4   2.690965 S    
C50   F8    1.353496 S    
C29   C101  1.418731 A    
N2    O27   1.301356 A    
C27   C99   1.418726 A    
C85   C97   1.414325 A    
H3    C57   1.083366 S    
C94   C101  1.400190 A    
C73   N8    1.433781 S    
C18   C38   1.479452 S    
C70   C82   1.413504 A    
O3    C21   1.317249 A    
H1    C55   1.083367 S    
O9    Cu4   1.970893 S    
C16   C40   1.479410 S    
C1    C25   1.414917 A    
N11   O46   1.301281 A    
C30   C102  1.418722 A    
