data_mof_unit_10630.cif
_audit_creation_date              2012-12-10T18:18:15-0500
_audit_creation_method            fapswitch 2.2
_symmetry_space_group_name_H-M    P1
_symmetry_Int_Tables_number       1
_space_group_crystal_system       triclinic
_cell_length_a                    14.011402
_cell_length_b                    14.99234
_cell_length_c                    15.27345
_cell_angle_alpha                 89.925224
_cell_angle_beta                  66.855056
_cell_angle_gamma                 89.839449
_cell_volume                      2950.15298452

loop_
_atom_site_label
_atom_site_type_symbol
_atom_type_description
_atom_site_fract_x
_atom_site_fract_y
_atom_site_fract_z
_atom_type_partial_charge
C1    C     C_R   0.498626 0.673173 0.502624 0.958666
C2    C     C_R   0.496244 0.768754 0.507259 -0.137105
C3    C     C_R   0.594302 0.184806 0.435607 -0.068499
C4    C     C_R   0.405347 0.815209 0.564284 -0.075749
C5    C     C_R   0.593206 0.091165 0.438411 0.032663
C6    C     C_R   0.406731 0.908925 0.562132 0.030005
C7    C     C_R   0.501412 0.046673 0.498441 0.061849
C8    C     C_R   0.498636 0.953424 0.502330 0.064622
C9    C     C_R   0.412029 0.095250 0.554374 0.130222
C10   C     C_R   0.588079 0.904868 0.446510 0.132369
C11   C     C_R   0.680436 0.040660 0.381858 -0.165863
C12   C     C_R   0.501349 0.326850 0.497383 0.946941
C13   C     C_R   0.319680 0.959488 0.619031 -0.169685
C14   C     C_R   0.677961 0.948419 0.386580 -0.208159
C15   C     C_R   0.322258 0.051726 0.614500 -0.206046
C16   C     C_R   0.434733 0.502946 0.677081 0.966770
C17   C     C_R   0.565244 0.496966 0.323000 0.952068
C18   C     C_R   0.176331 0.444065 0.559984 -0.042605
C19   C     C_R   0.823832 0.555552 0.439582 -0.033604
C20   C     C_R   0.227483 0.555592 0.439692 0.002293
C21   C     C_R   0.772614 0.444245 0.560109 -0.018791
C22   C     C_R   0.127544 0.556804 0.438065 0.015908
C23   C     C_R   0.384081 0.476205 0.110465 -0.201871
C24   C     C_R   0.872710 0.442719 0.561351 0.028562
C25   C     C_R   0.050751 0.499707 0.499655 0.099843
C26   C     C_R   0.949528 0.499750 0.499676 0.087968
C27   C     C_R   0.075147 0.442526 0.561187 0.023098
C28   C     C_R   0.925183 0.556794 0.438001 -0.005659
C29   C     C_R   0.102697 0.613403 0.376576 -0.159818
C30   C     C_R   0.897753 0.385703 0.622377 -0.136806
C31   C     C_R   0.002411 0.613372 0.376517 -0.164294
C32   C     C_R   0.998166 0.385440 0.622095 -0.191150
C33   C     C_R   0.390461 0.506457 0.781009 -0.144959
C34   C     C_R   0.616904 0.513007 0.889078 -0.215321
C35   C     C_R   0.609441 0.492082 0.219230 -0.133101
C36   C     C_R   0.263724 0.449337 0.931383 0.201888
C37   C     C_R   0.734684 0.548633 0.067882 0.206923
C38   C     C_R   0.298777 0.460391 0.832280 -0.255171
C39   C     C_R   0.699816 0.539581 0.167199 -0.243655
C40   C     C_R   0.446586 0.544950 0.829204 -0.125526
C41   C     C_R   0.554426 0.450135 0.171800 -0.131840
C42   C     C_R   0.430099 0.510737 0.919718 -0.002872
C43   C     C_R   0.570735 0.481210 0.080338 -0.004544
C44   C     C_R   0.329884 0.477482 0.977615 0.028874
C45   C     C_R   0.304382 0.472204 0.077144 -0.039559
C46   C     C_R   0.670136 0.515536 0.022197 0.061293
C47   C     C_R   0.511892 0.505528 0.952040 0.088186
C48   C     C_R   0.489027 0.484346 0.047688 0.095358
C49   C     C_2   0.196923 0.476257 0.150033 0.884773
C50   C     C_2   0.804366 0.513632 0.851740 0.890822
C51   C     C_2   0.495743 0.365081 0.208428 0.951647
C52   C     C_2   0.505976 0.630124 0.794538 0.949181
C53   C     C_3   0.167723 0.391764 0.977226 -0.400758
C54   C     C_3   0.069739 0.439417 0.980182 -0.759515
C55   C     C_3   0.828319 0.608626 0.019798 -0.436381
C56   C     C_R   0.696219 0.518471 0.922759 -0.029890
C57   C     C_3   0.796975 0.698016 0.990733 -0.800373
C58   C     C_2   0.688070 0.234118 0.372281 0.916666
C59   C     C_2   0.311360 0.765547 0.626726 0.920895
C60   C     C_R   0.413665 0.187063 0.550544 -0.263115
C61   C     C_R   0.586402 0.813052 0.450243 -0.277753
C62   C     C_R   0.503608 0.231302 0.492984 -0.120961
H1    H     H_    0.196660 0.400762 0.606833 0.116385
H2    H     H_    0.255825 0.430371 0.794361 0.154426
H3    H     H_    0.363089 0.475344 0.186699 0.163054
H4    H     H_    0.637989 0.513335 0.812794 0.156578
H5    H     H_    0.345306 0.224705 0.594574 0.146969
H6    H     H_    0.654886 0.775450 0.406408 0.150282
H7    H     H_    0.751102 0.071448 0.333251 0.181142
H8    H     H_    0.249029 0.928814 0.667785 0.180863
H9    H     H_    0.746401 0.911004 0.342773 0.150222
H10   H     H_    0.253917 0.089156 0.658496 0.149929
H11   H     H_    0.094144 0.433753 0.277590 0.347741
H12   H     H_    0.803502 0.598773 0.392672 0.120950
H13   H     H_    0.945345 0.455993 0.812150 0.333307
H14   H     H_    0.430400 0.255113 0.179347 0.354272
H15   H     H_    0.562058 0.723055 0.691013 0.349442
H16   H     H_    0.060721 0.505612 0.014829 0.289455
H17   H     H_    0.073019 0.449100 0.906964 0.239839
H18   H     H_    0.000457 0.398403 0.020651 0.261306
H19   H     H_    0.177844 0.329823 0.934462 0.194538
H20   H     H_    0.156478 0.367632 0.048901 0.214874
H21   H     H_    0.762950 0.688951 0.936934 0.282045
H22   H     H_    0.739388 0.732175 0.054056 0.256015
H23   H     H_    0.287560 0.599036 0.392930 0.128675
H24   H     H_    0.866472 0.741219 0.959479 0.258401
H25   H     H_    0.867108 0.623338 0.069207 0.207111
H26   H     H_    0.889414 0.576270 0.958425 0.240414
H27   H     H_    0.839139 0.262360 0.337941 0.345901
H28   H     H_    0.249553 0.675251 0.731897 0.344477
H29   H     H_    0.712522 0.400853 0.606941 0.131541
H30   H     H_    0.160851 0.657523 0.328384 0.152139
H31   H     H_    0.839684 0.341420 0.670414 0.148279
H32   H     H_    0.985312 0.657525 0.328337 0.157130
H33   H     H_    0.015485 0.340816 0.669777 0.144746
H34   H     H_    0.741321 0.572197 0.204954 0.149915
N1    N     N_R   0.249980 0.499930 0.499960 -0.098735
N2    N     N_R   0.750020 0.500070 0.500040 -0.099664
O1    O     O_R   0.419720 0.632140 0.499980 -0.621770
O2    O     O_R   0.169470 0.425292 0.233069 -0.799974
O3    O     O_2   0.831934 0.559866 0.780032 -0.611881
O4    O     O_R   0.873379 0.452605 0.864661 -0.823700
O5    O     O_2   0.476864 0.339025 0.289370 -0.596544
O6    O     O_R   0.468151 0.311335 0.147266 -0.787866
O7    O     O_2   0.533715 0.673914 0.847875 -0.613046
O8    O     O_R   0.523500 0.664176 0.704334 -0.763729
O9    O     O_2   0.682739 0.284184 0.311087 -0.604651
O10   O     O_R   0.781439 0.224575 0.384347 -0.808875
O11   O     O_2   0.229469 0.774944 0.616778 -0.626485
O12   O     O_R   0.580280 0.367860 0.500020 -0.624967
O13   O     O_R   0.317815 0.706328 0.694949 -0.776925
O14   O     O_R   0.580270 0.632160 0.499970 -0.600629
O15   O     O_R   0.419730 0.367840 0.500030 -0.593679
O16   O     O_R   0.373870 0.499980 0.632250 -0.621030
O17   O     O_R   0.626130 0.500020 0.367750 -0.610658
O18   O     O_R   0.534420 0.500000 0.632240 -0.601467
O19   O     O_R   0.465580 0.500000 0.367760 -0.606966
O20   O     O_2   0.133557 0.526560 0.139401 -0.640996
Zn1   Zn    Zn3+2 0.392800 0.499980 0.500010 0.986905
Zn2   Zn    Zn3+2 0.607200 0.500020 0.499990 0.985618

loop_
_geom_bond_atom_site_label_1
_geom_bond_atom_site_label_2
_ccdc_geom_bond_type
H14   O6    S    
H11   O2    S    
C34   C56   A    
C23   C45   A    
C22   C29   A    
C14   H9    S    
C2    C4    A    
C34   H4    S    
C12   O12   A    
C7    C8    A    
C53   C54   S    
C15   H10   S    
C60   C62   A    
H15   O8    S    
C24   C26   A    
C5    C11   A    
C30   H31   S    
O19   Zn1   S    
C1    O14   A    
C11   C14   A    
C18   H1    S    
C13   H8    S    
C51   O5    D    
C57   H24   S    
H27   O10   S    
C53   H19   S    
C58   O9    D    
C55   H26   S    
C36   C53   S    
O15   Zn1   S    
C20   N1    A    
C47   C48   A    
C60   H5    S    
C22   C25   A    
H13   O4    S    
C59   O13   S    
C57   H21   S    
C18   N1    A    
C43   C48   A    
C38   H2    S    
O16   Zn1   S    
C2    C61   A    
C17   O19   A    
C40   C42   A    
C52   O8    S    
C41   C43   A    
C1    O1    A    
C42   C44   A    
H28   O13   S    
C16   O18   A    
C25   C26   A    
C19   N2    A    
C54   H18   S    
C19   H12   S    
C33   C40   A    
C4    C6    A    
C10   C14   A    
O12   Zn2   S    
O14   Zn2   S    
C6    C8    A    
C51   O6    S    
C40   C52   S    
C50   C56   S    
O18   Zn2   S    
C53   H20   S    
N1    Zn1   S    
C35   C39   A    
C16   C33   S    
C12   C62   S    
C49   O20   D    
C45   C49   S    
C20   H23   S    
C57   H22   S    
C19   C28   A    
C8    C10   A    
C20   C22   A    
C52   O7    D    
C50   O4    S    
C55   C57   S    
C36   C44   A    
C10   C61   A    
C44   C45   A    
C17   O17   A    
C5    C7    A    
C54   H17   S    
C21   H29   S    
C3    C62   A    
C7    C9    A    
C23   C48   A    
C27   C32   A    
C28   C31   A    
C18   C27   A    
C3    C5    A    
C16   O16   A    
C11   H7    S    
N2    Zn2   S    
C25   C27   A    
C31   H32   S    
C26   C28   A    
C33   C38   A    
C9    C60   A    
C23   H3    S    
C13   C15   A    
C9    C15   A    
C29   C31   A    
C6    C13   A    
C30   C32   A    
C21   N2    A    
C61   H6    S    
C1    C2    S    
C4    C59   S    
C36   C38   A    
C59   O11   D    
C12   O15   A    
C58   O10   S    
C42   C47   A    
C55   H25   S    
C35   C41   A    
C43   C46   A    
C24   C30   A    
C39   H34   S    
O1    Zn1   S    
C37   C55   S    
C3    C58   S    
C32   H33   S    
C50   O3    D    
C37   C39   A    
O17   Zn2   S    
C21   C24   A    
C46   C56   A    
C34   C47   A    
C17   C35   S    
C54   H16   S    
C37   C46   A    
C41   C51   S    
C29   H30   S    
C49   O2    S    
