data_mof_unit_61931.cif
_audit_creation_date              2012-12-10T17:25:58-0500
_audit_creation_method            fapswitch 2.2
_symmetry_space_group_name_H-M    P1
_symmetry_Int_Tables_number       1
_space_group_crystal_system       triclinic
_cell_length_a                    36.458386
_cell_length_b                    29.379794
_cell_length_c                    21.695785
_cell_angle_alpha                 90.261513
_cell_angle_beta                  126.28416
_cell_angle_gamma                 89.802758
_cell_volume                      18732.7446725

loop_
_atom_site_label
_atom_site_type_symbol
_atom_type_description
_atom_site_fract_x
_atom_site_fract_y
_atom_site_fract_z
_atom_type_partial_charge
C1    C     C_R   0.914442 0.999985 0.915160 0.823821
C2    C     C_R   0.085557 0.000014 0.084845 0.823822
C3    C     C_R   0.414442 0.499986 0.915158 0.823822
C4    C     C_R   0.585557 0.500014 0.084841 0.823823
C5    C     C_1   0.820929 0.999831 0.821339 -0.016035
C6    C     C_1   0.179071 0.000164 0.178666 -0.015971
C7    C     C_1   0.320929 0.499833 0.821338 -0.016006
C8    C     C_1   0.679071 0.500168 0.178663 -0.016012
C9    C     C_1   0.770677 0.999816 0.770716 -0.015100
C10   C     C_1   0.229323 0.000179 0.229288 -0.015116
C11   C     C_1   0.270677 0.499818 0.770715 -0.015104
C12   C     C_1   0.729323 0.500182 0.229286 -0.015106
C13   C     C_1   0.728282 0.999833 0.728094 -0.008997
C14   C     C_1   0.271718 0.000163 0.271908 -0.009008
C15   C     C_1   0.228281 0.499835 0.728094 -0.009002
C16   C     C_1   0.771718 0.500166 0.271906 -0.009001
C17   C     C_1   0.678009 0.999880 0.677696 -0.005558
C18   C     C_1   0.321991 0.000118 0.322305 -0.005554
C19   C     C_1   0.178009 0.499881 0.677696 -0.005556
C20   C     C_1   0.821991 0.500120 0.322304 -0.005557
C21   C     C_1   0.635606 0.999927 0.635301 -0.193723
C22   C     C_1   0.364394 0.000071 0.364699 -0.193722
C23   C     C_1   0.135606 0.499928 0.635301 -0.193723
C24   C     C_1   0.864394 0.500072 0.364699 -0.193722
C25   C     C_R   0.000017 0.914476 0.500965 0.854677
C26   C     C_R   0.999983 0.085524 0.499033 0.854677
C27   C     C_R   0.500017 0.414476 0.500966 0.854676
C28   C     C_R   0.499983 0.585524 0.499034 0.854678
C29   C     C_R   0.999755 0.999342 0.620930 0.828826
C30   C     C_R   0.000245 0.000658 0.379071 0.828831
C31   C     C_R   0.499755 0.499342 0.620929 0.828828
C32   C     C_R   0.500245 0.500658 0.379071 0.828828
C33   C     C_R   0.500004 0.084451 0.500166 0.795545
C34   C     C_R   0.499996 0.915549 0.499834 0.795545
C35   C     C_R   0.000004 0.584451 0.500166 0.795545
C36   C     C_R   0.999996 0.415549 0.499834 0.795545
C37   C     C_R   0.584443 0.999980 0.584331 0.795260
C38   C     C_R   0.415556 0.000020 0.415669 0.795261
C39   C     C_R   0.084443 0.499980 0.584331 0.795260
C40   C     C_R   0.915556 0.500020 0.415669 0.795261
C41   C     C_1   0.000066 0.863371 0.502454 -0.169339
C42   C     C_1   0.999935 0.136629 0.497540 -0.169349
C43   C     C_1   0.500066 0.363371 0.502456 -0.169344
C44   C     C_1   0.499934 0.636629 0.497543 -0.169345
C45   C     C_R   0.995435 0.000015 0.874917 0.798655
C46   C     C_R   0.004562 0.999985 0.125081 0.798659
C47   C     C_R   0.495437 0.500015 0.874918 0.798654
C48   C     C_R   0.504564 0.499985 0.125082 0.798658
C49   C     C_1   0.000105 0.820962 0.503154 -0.007156
C50   C     C_1   0.999896 0.179037 0.496839 -0.007146
C51   C     C_1   0.500104 0.320962 0.503156 -0.007148
C52   C     C_1   0.499896 0.679038 0.496843 -0.007152
C53   C     C_1   0.000118 0.770696 0.502903 -0.040378
C54   C     C_1   0.999883 0.229304 0.497090 -0.040370
C55   C     C_1   0.500117 0.270696 0.502906 -0.040373
C56   C     C_1   0.499883 0.729304 0.497094 -0.040374
C57   C     C_1   0.500094 0.228300 0.502290 -0.015718
C58   C     C_1   0.499906 0.771700 0.497709 -0.015718
C59   C     C_1   0.000095 0.728300 0.502288 -0.015717
C60   C     C_1   0.999906 0.271700 0.497707 -0.015718
C61   C     C_1   0.500058 0.178028 0.501398 -0.005853
C62   C     C_1   0.499942 0.821972 0.498601 -0.005853
C63   C     C_1   0.000059 0.678028 0.501398 -0.005854
C64   C     C_1   0.999942 0.321972 0.498600 -0.005852
C65   C     C_1   0.500030 0.135619 0.500704 -0.194884
C66   C     C_1   0.499970 0.864381 0.499296 -0.194884
C67   C     C_1   0.000031 0.635618 0.500704 -0.194885
C68   C     C_1   0.999970 0.364381 0.499295 -0.194883
C69   C     C_3   0.963789 0.960200 0.748439 -0.161545
C70   C     C_3   0.036243 0.039774 0.251594 -0.161568
C71   C     C_3   0.019774 0.951012 0.234102 -0.159840
C72   C     C_3   0.980175 0.048976 0.765849 -0.159858
C73   C     C_3   0.463775 0.460212 0.748425 -0.161554
C74   C     C_3   0.536222 0.539791 0.251573 -0.161554
C75   C     C_3   0.519807 0.451019 0.234134 -0.159853
C76   C     C_3   0.480197 0.548981 0.765869 -0.159850
C77   C     C_3   0.965963 0.959963 0.678648 -0.176009
C78   C     C_3   0.034069 0.040012 0.321385 -0.175975
C79   C     C_3   0.023326 0.954393 0.309317 -0.185159
C80   C     C_3   0.976638 0.045593 0.690646 -0.185111
C81   C     C_3   0.465950 0.459974 0.678634 -0.175993
C82   C     C_3   0.534048 0.540028 0.321364 -0.175998
C83   C     C_3   0.523350 0.454402 0.309342 -0.185129
C84   C     C_3   0.476653 0.545599 0.690661 -0.185130
C85   C     C_3   0.043362 0.991533 0.831928 -0.452704
C86   C     C_3   0.956643 0.008514 0.168079 -0.452720
C87   C     C_3   0.543359 0.491513 0.831925 -0.452714
C88   C     C_3   0.456640 0.508483 0.168074 -0.452710
C89   C     C_3   0.993515 0.000510 0.804875 0.025877
C90   C     C_3   0.006480 0.999490 0.195122 0.025863
C91   C     C_3   0.493517 0.500510 0.804876 0.025870
C92   C     C_3   0.506483 0.499489 0.195124 0.025873
C93   C     C_3   0.998190 0.999344 0.687880 0.030103
C94   C     C_3   0.001811 0.000657 0.312121 0.030107
C95   C     C_3   0.498190 0.499344 0.687880 0.030103
C96   C     C_3   0.501811 0.500656 0.312120 0.030104
C97   C     C_3   0.046204 0.992587 0.763814 -0.384840
C98   C     C_3   0.953803 0.007458 0.236196 -0.384861
C99   C     C_3   0.546200 0.492569 0.763809 -0.384854
C100  C     C_3   0.453799 0.507428 0.236190 -0.384847
C101  C     C_1   0.863316 0.999893 0.863955 -0.220247
C102  C     C_1   0.136684 0.000104 0.136051 -0.220248
C103  C     C_1   0.363316 0.499895 0.863953 -0.220255
C104  C     C_1   0.636684 0.500106 0.136047 -0.220248
Cu1   Cu    Cu3+1 0.000000 0.957500 0.000000 0.929069
Cu2   Cu    Cu3+1 0.000000 0.042500 0.000000 0.929067
Cu3   Cu    Cu3+1 0.500000 0.457500 0.000000 0.929068
Cu4   Cu    Cu3+1 0.500000 0.542500 0.000000 0.929064
Cu5   Cu    Cu3+1 0.957500 0.000000 0.457520 0.929069
Cu6   Cu    Cu3+1 0.042500 0.000000 0.542480 0.929075
Cu7   Cu    Cu3+1 0.457500 0.500000 0.457520 0.929070
Cu8   Cu    Cu3+1 0.542500 0.500000 0.542480 0.929072
Cu9   Cu    Cu3+1 0.499970 0.000000 0.437500 0.949948
Cu10  Cu    Cu3+1 0.500030 0.000000 0.562500 0.949950
Cu11  Cu    Cu3+1 0.999970 0.500000 0.437500 0.949949
Cu12  Cu    Cu3+1 0.000030 0.500000 0.562500 0.949949
H1    H     H_    0.931999 0.969375 0.627018 0.126611
H2    H     H_    0.068025 0.030574 0.373006 0.126628
H3    H     H_    0.060293 0.956615 0.356417 0.125021
H4    H     H_    0.939674 0.043345 0.643535 0.125040
H5    H     H_    0.431989 0.469396 0.627008 0.126620
H6    H     H_    0.568010 0.530608 0.372991 0.126617
H7    H     H_    0.560315 0.456642 0.356448 0.125034
H8    H     H_    0.439688 0.543362 0.643555 0.125029
O1    O     O_R   0.938020 0.964110 0.938040 -0.567703
O2    O     O_R   0.061980 0.035890 0.061960 -0.567703
O3    O     O_R   0.061980 0.964110 0.061960 -0.564297
O4    O     O_R   0.938020 0.035890 0.938040 -0.564280
O5    O     O_R   0.438020 0.464110 0.938040 -0.567701
O6    O     O_R   0.561980 0.535890 0.061960 -0.567704
O7    O     O_R   0.561980 0.464110 0.061960 -0.564286
O8    O     O_R   0.438020 0.535890 0.938040 -0.564290
O9    O     O_R   0.999990 0.964110 0.908840 -0.597562
O10   O     O_R   0.000010 0.035890 0.091160 -0.597556
O11   O     O_R   0.000010 0.964110 0.091160 -0.581475
O12   O     O_R   0.999990 0.035890 0.908840 -0.581492
O13   O     O_R   0.499990 0.464110 0.908840 -0.597558
O14   O     O_R   0.500010 0.535890 0.091160 -0.597562
O15   O     O_R   0.500010 0.464110 0.091160 -0.581486
O16   O     O_R   0.499990 0.535890 0.908840 -0.581484
O17   O     O_R   0.964100 0.938030 0.464100 -0.568180
O18   O     O_R   0.035900 0.061970 0.535900 -0.568184
O19   O     O_R   0.035900 0.938030 0.535900 -0.571645
O20   O     O_R   0.964100 0.061970 0.464100 -0.571656
O21   O     O_R   0.464100 0.438030 0.464100 -0.568185
O22   O     O_R   0.535900 0.561970 0.535900 -0.568183
O23   O     O_R   0.535900 0.438030 0.535900 -0.571649
O24   O     O_R   0.464100 0.561970 0.464100 -0.571650
O25   O     O_R   0.964110 0.000000 0.555280 -0.604270
O26   O     O_R   0.035890 0.000000 0.444720 -0.604273
O27   O     O_R   0.464110 0.500000 0.555280 -0.604273
O28   O     O_R   0.535890 0.500000 0.444720 -0.604271
O29   O     O_R   0.035850 0.000000 0.627010 -0.582995
O30   O     O_R   0.964150 0.000000 0.372990 -0.582998
O31   O     O_R   0.535850 0.500000 0.627010 -0.582996
O32   O     O_R   0.464150 0.500000 0.372990 -0.582997
O33   O     O_R   0.499940 0.061950 0.447200 -0.558250
O34   O     O_R   0.500060 0.938050 0.552800 -0.558250
O35   O     O_R   0.500060 0.061950 0.552800 -0.558039
O36   O     O_R   0.499940 0.938050 0.447200 -0.558040
O37   O     O_R   0.999940 0.561950 0.447200 -0.558250
O38   O     O_R   0.000060 0.438050 0.552800 -0.558250
O39   O     O_R   0.000060 0.561950 0.552800 -0.558040
O40   O     O_R   0.999940 0.438050 0.447200 -0.558040
O41   O     O_R   0.561950 0.000000 0.509180 -0.558784
O42   O     O_R   0.438050 0.000000 0.490820 -0.558783
O43   O     O_R   0.061950 0.500000 0.509180 -0.558784
O44   O     O_R   0.938050 0.500000 0.490820 -0.558784
O45   O     O_R   0.561950 1.000000 0.614710 -0.557212
O46   O     O_R   0.438050 0.000000 0.385290 -0.557213
O47   O     O_R   0.061950 0.500000 0.614710 -0.557212
O48   O     O_R   0.938050 0.500000 0.385290 -0.557213
H9    H     H_    0.981902 0.929175 0.782257 0.149331
H10   H     H_    0.018158 0.070815 0.217803 0.149327
H11   H     H_    0.989811 0.929459 0.192925 0.153856
H12   H     H_    0.010110 0.070565 0.807014 0.153865
H13   H     H_    0.481876 0.429179 0.782231 0.149329
H14   H     H_    0.518119 0.570822 0.217764 0.149331
H15   H     H_    0.489862 0.429443 0.192966 0.153862
H16   H     H_    0.510143 0.570554 0.807040 0.153862
C105  C     C_R   0.915319 0.954353 0.725316 0.070045
C106  C     C_R   0.877569 0.978491 0.664058 -0.150376
C107  C     C_R   0.833877 0.971375 0.644111 -0.140466
C108  C     C_R   0.826865 0.939851 0.684026 -0.108705
C109  C     C_R   0.863541 0.915307 0.744028 -0.129222
C110  C     C_R   0.907320 0.922269 0.764339 -0.131497
H17   H     H_    0.881583 0.004180 0.633099 0.119589
H18   H     H_    0.805437 0.990651 0.597916 0.131119
H19   H     H_    0.793019 0.934551 0.668628 0.131440
H20   H     H_    0.858079 0.890849 0.775005 0.130012
H21   H     H_    0.935041 0.902555 0.810990 0.133497
C111  C     C_R   0.084717 0.045579 0.274723 0.070033
C112  C     C_R   0.122446 0.021408 0.335959 -0.150429
C113  C     C_R   0.166146 0.028493 0.355926 -0.140467
C114  C     C_R   0.173188 0.060019 0.316052 -0.108665
C115  C     C_R   0.136534 0.084594 0.256069 -0.129219
C116  C     C_R   0.092747 0.077661 0.235737 -0.131556
H22   H     H_    0.118407 0.995718 0.366887 0.119574
H23   H     H_    0.194568 0.009193 0.402104 0.131116
H24   H     H_    0.207041 0.065296 0.331466 0.131445
H25   H     H_    0.142019 0.109052 0.225124 0.130024
H26   H     H_    0.065042 0.097398 0.189101 0.133491
C117  C     C_R   0.059119 0.923058 0.244344 0.086259
C118  C     C_R   0.090421 0.940157 0.232043 -0.067724
C119  C     C_R   0.125565 0.912970 0.243673 -0.136921
C120  C     C_R   0.129210 0.867573 0.264710 -0.124617
C121  C     C_R   0.097117 0.849028 0.272580 -0.141245
C122  C     C_R   0.062168 0.876216 0.261462 -0.154871
H27   H     H_    0.088004 0.974095 0.212146 0.119035
H28   H     H_    0.149790 0.927010 0.235541 0.139001
H29   H     H_    0.156285 0.846536 0.273240 0.126923
H30   H     H_    0.098961 0.813372 0.286501 0.129927
H31   H     H_    0.036790 0.859892 0.264350 0.153666
C123  C     C_R   0.940789 0.076884 0.755549 0.086181
C124  C     C_R   0.937656 0.123716 0.738298 -0.154881
C125  C     C_R   0.902641 0.150855 0.727053 -0.141212
C126  C     C_R   0.870568 0.132273 0.734942 -0.124576
C127  C     C_R   0.874303 0.086891 0.756135 -0.136942
C128  C     C_R   0.909512 0.059754 0.767887 -0.067742
H32   H     H_    0.963014 0.140072 0.735388 0.153686
H33   H     H_    0.900726 0.186503 0.713011 0.129903
H34   H     H_    0.843435 0.153269 0.726301 0.126909
H35   H     H_    0.850090 0.072825 0.764278 0.139043
H36   H     H_    0.911986 0.025827 0.787874 0.119007
C129  C     C_R   0.415303 0.454384 0.725297 0.070041
C130  C     C_R   0.377564 0.478538 0.664050 -0.150401
C131  C     C_R   0.333868 0.471437 0.644092 -0.140465
C132  C     C_R   0.326841 0.439911 0.683986 -0.108687
C133  C     C_R   0.363506 0.415351 0.743978 -0.129223
C134  C     C_R   0.407288 0.422300 0.764300 -0.131521
H37   H     H_    0.381591 0.504228 0.633108 0.119582
H38   H     H_    0.305437 0.490724 0.597905 0.131119
H39   H     H_    0.292991 0.434622 0.668579 0.131442
H40   H     H_    0.358032 0.390893 0.774937 0.130018
H41   H     H_    0.435001 0.402575 0.810944 0.133491
C135  C     C_R   0.584693 0.545624 0.274697 0.070040
C136  C     C_R   0.622437 0.521475 0.335948 -0.150394
C137  C     C_R   0.666131 0.528581 0.355901 -0.140465
C138  C     C_R   0.673153 0.560106 0.315999 -0.108691
C139  C     C_R   0.636484 0.584660 0.256003 -0.129220
C140  C     C_R   0.592703 0.577707 0.235686 -0.131517
H42   H     H_    0.618415 0.495786 0.366897 0.119582
H43   H     H_    0.694566 0.509298 0.402091 0.131118
H44   H     H_    0.707001 0.565398 0.331402 0.131441
H45   H     H_    0.641953 0.609117 0.225036 0.130015
H46   H     H_    0.564986 0.597428 0.189039 0.133495
C141  C     C_R   0.559179 0.423095 0.244413 0.086218
C142  C     C_R   0.590464 0.440215 0.232090 -0.067742
C143  C     C_R   0.625650 0.413061 0.243797 -0.136941
C144  C     C_R   0.629352 0.367674 0.264931 -0.124592
C145  C     C_R   0.597272 0.349104 0.272811 -0.141232
C146  C     C_R   0.562281 0.376259 0.261614 -0.154875
H47   H     H_    0.588011 0.474146 0.212136 0.119017
H48   H     H_    0.649867 0.427119 0.235659 0.139031
H49   H     H_    0.656463 0.346664 0.273530 0.126919
H50   H     H_    0.599161 0.313453 0.286807 0.129913
H51   H     H_    0.536917 0.359914 0.264516 0.153678
C147  C     C_R   0.440829 0.576909 0.755596 0.086216
C148  C     C_R   0.437732 0.623745 0.738402 -0.154876
C149  C     C_R   0.402751 0.650907 0.727224 -0.141237
C150  C     C_R   0.370673 0.632341 0.735114 -0.124590
C151  C     C_R   0.374367 0.586953 0.756235 -0.136935
C152  C     C_R   0.409543 0.559793 0.767922 -0.067730
H52   H     H_    0.463097 0.640088 0.735497 0.153680
H53   H     H_    0.400867 0.686559 0.713236 0.129915
H54   H     H_    0.343570 0.653357 0.726533 0.126921
H55   H     H_    0.350152 0.572898 0.764380 0.139026
H56   H     H_    0.411991 0.525861 0.787868 0.119019
C153  C     C_R   0.974384 0.911926 0.661082 0.107597
C154  C     C_R   0.011316 0.884602 0.716938 -0.159562
C155  C     C_R   0.014403 0.839005 0.701906 -0.142029
C156  C     C_R   0.980508 0.819623 0.631657 -0.099234
C157  C     C_R   0.943964 0.846092 0.575465 -0.134069
C158  C     C_R   0.941083 0.891914 0.589621 -0.136264
H57   H     H_    0.036685 0.897201 0.773774 0.118529
H58   H     H_    0.042588 0.818338 0.745625 0.128774
H59   H     H_    0.982584 0.784077 0.620723 0.133441
H60   H     H_    0.917767 0.831066 0.520783 0.132526
H61   H     H_    0.911945 0.911351 0.545199 0.123144
C159  C     C_R   0.025684 0.088053 0.338993 0.107592
C160  C     C_R   0.988781 0.115411 0.283159 -0.159600
C161  C     C_R   0.985728 0.161007 0.298238 -0.142021
C162  C     C_R   0.019629 0.180353 0.368516 -0.099245
C163  C     C_R   0.056143 0.153849 0.424688 -0.134108
C164  C     C_R   0.058991 0.108030 0.410482 -0.136192
H62   H     H_    0.963407 0.102838 0.226308 0.118537
H63   H     H_    0.957566 0.181700 0.254536 0.128786
H64   H     H_    0.017580 0.215897 0.379487 0.133451
H65   H     H_    0.082344 0.168847 0.479393 0.132520
H66   H     H_    0.088107 0.088565 0.454891 0.123157
C165  C     C_R   0.006864 0.910662 0.324100 0.099877
C166  C     C_R   0.963265 0.892165 0.269607 -0.152842
C167  C     C_R   0.952590 0.848088 0.278031 -0.147720
C168  C     C_R   0.985413 0.821316 0.339440 -0.107913
C169  C     C_R   0.028553 0.839121 0.394117 -0.144068
C170  C     C_R   0.038809 0.883846 0.387949 -0.160889
H67   H     H_    0.938262 0.909846 0.217563 0.115181
H68   H     H_    0.919305 0.834048 0.235207 0.129009
H69   H     H_    0.977448 0.786731 0.344622 0.134560
H70   H     H_    0.054092 0.818278 0.441681 0.138275
H71   H     H_    0.072801 0.896422 0.430723 0.124996
C171  C     C_R   0.993078 0.089334 0.675843 0.099861
C172  C     C_R   0.036655 0.107874 0.730356 -0.152878
C173  C     C_R   0.047299 0.151960 0.721905 -0.147692
C174  C     C_R   0.014465 0.178698 0.660445 -0.107879
C175  C     C_R   0.971349 0.160848 0.605743 -0.144110
C176  C     C_R   0.961126 0.116114 0.611942 -0.160887
H72   H     H_    0.061661 0.090218 0.782431 0.115185
H73   H     H_    0.080566 0.166034 0.764746 0.129003
H74   H     H_    0.022405 0.213290 0.655242 0.134561
H75   H     H_    0.945803 0.181663 0.558135 0.138264
H76   H     H_    0.927151 0.103502 0.569147 0.125018
C177  C     C_R   0.474356 0.411936 0.661052 0.107594
C178  C     C_R   0.511275 0.384597 0.716898 -0.159577
C179  C     C_R   0.514349 0.339002 0.701847 -0.142027
C180  C     C_R   0.480452 0.319635 0.631586 -0.099243
C181  C     C_R   0.443921 0.346118 0.575403 -0.134088
C182  C     C_R   0.441054 0.391938 0.589580 -0.136235
H77   H     H_    0.536646 0.397186 0.773740 0.118534
H78   H     H_    0.542524 0.318324 0.745559 0.128781
H79   H     H_    0.482518 0.284090 0.620636 0.133448
H80   H     H_    0.417723 0.331104 0.520711 0.132526
H81   H     H_    0.411925 0.411387 0.545163 0.123152
C183  C     C_R   0.525640 0.588067 0.338945 0.107597
C184  C     C_R   0.488719 0.615403 0.283096 -0.159576
C185  C     C_R   0.485644 0.661000 0.298144 -0.142026
C186  C     C_R   0.519542 0.680369 0.368403 -0.099238
C187  C     C_R   0.556074 0.653887 0.424589 -0.134084
C188  C     C_R   0.558942 0.608066 0.410415 -0.136238
H82   H     H_    0.463347 0.602813 0.226255 0.118532
H83   H     H_    0.457468 0.681676 0.254431 0.128778
H84   H     H_    0.517476 0.715914 0.379350 0.133445
H85   H     H_    0.582273 0.668903 0.479279 0.132524
H86   H     H_    0.588072 0.588619 0.454834 0.123149
C189  C     C_R   0.506904 0.410664 0.324140 0.099865
C190  C     C_R   0.463319 0.392139 0.269636 -0.152867
C191  C     C_R   0.452666 0.348055 0.278078 -0.147703
C192  C     C_R   0.485498 0.321306 0.339519 -0.107893
C193  C     C_R   0.528622 0.339140 0.394210 -0.144093
C194  C     C_R   0.538856 0.383872 0.388022 -0.160883
H87   H     H_    0.438313 0.409803 0.217574 0.115184
H88   H     H_    0.419393 0.333993 0.235245 0.129006
H89   H     H_    0.477550 0.286715 0.344715 0.134561
H90   H     H_    0.554168 0.318316 0.441802 0.138265
H91   H     H_    0.572837 0.396472 0.430807 0.125008
C195  C     C_R   0.493102 0.589335 0.675865 0.099869
C196  C     C_R   0.536687 0.607858 0.730371 -0.152866
C197  C     C_R   0.547343 0.651940 0.721931 -0.147706
C198  C     C_R   0.514514 0.678691 0.660490 -0.107897
C199  C     C_R   0.471390 0.660859 0.605798 -0.144095
C200  C     C_R   0.461153 0.616129 0.611985 -0.160889
H92   H     H_    0.561691 0.590193 0.782434 0.115184
H93   H     H_    0.580616 0.666001 0.764765 0.129008
H94   H     H_    0.522464 0.713280 0.655295 0.134563
H95   H     H_    0.445846 0.681685 0.558207 0.138271
H96   H     H_    0.427172 0.603532 0.569199 0.125010
H97   H     H_    0.055900 0.958080 0.861258 0.171854
H98   H     H_    0.944137 0.041979 0.138784 0.171880
H99   H     H_    0.932906 0.982607 0.125104 0.164987
H100  H     H_    0.067074 0.017465 0.874876 0.165004
H101  H     H_    0.555884 0.458056 0.861239 0.171866
H102  H     H_    0.444112 0.541939 0.138755 0.171864
H103  H     H_    0.432919 0.482559 0.125117 0.164998
H104  H     H_    0.567082 0.517435 0.874884 0.164997
H105  H     H_    0.062172 0.961023 0.761893 0.171025
H106  H     H_    0.937865 0.039037 0.238149 0.171020
H107  H     H_    0.930184 0.980506 0.227774 0.173786
H108  H     H_    0.069797 0.019564 0.772208 0.173787
H109  H     H_    0.562156 0.460999 0.761875 0.171025
H110  H     H_    0.437841 0.538997 0.238121 0.171024
H111  H     H_    0.430196 0.480460 0.227786 0.173785
H112  H     H_    0.569804 0.519536 0.772214 0.173790

loop_
_geom_bond_atom_site_label_1
_geom_bond_atom_site_label_2
_ccdc_geom_bond_type
C87   C91   S    
C97   H105  S    
C82   C183  S    
C165  C166  A    
C87   H101  S    
Cu3   O5    S    
C191  C192  A    
C70   C111  S    
C177  C182  A    
C70   C90   S    
C141  C146  A    
C161  C162  A    
C85   H100  S    
C182  H81   S    
C163  C164  A    
C81   C95   S    
C95   C99   S    
C155  C156  A    
C22   C38   S    
C74   C92   S    
C133  H40   S    
C196  C197  A    
C9    C13   T    
C106  C107  A    
C39   O47   A    
C11   C15   T    
C12   C16   T    
C183  C184  A    
Cu8   O31   S    
C188  H86   S    
C185  C186  A    
C75   H15   S    
C166  H67   S    
C69   H9    S    
C41   C49   T    
C132  C133  A    
C5    C101  T    
C172  H72   S    
C109  H20   S    
C86   C90   S    
C25   C41   S    
Cu1   O3    S    
C120  C121  A    
Cu11  O48   S    
C4    O6    A    
C178  C179  A    
C28   C44   S    
C35   O39   A    
Cu12  O47   S    
C81   H5    S    
C180  C181  A    
C19   C23   T    
C107  C108  A    
C133  C134  A    
C98   H106  S    
C46   O10   A    
C131  C132  A    
C74   H14   S    
C16   C20   S    
C175  C176  A    
C195  C196  A    
C50   C54   S    
Cu5   O30   S    
C8    C104  T    
C136  H42   S    
C55   C57   T    
C139  H45   S    
C1    C101  S    
Cu1   O9    S    
C3    C103  S    
C160  H62   S    
C162  H64   S    
C3    O5    A    
C45   O9    A    
C157  H60   S    
C115  C116  A    
Cu6   O26   S    
C36   C68   S    
C57   C61   S    
Cu9   O46   S    
Cu1   O1    S    
C59   C63   S    
C129  C134  A    
C48   O14   A    
C60   C64   S    
C183  C188  A    
C150  H54   S    
C30   C94   S    
C107  H18   S    
C145  H50   S    
C189  C194  A    
C78   C94   S    
C49   C53   S    
C86   H99   S    
C4    C104  S    
C197  C198  A    
Cu5   O20   S    
C51   C55   S    
C6    C102  T    
C199  C200  A    
C85   C97   S    
C29   O25   A    
C114  C115  A    
C61   C65   T    
C30   O30   A    
C112  C113  A    
C88   H103  S    
Cu12  O44   S    
Cu9   O33   S    
C80   C93   S    
Cu7   O24   S    
C82   H6    S    
C174  H74   S    
C69   C105  S    
Cu4   O14   S    
C122  H31   S    
C69   C77   S    
Cu7   Cu8   S    
C43   C51   T    
C34   C66   S    
C71   C79   S    
C109  C110  A    
C127  H35   S    
C143  C144  A    
C35   O37   A    
C153  C158  A    
C64   C68   T    
C78   H2    S    
C37   O45   A    
C150  C151  A    
C2    C102  S    
Cu11  Cu12  S    
C85   H97   S    
C108  C109  A    
C176  H76   S    
C167  H68   S    
C196  H92   S    
C32   O32   A    
C181  H80   S    
Cu8   O22   S    
C47   O16   A    
C99   H109  S    
Cu3   Cu4   S    
Cu4   O6    S    
C191  H88   S    
Cu1   O11   S    
C2    O3    A    
C44   C52   T    
Cu2   O12   S    
C193  H90   S    
C161  H63   S    
C7    C103  T    
C136  C137  A    
Cu6   O19   S    
C69   C89   S    
C157  C158  A    
C155  H58   S    
C62   C66   T    
C158  H61   S    
C159  C160  A    
C79   C94   S    
C10   C14   T    
C151  H55   S    
C142  H47   S    
C156  C157  A    
C37   O41   A    
C126  C127  A    
C137  H43   S    
C189  C190  A    
C84   C95   S    
C135  C140  A    
Cu11  O37   S    
C5    C9    S    
C167  C168  A    
C31   O27   A    
C32   O28   A    
C35   C67   S    
C8    C12   S    
C21   C37   S    
C116  H26   S    
C70   H10   S    
C132  H39   S    
C42   C50   T    
C77   C153  S    
C194  H91   S    
C93   C97   S    
C26   C42   S    
C178  H77   S    
C18   C22   T    
C154  H57   S    
C87   H104  S    
C187  C188  A    
C105  C110  A    
C151  C152  A    
C117  C122  A    
C28   O22   A    
C175  H75   S    
Cu8   O23   S    
C13   C17   S    
C147  C148  A    
C168  H69   S    
C72   C80   S    
Cu6   O29   S    
C71   C90   S    
C119  H28   S    
C83   C96   S    
C96   C100  S    
C139  C140  A    
C56   C58   T    
Cu3   O15   S    
Cu4   O8    S    
C76   C91   S    
Cu2   O10   S    
C118  C119  A    
C130  C131  A    
C48   C92   S    
C162  C163  A    
Cu5   O17   S    
C115  H25   S    
Cu11  O43   S    
C198  H94   S    
C58   C62   S    
Cu10  O45   S    
C72   C123  S    
C88   H102  S    
Cu12  O39   S    
C138  C139  A    
C1    O4    A    
C190  C191  A    
C76   C84   S    
C80   C171  S    
C145  C146  A    
C105  C106  A    
C15   C19   S    
C198  C199  A    
Cu9   O41   S    
C168  C169  A    
C30   O26   A    
C94   C98   S    
C112  H22   S    
Cu2   O4    S    
C73   C81   S    
C110  H21   S    
C125  H33   S    
Cu10  O34   S    
C98   H107  S    
C46   O11   A    
C79   H3    S    
C118  H27   S    
Cu8   O28   S    
C45   C89   S    
C113  C114  A    
C179  C180  A    
C153  C154  A    
C36   O38   A    
C173  H73   S    
C74   C82   S    
C33   O33   A    
C146  H51   S    
C38   O46   A    
C152  H56   S    
C28   O24   A    
C121  C122  A    
C195  C200  A    
C148  H52   S    
C143  H48   S    
C169  C170  A    
C85   C89   S    
C149  C150  A    
C144  C145  A    
C171  C176  A    
C140  H46   S    
Cu3   O13   S    
C7    C11   S    
C193  C194  A    
C141  C142  A    
C179  H78   S    
C184  H82   S    
C111  C116  A    
C88   C100  S    
C81   C177  S    
C180  H79   S    
C40   O48   A    
C75   C141  S    
C142  C143  A    
Cu9   Cu10  S    
C126  H34   S    
C38   O42   A    
C137  C138  A    
C200  H96   S    
C47   C91   S    
C25   O17   A    
C76   H16   S    
C6    C10   S    
C31   O31   A    
C169  H70   S    
C46   C90   S    
Cu1   Cu2   S    
Cu2   O2    S    
C165  C170  A    
C186  C187  A    
Cu5   Cu6   S    
C29   C93   S    
C75   C83   S    
C177  C178  A    
C84   C195  S    
C31   C95   S    
C77   C93   S    
C71   H11   S    
C72   H12   S    
C184  C185  A    
C86   C98   S    
C17   C21   T    
C27   C43   S    
C100  H110  S    
C174  C175  A    
C99   H112  S    
C36   O40   A    
C97   H108  S    
C154  C155  A    
C83   C189  S    
C83   H7    S    
C149  H53   S    
C33   O35   A    
C79   C165  S    
C34   O36   A    
C117  C118  A    
C80   H4    S    
C156  H59   S    
C70   C78   S    
C14   C18   S    
C147  C152  A    
C124  C125  A    
C53   C59   T    
C33   C65   S    
C54   C60   T    
C119  C120  A    
C135  C136  A    
C71   C117  S    
C100  H111  S    
C187  H85   S    
C199  H95   S    
Cu12  O38   S    
C166  C167  A    
C1    O1    A    
C77   H1    S    
C123  C128  A    
Cu7   O21   S    
C186  H84   S    
C130  H37   S    
C86   H98   S    
Cu11  O40   S    
Cu6   O18   S    
C120  H29   S    
C88   C92   S    
C138  H44   S    
Cu7   O32   S    
C27   O21   A    
C73   H13   S    
C131  H38   S    
C128  H36   S    
C172  C173  A    
C2    O2    A    
C25   O19   A    
C26   O20   A    
C197  H93   S    
Cu10  O42   S    
C4    O7    A    
C87   C99   S    
C170  H71   S    
C63   C67   T    
C82   C96   S    
C20   C24   T    
C134  H41   S    
C125  C126  A    
C73   C91   S    
Cu3   O7    S    
Cu4   O16   S    
C123  C124  A    
C160  C161  A    
C76   C147  S    
C164  H66   S    
C192  H89   S    
Cu5   O25   S    
C190  H87   S    
C113  H23   S    
C47   O13   A    
C129  C130  A    
C75   C92   S    
C34   O34   A    
C173  C174  A    
C32   C96   S    
C124  H32   S    
C121  H30   S    
C74   C135  S    
C148  C149  A    
C29   O29   A    
C114  H24   S    
C144  H49   S    
C171  C172  A    
C45   O12   A    
C48   O15   A    
C159  C164  A    
Cu7   O27   S    
C163  H65   S    
C3    O8    A    
C84   H8    S    
C111  C112  A    
C78   C159  S    
C73   C129  S    
C72   C89   S    
C127  C128  A    
C23   C39   S    
C24   C40   S    
C106  H17   S    
Cu9   O36   S    
C39   O43   A    
C181  C182  A    
Cu10  O35   S    
C40   O44   A    
C27   O23   A    
C192  C193  A    
C185  H83   S    
C108  H19   S    
C26   O18   A    
C52   C56   S    
