data_mof_unit_45481.cif
_audit_creation_date              2012-12-10T16:47:51-0500
_audit_creation_method            fapswitch 2.2
_symmetry_space_group_name_H-M    P1
_symmetry_Int_Tables_number       1
_space_group_crystal_system       triclinic
_cell_length_a                    7.842364
_cell_length_b                    8.624797
_cell_length_c                    10.70166
_cell_angle_alpha                 91.99746
_cell_angle_beta                  85.632029
_cell_angle_gamma                 92.720684
_cell_volume                      720.576707434

loop_
_atom_site_label
_atom_site_type_symbol
_atom_type_description
_atom_site_fract_x
_atom_site_fract_y
_atom_site_fract_z
_atom_type_partial_charge
C1    C     C_R   0.543792 0.793751 0.496849 0.889775
C2    C     C_2   0.562412 0.955942 0.513896 -0.129990
C3    C     C_3   0.034861 0.731089 0.679055 0.218884
C4    C     C_3   0.949532 0.780645 0.805591 -0.916085
C5    C     C_2   0.436341 0.045177 0.481242 -0.103471
C6    C     C_R   0.500076 0.491793 0.736450 0.901451
C7    C     C_R   0.455968 0.206333 0.501042 0.969936
C8    C     C_R   0.499596 0.504464 0.262916 0.855843
C9    C     C_2   0.629315 0.459903 0.058327 -0.175086
C10   C     C_2   0.503900 0.526056 0.131270 -0.035417
C11   C     C_2   0.640394 0.469594 0.924277 -0.162191
C12   C     C_2   0.496856 0.462945 0.865981 -0.289960
H1    H     H_    0.726917 0.395032 0.097659 0.157845
H2    H     H_    0.055623 0.511714 0.297901 0.180316
H3    H     H_    0.115744 0.337826 0.356180 0.224586
H4    H     H_    0.002780 0.814079 0.608332 0.103387
H5    H     H_    0.174726 0.736325 0.687397 0.181240
H6    H     H_    0.987837 0.705098 0.879648 0.254758
H7    H     H_    0.989682 0.902777 0.828913 0.218660
H8    H     H_    0.808120 0.771732 0.803026 0.260749
H9    H     H_    0.765993 0.481072 0.874458 0.205634
H10   H     H_    0.372698 0.436890 0.914737 0.173070
H11   H     H_    0.262778 0.588369 0.107224 0.178977
H12   H     H_    0.404513 0.738488 0.130057 0.175523
H13   H     H_    0.817939 0.992347 0.528078 0.199255
H14   H     H_    0.702254 0.962708 0.666507 0.176589
H15   H     H_    0.341828 0.918901 0.333249 0.186807
H16   H     H_    0.202013 0.933548 0.464839 0.203026
N1    N     N_2   0.950320 0.457950 0.466680 0.035865
N2    N     N_2   0.049680 0.542050 0.533320 0.105224
N3    N     N_3   0.387995 0.630477 0.084061 -0.452154
N4    N     N_3   0.704503 0.017756 0.580902 -0.424285
N5    N     N_3   0.297061 0.991016 0.408034 -0.476916
N6    N     N_3   0.016947 0.412581 0.347940 -0.379629
O1    O     O_R   0.389250 0.738570 0.508180 -0.666575
O2    O     O_R   0.678390 0.711630 0.486820 -0.610421
O3    O     O_R   0.355470 0.513470 0.691600 -0.625716
O4    O     O_R   0.644610 0.486520 0.670240 -0.556547
O5    O     O_R   0.321610 0.288370 0.513180 -0.634458
O6    O     O_R   0.610750 0.261430 0.491820 -0.591684
O7    O     O_R   0.355390 0.513480 0.329760 -0.669447
O8    O     O_R   0.644530 0.486530 0.308400 -0.617720
O9    O     O_3   0.973991 0.580461 0.646450 -0.498839
Zn1   Zn    Zn3+2 0.306940 0.517990 0.514260 0.943576
Zn2   Zn    Zn3+2 0.693060 0.482010 0.485740 1.015614

loop_
_geom_bond_atom_site_label_1
_geom_bond_atom_site_label_2
_ccdc_geom_bond_type
H2    N6    S    
C11   C12   D    
C6    O4    A    
H14   N4    S    
N1    N2    D    
C9    C10   D    
H3    N6    S    
C7    O6    A    
C3    O9    S    
H13   N4    S    
H12   N3    S    
C4    H6    S    
O2    Zn2   S    
H15   N5    S    
O1    Zn1   S    
C9    C11   S    
N2    Zn1   S    
O5    Zn1   S    
O3    Zn1   S    
N1    N6    S    
C8    C10   S    
C8    O8    A    
H16   N5    S    
C3    H5    S    
C5    N5    S    
C6    C12   S    
O6    Zn2   S    
O7    Zn1   S    
N2    O9    S    
C6    O3    A    
C2    C5    D    
C3    C4    S    
C4    H8    S    
C12   H10   S    
C8    O7    A    
C1    O1    A    
C2    N4    S    
C1    C2    S    
C5    C7    S    
C7    O5    A    
O4    Zn2   S    
C9    H1    S    
C4    H7    S    
C10   N3    S    
C11   H9    S    
C3    H4    S    
C1    O2    A    
N1    Zn2   S    
O8    Zn2   S    
H11   N3    S    
