data_mof_unit_27190.cif
_audit_creation_date              2012-12-10T17:17:18-0500
_audit_creation_method            fapswitch 2.2
_symmetry_space_group_name_H-M    P1
_symmetry_Int_Tables_number       1
_space_group_crystal_system       triclinic
_cell_length_a                    18.98515
_cell_length_b                    18.868603
_cell_length_c                    18.591027
_cell_angle_alpha                 109.091758
_cell_angle_beta                  109.218994
_cell_angle_gamma                 110.016047
_cell_volume                      5131.86234867

loop_
_atom_site_label
_atom_site_type_symbol
_atom_type_description
_atom_site_fract_x
_atom_site_fract_y
_atom_site_fract_z
_atom_type_partial_charge
C1    C     C_R   0.120655 0.119388 0.501962 0.826451
C2    C     C_R   0.272195 0.056629 0.713375 -0.010348
C3    C     C_R   0.185355 0.002499 0.685904 -0.126144
C4    C     C_R   0.162269 0.955299 0.726870 0.058195
C5    C     C_R   0.226487 0.953321 0.789023 0.420021
C6    C     C_R   0.315046 0.010681 0.821400 -0.253820
C7    C     C_R   0.196577 0.171211 0.429840 -0.348382
C8    C     C_R   0.256774 0.236160 0.426768 0.398258
C9    C     C_R   0.317303 0.316017 0.503779 -0.253797
C10   C     C_R   0.316490 0.332844 0.583081 0.383030
C11   C     C_R   0.248995 0.271189 0.583001 0.129725
C12   C     C_R   0.118057 0.000241 0.618641 0.834839
C13   C     C_R   0.190278 0.188343 0.505843 -0.167482
C14   C     C_R   0.729352 0.927346 0.266570 0.018882
C15   C     C_R   0.665519 0.923337 0.197029 0.474475
C16   C     C_R   0.685304 0.995032 0.182675 -0.193348
C17   C     C_R   0.770158 0.065126 0.230687 -0.250527
C18   C     C_R   0.835410 0.066637 0.294765 0.135691
C19   C     C_R   0.814488 0.998039 0.313220 -0.077862
C20   C     C_R   0.801225 0.731658 0.471164 -0.257886
C21   C     C_R   0.738374 0.668332 0.472527 -0.222549
C22   C     C_R   0.683546 0.686646 0.500032 -0.057560
C23   C     C_R   0.881424 0.881394 0.501196 0.821131
C24   C     C_R   0.692737 0.769853 0.529551 0.059440
C25   C     C_R   0.764806 0.837346 0.540626 0.475204
C26   C     C_R   0.814612 0.816052 0.504081 -0.160322
C27   C     C_R   0.501281 0.881635 0.882074 0.849085
C28   C     C_R   0.381409 0.004213 0.884357 0.826442
C29   C     C_R   0.500248 0.118386 0.119008 0.842241
C30   C     C_R   0.618672 0.997993 0.117529 0.839240
C31   C     C_R   0.503768 0.622036 0.619305 0.835590
C32   C     C_R   0.381983 0.382160 0.501376 0.910848
C33   C     C_R   0.498742 0.380420 0.380250 0.856803
C34   C     C_R   0.881746 0.999839 0.380998 0.851446
C35   C     C_R   0.618096 0.618400 0.499337 0.821042
C36   C     C_R   0.584202 0.825734 0.826656 0.389225
C37   C     C_R   0.586826 0.763106 0.762135 0.088921
C38   C     C_R   0.507881 0.692233 0.687124 -0.133027
C39   C     C_R   0.429250 0.686497 0.675567 -0.208642
C40   C     C_R   0.425966 0.748001 0.738337 0.121762
C41   C     C_R   0.503452 0.816569 0.815249 -0.166943
C42   C     C_R   0.461407 0.231705 0.159894 0.037940
C43   C     C_R   0.455753 0.292391 0.222661 0.440717
C44   C     C_R   0.495537 0.311534 0.310980 -0.198291
C45   C     C_R   0.294921 0.101440 0.669331 -0.275904
C46   C     C_R   0.532916 0.264335 0.333876 -0.246184
C47   C     C_R   0.533543 0.199789 0.271113 0.127666
C48   C     C_R   0.498627 0.184458 0.184429 -0.076775
C49   C     C_R   0.381374 0.160932 0.701313 0.492338
C50   C     C_R   0.443274 0.183934 0.783319 -0.207048
C51   C     C_R   0.421879 0.139737 0.826972 -0.204421
C52   C     C_R   0.337537 0.068780 0.788239 0.047838
Cu1   Cu    Cu3+1 0.999980 0.061790 0.561790 0.943390
Cu2   Cu    Cu3+1 0.000020 0.938210 0.438210 0.927580
Cu3   Cu    Cu3+1 0.438200 0.938230 0.000040 0.960322
Cu4   Cu    Cu3+1 0.561800 0.061850 0.000040 0.910372
Cu5   Cu    Cu3+1 0.438190 0.500100 0.438300 0.955164
Cu6   Cu    Cu3+1 0.561810 0.500080 0.561880 0.919845
H1    H     H_    0.785743 0.119307 0.218427 0.181512
H2    H     H_    0.840768 0.715056 0.446152 0.178277
H3    H     H_    0.730508 0.603944 0.449345 0.153289
H4    H     H_    0.246006 0.090855 0.610282 0.127425
H5    H     H_    0.369482 0.632451 0.617315 0.171377
H6    H     H_    0.561338 0.277445 0.401045 0.179065
H7    H     H_    0.508895 0.235791 0.813136 0.149641
H8    H     H_    0.472005 0.165582 0.892474 0.181135
H9    H     H_    0.152675 0.107924 0.371471 0.178087
O1    O     O_R   0.090150 0.142360 0.552170 -0.589185
O2    O     O_R   0.552230 0.962090 0.909900 -0.599727
O3    O     O_R   0.357630 0.947820 0.909860 -0.542109
O4    O     O_R   0.462000 0.052220 0.909860 -0.608587
O5    O     O_R   0.447770 0.037990 0.090190 -0.585082
O6    O     O_R   0.552150 0.142390 0.090190 -0.594843
O7    O     O_R   0.538000 0.947860 0.090220 -0.543378
O8    O     O_R   0.642370 0.052260 0.090230 -0.602186
O9    O     O_R   0.447810 0.590260 0.538090 -0.595721
O10   O     O_R   0.552200 0.590240 0.642450 -0.592525
O11   O     O_R   0.357640 0.409920 0.447920 -0.580178
O12   O     O_R   0.090180 0.037990 0.447810 -0.599143
O13   O     O_R   0.462030 0.409900 0.552280 -0.622593
O14   O     O_R   0.447800 0.409940 0.357730 -0.552210
O15   O     O_R   0.552190 0.409920 0.462090 -0.601345
O16   O     O_R   0.537970 0.590270 0.447900 -0.581539
O17   O     O_R   0.642360 0.590260 0.552260 -0.596928
O18   O     O_R   0.090170 0.052200 0.642360 -0.596545
O19   O     O_R   0.090200 0.947840 0.538010 -0.593410
O20   O     O_R   0.909820 0.962010 0.552190 -0.553009
O21   O     O_R   0.909850 0.857640 0.447830 -0.595666
O22   O     O_R   0.909800 0.052160 0.461990 -0.577336
O23   O     O_R   0.909830 0.947800 0.357640 -0.589789
O24   O     O_R   0.447850 0.857690 0.909890 -0.603837
C53   C     C_3   0.068875 0.907142 0.703781 -0.860028
H10   H     H_    0.059686 0.877818 0.745166 0.262772
H11   H     H_    0.045391 0.953725 0.714312 0.231678
H12   H     H_    0.028794 0.855036 0.633958 0.212676
C54   C     C_3   0.240152 0.295106 0.664509 -0.764665
H13   H     H_    0.243360 0.249107 0.688731 0.222211
H14   H     H_    0.290389 0.361586 0.718854 0.239448
H15   H     H_    0.178471 0.294807 0.649863 0.237770
C55   C     C_3   0.706848 0.857904 0.292481 -0.830195
H16   H     H_    0.636424 0.811742 0.257422 0.255787
H17   H     H_    0.739514 0.820622 0.278504 0.228249
H18   H     H_    0.728373 0.888560 0.363651 0.236538
O25   O     O_3   0.583084 0.851023 0.144873 -0.592757
C56   C     C_3   0.583725 0.780035 0.087487 0.020761
H19   H     H_    0.542935 0.720970 0.086765 0.166443
H20   H     H_    0.648904 0.786433 0.107890 0.140394
C57   C     C_3   0.544841 0.766243 0.994517 -0.311714
H21   H     H_    0.478489 0.755973 0.972725 0.242296
H22   H     H_    0.585072 0.825035 0.994624 0.229176
C58   C     C_3   0.540728 0.687755 0.930152 -0.893250
H23   H     H_    0.606780 0.698141 0.948475 0.258863
H24   H     H_    0.510031 0.678111 0.862973 0.269166
H25   H     H_    0.501687 0.628216 0.929787 0.246961
C59   C     C_3   0.926784 0.141552 0.342897 -0.853267
H26   H     H_    0.970300 0.116853 0.333649 0.217691
H27   H     H_    0.931980 0.188607 0.318598 0.225641
H28   H     H_    0.949021 0.176775 0.413974 0.244006
C60   C     C_3   0.625647 0.785670 0.547484 -0.858592
H29   H     H_    0.561111 0.741508 0.487651 0.254172
H30   H     H_    0.623617 0.773835 0.601628 0.211165
H31   H     H_    0.638121 0.852520 0.564967 0.250068
O26   O     O_3   0.783992 0.922957 0.581891 -0.596891
C61   C     C_3   0.815164 0.955346 0.673398 0.052326
H32   H     H_    0.773135 0.911296 0.687928 0.138202
H33   H     H_    0.814396 0.016891 0.699966 0.164761
C62   C     C_3   0.907924 0.974629 0.722547 -0.362067
H34   H     H_    0.909174 0.913203 0.698026 0.208113
H35   H     H_    0.951121 0.021284 0.711257 0.249684
C63   C     C_3   0.942037 0.013547 0.821052 -0.936905
H36   H     H_    0.945727 0.077384 0.848431 0.259629
H37   H     H_    0.007937 0.023570 0.853880 0.265611
H38   H     H_    0.899482 0.969110 0.834819 0.264076
O27   O     O_3   0.658991 0.887771 0.906788 -0.618180
C64   C     C_3   0.707086 0.961636 0.903134 0.089729
H39   H     H_    0.694102 0.013668 0.932481 0.189053
H40   H     H_    0.691642 0.949321 0.835379 0.110438
C65   C     C_3   0.803591 0.996422 0.958706 -0.338871
H41   H     H_    0.818672 0.007299 0.025787 0.234099
H42   H     H_    0.820868 0.948155 0.929331 0.216700
C66   C     C_3   0.858285 0.081927 0.965568 -0.955484
H43   H     H_    0.841241 0.073952 0.899187 0.255649
H44   H     H_    0.927748 0.102826 0.001441 0.269406
H45   H     H_    0.847455 0.133215 0.001821 0.257612
C67   C     C_3   0.674199 0.774993 0.775297 -0.816233
H46   H     H_    0.671878 0.727328 0.719659 0.236395
H47   H     H_    0.713935 0.838120 0.782346 0.202566
H48   H     H_    0.708125 0.772551 0.835014 0.249855
C68   C     C_3   0.339574 0.740443 0.720817 -0.840933
H49   H     H_    0.342238 0.801746 0.726133 0.212942
H50   H     H_    0.286878 0.686775 0.654037 0.219723
H51   H     H_    0.322864 0.727191 0.768618 0.249397
C69   C     C_3   0.427763 0.216870 0.067035 -0.834720
H52   H     H_    0.402904 0.260134 0.057093 0.258089
H53   H     H_    0.480576 0.229788 0.050988 0.236167
H54   H     H_    0.374655 0.148630 0.020084 0.214460
O28   O     O_3   0.417369 0.337690 0.199014 -0.595821
C70   C     C_3   0.327082 0.287239 0.163063 0.064664
H55   H     H_    0.312052 0.280088 0.214178 0.163465
H56   H     H_    0.299452 0.221195 0.107877 0.139873
C71   C     C_3   0.284073 0.333011 0.128157 -0.304979
H57   H     H_    0.310658 0.398998 0.182450 0.226686
H58   H     H_    0.298738 0.339925 0.076844 0.218526
C72   C     C_3   0.186308 0.282515 0.088854 -0.953788
H59   H     H_    0.158311 0.215539 0.035634 0.262138
H60   H     H_    0.157104 0.315791 0.060956 0.260942
H61   H     H_    0.170147 0.279605 0.140376 0.248956
C73   C     C_3   0.573772 0.149624 0.297884 -0.832383
H62   H     H_    0.627449 0.158221 0.283390 0.221884
H63   H     H_    0.600269 0.171859 0.369055 0.227392
H64   H     H_    0.524493 0.079544 0.261218 0.244778
O29   O     O_3   0.406164 0.203566 0.658127 -0.635863
C74   C     C_3   0.376253 0.142943 0.570680 0.028582
H65   H     H_    0.307378 0.120799 0.528785 0.161672
H66   H     H_    0.383112 0.085429 0.566306 0.143029
C75   C     C_3   0.429185 0.186546 0.535398 -0.329680
H67   H     H_    0.424930 0.244912 0.540382 0.224614
H68   H     H_    0.498078 0.207367 0.575460 0.215832
C76   C     C_3   0.396659 0.125390 0.439581 -0.876306
H69   H     H_    0.402007 0.066981 0.432612 0.247880
H70   H     H_    0.436179 0.159313 0.416079 0.259727
H71   H     H_    0.328213 0.104994 0.398198 0.271724
O30   O     O_3   0.202492 0.899592 0.822867 -0.588698
C77   C     C_3   0.176821 0.814112 0.763292 0.074597
H72   H     H_    0.229814 0.812725 0.750682 0.138324
H73   H     H_    0.118888 0.787476 0.699635 0.144212
C78   C     C_3   0.154780 0.755969 0.802805 -0.303758
H74   H     H_    0.213770 0.778424 0.863436 0.226103
H75   H     H_    0.105484 0.760830 0.820575 0.219995
C79   C     C_3   0.119474 0.661201 0.738500 -0.943941
H76   H     H_    0.058681 0.636619 0.678731 0.258609
H77   H     H_    0.105547 0.621152 0.769830 0.259780
H78   H     H_    0.167350 0.654344 0.719424 0.258707
O31   O     O_3   0.263493 0.219619 0.351594 -0.614369
C80   C     C_3   0.185895 0.195758 0.279882 0.063659
H79   H     H_    0.199996 0.246788 0.260884 0.154260
H80   H     H_    0.132174 0.190790 0.294157 0.132046
C81   C     C_3   0.155797 0.109439 0.202467 -0.341318
H81   H     H_    0.206347 0.116853 0.183192 0.219273
H82   H     H_    0.146168 0.059011 0.222498 0.219654
C82   C     C_3   0.071259 0.079466 0.123658 -0.933458
H83   H     H_    0.019258 0.069815 0.140914 0.259461
H84   H     H_    0.051521 0.016885 0.068788 0.262582
H85   H     H_    0.079475 0.128087 0.101384 0.256736
O32   O     O_3   0.375140 0.413730 0.657879 -0.626333
C83   C     C_3   0.453206 0.416905 0.705003 0.115226
H86   H     H_    0.507330 0.477997 0.721119 0.182847
H87   H     H_    0.460356 0.362661 0.667581 0.160255
C84   C     C_3   0.463149 0.419135 0.790958 -0.359197
H88   H     H_    0.450933 0.469435 0.826633 0.221030
H89   H     H_    0.415728 0.354931 0.776539 0.239425
C85   C     C_3   0.553528 0.439280 0.849609 -0.913906
H90   H     H_    0.567183 0.389744 0.815175 0.265761
H91   H     H_    0.558009 0.438452 0.910376 0.255703
H92   H     H_    0.602748 0.504602 0.868046 0.252491

loop_
_geom_bond_atom_site_label_1
_geom_bond_atom_site_label_2
_ccdc_geom_bond_type
C11   C54   S    
C64   C65   S    
Cu3   Cu4   S    
C79   H76   S    
C30   O8    A    
C79   H78   S    
C82   H83   S    
C58   H23   S    
C43   C44   A    
C1    O1    A    
C62   H35   S    
C71   H57   S    
C31   O9    A    
C7    C8    A    
C74   H65   S    
C57   H21   S    
C22   C35   S    
C56   H20   S    
O28   C70   S    
C12   O18   A    
Cu5   O9    S    
C72   H59   S    
C10   O32   S    
Cu2   O23   S    
C68   H50   S    
C67   H46   S    
C38   C39   A    
C30   O7    A    
C83   H87   S    
C20   H2    S    
C74   C75   S    
C29   O6    A    
C16   C30   S    
C59   H26   S    
C80   H80   S    
C54   H15   S    
C6    C52   A    
C45   H4    S    
C84   C85   S    
C77   H72   S    
C17   C18   A    
C18   C19   A    
C23   C26   S    
Cu1   O1    S    
C53   H10   S    
C78   C79   S    
Cu3   O24   S    
C3    C12   S    
C70   C71   S    
C71   H58   S    
Cu3   O7    S    
C75   C76   S    
C6    C28   S    
C77   H73   S    
C16   C17   A    
C59   H27   S    
C54   H14   S    
Cu5   O16   S    
C62   H34   S    
C8    O31   S    
C81   H81   S    
C15   O25   S    
C69   H53   S    
C64   H39   S    
C33   O15   A    
C21   H3    S    
Cu3   O5    S    
C9    C32   S    
Cu6   O13   S    
C29   O5    A    
C59   H28   S    
C73   H63   S    
O31   C80   S    
Cu4   O8    S    
C23   O20   A    
C21   C22   A    
C70   H56   S    
C82   H84   S    
C36   C41   A    
Cu5   O11   S    
C55   H17   S    
O25   C56   S    
C67   H47   S    
C44   C46   A    
C31   O10   A    
C60   H30   S    
C2    C45   A    
C56   C57   S    
C29   C48   S    
C51   C52   A    
O26   C61   S    
C42   C69   S    
C24   C25   A    
C62   C63   S    
Cu6   O15   S    
Cu1   O20   S    
C65   H41   S    
C66   H45   S    
C39   C40   A    
Cu2   O19   S    
C35   O16   A    
C83   H86   S    
C8    C9    A    
C50   C51   A    
C25   C26   A    
Cu1   Cu2   S    
C32   O11   A    
C65   C66   S    
C53   H12   S    
C80   H79   S    
C46   H6    S    
C51   H8    S    
C63   H37   S    
O30   C77   S    
C34   O23   A    
C37   C38   A    
Cu6   O17   S    
C32   O13   A    
C27   C41   S    
C47   C48   A    
C85   H92   S    
C45   C49   A    
C35   O17   A    
Cu4   O4    S    
C54   H13   S    
C81   C82   S    
C53   H11   S    
C84   H88   S    
C58   H24   S    
C57   C58   S    
C42   C48   A    
C20   C21   A    
C69   H54   S    
C27   O24   A    
C25   O26   S    
C74   H66   S    
C2    C52   A    
C17   H1    S    
C61   C62   S    
C40   C41   A    
Cu6   O10   S    
C85   H91   S    
C49   C50   A    
C23   O21   A    
Cu1   O22   S    
C70   H55   S    
C1    O12   A    
C82   H85   S    
Cu5   O14   S    
C68   H51   S    
C63   H38   S    
C1    C13   S    
C42   C43   A    
C3    C4    A    
C67   H48   S    
O29   C74   S    
C71   C72   S    
C61   H33   S    
Cu2   O12   S    
C9    C10   A    
C60   H31   S    
C64   H40   S    
O32   C83   S    
C46   C47   A    
C73   H62   S    
C24   C60   S    
C79   H77   S    
Cu4   O6    S    
C33   C44   S    
C14   C19   A    
C72   H61   S    
C28   O3    A    
C4    C5    A    
C75   H67   S    
C19   C34   S    
C36   O27   S    
C18   C59   S    
C49   O29   S    
Cu1   O18   S    
C60   H29   S    
C31   C38   S    
C14   C55   S    
O27   C64   S    
C65   H42   S    
C39   H5    S    
C56   H19   S    
C77   C78   S    
C12   O19   A    
C37   C67   S    
C76   H71   S    
C66   H44   S    
C2    C3    A    
C34   O22   A    
C78   H74   S    
C66   H43   S    
Cu2   O21   S    
C47   C73   S    
C11   C13   A    
C83   C84   S    
Cu5   Cu6   S    
C5    C6    A    
C20   C26   A    
C72   H60   S    
C55   H16   S    
C84   H89   S    
C57   H22   S    
C40   C68   S    
C63   H36   S    
C58   H25   S    
C22   C24   A    
C55   H18   S    
C43   O28   S    
C50   H7    S    
C78   H75   S    
Cu3   O3    S    
C27   O2    A    
C10   C11   A    
C7    H9    S    
C76   H69   S    
C28   O4    A    
C80   C81   S    
C7    C13   A    
C85   H90   S    
C36   C37   A    
Cu4   O2    S    
C14   C15   A    
C61   H32   S    
C81   H82   S    
C73   H64   S    
C4    C53   S    
C69   H52   S    
C68   H49   S    
C33   O14   A    
C5    O30   S    
C15   C16   A    
C75   H68   S    
C76   H70   S    
