data_mof_unit_43600.cif
_audit_creation_date              2012-12-11T15:46:57-0500
_audit_creation_method            fapswitch 2.2
_symmetry_space_group_name_H-M    P1
_symmetry_Int_Tables_number       1
_space_group_crystal_system       triclinic
_cell_length_a                    11.543658
_cell_length_b                    11.538869
_cell_length_c                    19.553701
_cell_angle_alpha                 90.456736
_cell_angle_beta                  90.089522
_cell_angle_gamma                 59.951673
_cell_volume                      2254.44212376

loop_
_atom_site_label
_atom_site_type_symbol
_atom_type_description
_atom_site_fract_x
_atom_site_fract_y
_atom_site_fract_z
_atom_type_partial_charge
C1    C     C_R   0.640496 0.117284 0.599268 0.546237
C2    C     C_1   0.653085 0.149550 0.668645 0.003979
C3    C     C_R   0.655505 0.686454 0.188261 0.016896
C4    C     C_R   0.612531 0.745949 0.598637 0.545843
C5    C     C_R   0.531713 0.735534 0.220818 0.020796
C6    C     C_R   0.525027 0.743009 0.290544 0.046367
C7    C     C_R   0.757714 0.678052 0.297955 -0.177157
C8    C     C_R   0.764828 0.672823 0.226697 -0.173612
C9    C     C_3   0.425609 0.696285 0.217674 -0.270282
C10   C     C_3   0.422227 0.701225 0.294904 -0.265277
C11   C     C_R   0.638554 0.705224 0.330454 0.023557
C12   C     C_1   0.641356 0.703874 0.668009 0.004253
C13   C     C_R   0.158098 0.185694 0.188060 0.007319
C14   C     C_R   0.213109 0.254588 0.220675 0.021257
C15   C     C_R   0.237157 0.240066 0.289662 0.044899
C16   C     C_R   0.241054 0.145251 0.598202 0.546791
C17   C     C_R   0.175936 0.069358 0.294651 -0.160021
C18   C     C_R   0.151327 0.083646 0.224264 -0.155786
C19   C     C_3   0.168623 0.400560 0.223611 -0.279622
C20   C     C_3   0.192616 0.384937 0.299876 -0.265571
C21   C     C_R   0.209991 0.155166 0.328733 0.017447
C22   C     C_R   0.686906 0.193850 0.198978 -0.014688
C23   C     C_1   0.126664 0.198844 0.859293 0.003828
C24   C     C_R   0.793146 0.088682 0.233636 0.089216
C25   C     C_R   0.788365 0.072554 0.302698 -0.020917
C26   C     C_R   0.575540 0.277218 0.308356 -0.157203
C27   C     C_R   0.581313 0.293914 0.237711 -0.168150
C28   C     C_R   0.646062 0.113915 0.403487 0.548530
C29   C     C_3   0.861682 0.941569 0.219132 0.154170
C30   C     C_3   0.858867 0.923444 0.295687 -0.233218
C31   C     C_R   0.674214 0.159426 0.340014 0.004732
C32   C     C_R   0.081734 0.231195 0.928587 0.544770
C33   C     C_R   0.683892 0.604444 0.929506 0.544849
C34   C     C_1   0.171559 0.170240 0.727721 -0.030749
C35   C     C_R   0.708358 0.206700 0.930133 0.543618
C36   C     C_R   0.084821 0.234605 0.124610 0.547984
C37   C     C_R   0.681354 0.615199 0.124220 0.551025
C38   C     C_R   0.709931 0.212312 0.127962 0.540069
C39   C     C_R   0.615906 0.740380 0.401803 0.541987
C40   C     C_R   0.247497 0.139252 0.400232 0.544427
C41   C     C_1   0.670317 0.646500 0.860135 0.004684
C42   C     C_1   0.654845 0.683673 0.728446 -0.031094
C43   C     C_1   0.663423 0.666694 0.799701 -0.031043
C44   C     C_3   0.050320 0.756719 0.177425 -0.139319
C45   C     C_1   0.150149 0.182303 0.798947 -0.030765
C46   C     C_1   0.195371 0.160835 0.667396 0.003755
C47   C     C_1   0.678518 0.191360 0.860773 0.003958
C48   C     C_1   0.658611 0.167154 0.729031 -0.030804
C49   C     C_1   0.665647 0.180939 0.800333 -0.030657
Cr1   Cr    Cr6+3 0.404720 0.198220 0.499960 1.024481
Cr2   Cr    Cr6+3 0.698290 0.897110 0.500380 1.023509
Cr3   Cr    Cr6+3 0.396970 0.904720 0.499610 1.026604
Cr4   Cr    Cr6+3 0.926290 0.152010 0.028150 1.053845
Cr5   Cr    Cr6+3 0.921440 0.451830 0.027490 1.016742
Cr6   Cr    Cr6+3 0.626370 0.446880 0.028730 1.020366
H1    H     H_    0.844974 0.659234 0.327360 0.117365
H2    H     H_    0.859144 0.645000 0.202394 0.116872
H3    H     H_    0.460136 0.593910 0.198017 0.159558
H4    H     H_    0.331710 0.775598 0.194186 0.144098
H5    H     H_    0.325738 0.780405 0.316206 0.147305
H6    H     H_    0.461777 0.601109 0.318614 0.132758
H7    H     H_    0.160527 0.997845 0.322754 0.129053
H8    H     H_    0.114591 0.024005 0.199972 0.198460
H9    H     H_    0.061717 0.465398 0.210901 0.150648
H10   H     H_    0.993990 0.740062 0.135961 0.122046
H11   H     H_    0.056991 0.697434 0.223359 0.103826
H12   H     H_    0.238693 0.424004 0.196260 0.125506
H13   H     H_    0.153636 0.719573 0.158546 0.131376
H14   H     H_    0.274673 0.401784 0.316727 0.136561
H15   H     H_    0.099014 0.438731 0.330577 0.135757
H16   H     H_    0.489616 0.350775 0.336951 0.121828
H17   H     H_    0.501553 0.381188 0.213340 0.117539
H18   H     H_    0.797864 0.913432 0.188325 0.104090
H19   H     H_    0.793813 0.882745 0.310115 0.129946
H20   H     H_    0.959064 0.874635 0.320309 0.149369
O1    O     O_R   0.267750 0.231960 0.575440 -0.505095
O2    O     O_R   0.596230 0.579400 0.952760 -0.505211
O3    O     O_R   0.639160 0.321170 0.958690 -0.494625
O4    O     O_R   0.527290 0.186640 0.570530 -0.494970
O5    O     O_R   0.821370 0.124220 0.104400 -0.478929
O6    O     O_R   0.037020 0.167050 0.097880 -0.496946
O7    O     O_R   0.056310 0.349620 0.102920 -0.523158
O8    O     O_R   0.797790 0.564880 0.097980 -0.511748
O9    O     O_R   0.596000 0.584270 0.104310 -0.524534
O10   O     O_R   0.638950 0.325690 0.099180 -0.509809
O11   O     O_3   0.824700 0.350240 0.028120 -0.254742
O12   O     O_R   0.685950 0.784660 0.430010 -0.508817
O13   O     O_R   0.728110 0.003450 0.576380 -0.504560
O14   O     O_R   0.682980 0.789190 0.570500 -0.493672
O15   O     O_R   0.499300 0.771880 0.575540 -0.504956
O16   O     O_R   0.285350 0.030870 0.569740 -0.493372
O17   O     O_R   0.270960 0.227070 0.423890 -0.518593
O18   O     O_R   0.530270 0.182120 0.430040 -0.505897
O19   O     O_R   0.731320 0.998570 0.424830 -0.521141
O20   O     O_3   0.992276 0.893928 0.193642 -0.561025
O21   O     O_R   0.502510 0.767000 0.423980 -0.518183
O22   O     O_R   0.288320 0.026340 0.429250 -0.504582
O23   O     O_3   0.499990 0.000020 0.499980 -0.253759
O24   O     O_R   0.821590 0.119350 0.952850 -0.506105
O25   O     O_R   0.037230 0.162540 0.957390 -0.495307
O26   O     O_R   0.056530 0.344750 0.951370 -0.505802
O27   O     O_R   0.798000 0.560370 0.957490 -0.495280

loop_
_geom_bond_atom_site_label_1
_geom_bond_atom_site_label_2
_ccdc_geom_bond_type
C25   C31   A    
C23   C45   T    
Cr5   O26   S    
C44   H11   S    
C19   C20   S    
C32   O26   A    
C39   O12   A    
C35   C47   S    
Cr1   O4    S    
C7    C8    A    
C47   C49   T    
Cr4   O24   S    
C7    C11   A    
C26   C27   A    
C13   C18   A    
C28   O19   A    
C1    C2    S    
C5    C6    A    
C30   H19   S    
C18   H8    S    
C29   H18   S    
C22   C38   S    
Cr3   O22   S    
Cr4   O6    S    
C9    H3    S    
C24   C29   S    
C12   C42   T    
Cr3   O15   S    
C36   O7    A    
C37   O9    A    
C19   H12   S    
Cr4   O11   S    
C34   C46   T    
C4    C12   S    
C9    C10   S    
C19   H9    S    
C1    O13   A    
C26   C31   A    
C13   C14   A    
C26   H16   S    
C41   C43   T    
C20   H15   S    
C44   H10   S    
C7    H1    S    
C35   O24   A    
Cr5   O8    S    
C4    O15   A    
Cr4   O25   S    
C15   C20   S    
Cr1   O23   S    
C38   O10   A    
C33   O27   A    
C17   H7    S    
Cr4   O5    S    
C24   C25   A    
C13   C36   S    
C3    C8    A    
C16   C46   S    
C6    C11   A    
Cr5   O11   S    
Cr6   O3    S    
C2    C48   T    
C17   C21   A    
C32   O25   A    
C28   O18   A    
C9    H4    S    
Cr6   O10   S    
C10   H5    S    
C5    C9    S    
C29   C30   S    
Cr1   O1    S    
C8    H2    S    
C36   O6    A    
C17   C18   A    
C34   C45   S    
C40   O17   A    
C11   C39   S    
Cr1   O17   S    
C48   C49   S    
C22   C27   A    
C1    O4    A    
C22   C24   A    
C20   H14   S    
C44   H13   S    
C10   H6    S    
C42   C43   S    
Cr2   O12   S    
Cr5   O7    S    
C29   O20   S    
C4    O14   A    
C25   C30   S    
C16   O1    A    
C14   C19   S    
Cr5   O27   S    
C28   C31   S    
C3    C5    A    
Cr2   O13   S    
C6    C10   S    
Cr1   O18   S    
C35   O3    A    
C33   C41   S    
C23   C32   S    
Cr6   O11   S    
C40   O22   A    
C44   O20   S    
Cr2   O14   S    
C30   H20   S    
C33   O2    A    
C21   C40   S    
C38   O5    A    
Cr2   O23   S    
Cr6   O2    S    
Cr3   O23   S    
Cr3   O21   S    
C39   O21   A    
Cr2   O19   S    
C15   C21   A    
C3    C37   S    
C16   O16   A    
C14   C15   A    
C37   O8    A    
Cr3   O16   S    
Cr6   O9    S    
C27   H17   S    
