data_mof_unit_43254.cif
_audit_creation_date              2012-12-11T18:09:22-0500
_audit_creation_method            fapswitch 2.2
_symmetry_space_group_name_H-M    P1
_symmetry_Int_Tables_number       1
_space_group_crystal_system       triclinic
_cell_length_a                    8.248402
_cell_length_b                    12.769605
_cell_length_c                    19.063538
_cell_angle_alpha                 99.404799
_cell_angle_beta                  91.479928
_cell_angle_gamma                 98.736453
_cell_volume                      1955.32361034

loop_
_atom_site_label
_atom_site_type_symbol
_atom_type_description
_atom_site_fract_x
_atom_site_fract_y
_atom_site_fract_z
_atom_type_partial_charge
Ba1   Ba    Ba6+2 0.853180 0.547790 0.465300 1.668679
Ba2   Ba    Ba6+2 0.336650 0.452300 0.534710 1.657854
C1    C     C_3   0.698764 0.934378 0.309314 0.441036
C2    C     C_R   0.016962 0.542881 0.726339 0.054104
C3    C     C_R   0.855679 0.404916 0.808915 -0.169116
C4    C     C_3   0.107493 0.755038 0.267167 0.358900
C5    C     C_R   0.784500 0.414689 0.743475 0.005343
C6    C     C_R   0.350907 0.573110 0.184118 -0.173438
C7    C     C_R   0.415208 0.567482 0.251464 0.024039
C8    C     C_R   0.133319 0.430967 0.197824 -0.045312
C9    C     C_R   0.171641 0.452454 0.272063 0.041771
C10   C     C_R   0.983521 0.485253 0.843695 0.006995
C11   C     C_R   0.875405 0.473669 0.699253 -0.240681
C12   C     C_3   0.626482 0.821108 0.315869 0.337550
C13   C     C_R   0.213137 0.498704 0.151628 0.011550
C14   C     C_R   0.318372 0.516377 0.297497 -0.258279
C15   C     C_R   0.760928 0.420487 0.957336 -0.087942
C16   C     C_3   0.156454 0.782571 0.194409 0.332482
C17   C     C_R   0.658050 0.373727 0.003860 -0.061237
C18   C     C_R   0.708065 0.388527 0.074661 -0.039373
C19   C     C_R   0.863461 0.443418 0.096647 -0.052754
C20   C     C_R   0.985585 0.463530 0.048073 0.043814
C21   C     C_R   0.930897 0.456500 0.974770 0.041426
C22   C     C_R   0.155017 0.493912 0.072127 0.018001
C23   C     C_3   0.463301 0.289733 0.316942 0.329276
C24   C     C_R   0.267191 0.521177 0.018950 0.042924
C25   C     C_R   0.211581 0.519711 0.946372 0.027050
C26   C     C_R   0.042208 0.488028 0.922443 -0.006544
C27   C     C_R   0.438620 0.547557 0.035027 -0.073522
C28   C     C_3   0.235194 0.789348 0.620202 0.280446
C29   C     C_R   0.544994 0.593924 0.989535 -0.060349
C30   C     C_R   0.492604 0.590695 0.920120 -0.055046
C31   C     C_R   0.332545 0.545353 0.898042 -0.072312
C32   C     C_R   0.768128 0.180455 0.521541 -0.277943
C33   C     C_R   0.423658 0.809520 0.474268 -0.306033
C34   C     C_3   0.503338 0.282655 0.238202 0.332558
C35   C     C_R   0.399049 0.984010 0.446796 -0.073511
C36   C     C_R   0.333275 0.876625 0.444701 0.000132
C37   C     C_R   0.574828 0.850035 0.511149 0.049482
C38   C     C_R   0.640846 0.961298 0.516240 -0.060947
C39   C     C_R   0.551837 0.028414 0.482282 -0.053089
C40   C     C_3   0.231961 0.909438 0.633222 -0.329103
C41   C     C_R   0.618662 0.138129 0.484459 0.037753
C42   C     C_R   0.858117 0.115814 0.553468 -0.007053
C43   C     C_R   0.793772 0.007412 0.552379 -0.094632
C44   C     C_3   0.976719 0.204313 0.377463 0.282526
C45   C     C_3   0.065770 0.223379 0.728464 0.352477
C46   C     C_3   0.061648 0.106725 0.365456 -0.263486
C47   C     C_3   0.724154 0.700649 0.678086 0.308227
C48   C     C_3   0.746156 0.732844 0.758560 -0.387038
C49   C     C_3   0.092696 0.191708 0.800958 -0.343938
C50   C     C_3   0.556349 0.163133 0.692375 0.341406
C51   C     C_3   0.608459 0.085929 0.738306 -0.402019
C52   C     C_R   0.052418 0.561756 0.800862 -0.147021
H1    H     H_    0.666062 0.811086 0.370101 -0.023757
H2    H     H_    0.837284 0.673625 0.657263 0.008104
H3    H     H_    0.619758 0.633573 0.665850 0.081102
H4    H     H_    0.687464 0.990731 0.358794 -0.155095
H5    H     H_    0.856505 0.795240 0.772885 0.134081
H6    H     H_    0.761354 0.661854 0.783215 0.057876
H7    H     H_    0.636260 0.765094 0.779867 0.131294
H8    H     H_    0.490065 0.809615 0.310169 -0.070383
H9    H     H_    0.332074 0.295136 0.323367 -0.024672
H10   H     H_    0.536945 0.366121 0.344335 -0.013057
H11   H     H_    0.509246 0.363852 0.224152 -0.111332
H12   H     H_    0.304916 0.947674 0.682814 0.119953
H13   H     H_    0.626834 0.259836 0.230381 0.091778
H14   H     H_    0.829164 0.933955 0.300379 0.078055
H15   H     H_    0.274946 0.836885 0.200033 0.115773
H16   H     H_    0.142321 0.302819 0.727855 0.083173
H17   H     H_    0.933980 0.228929 0.720549 -0.068456
H18   H     H_    0.223081 0.182787 0.809742 0.159388
H19   H     H_    0.061863 0.254383 0.843774 0.072946
H20   H     H_    0.013560 0.114170 0.803907 0.118648
H21   H     H_    0.666265 0.195410 0.665400 -0.073303
H22   H     H_    0.465076 0.118040 0.650192 0.073919
H23   H     H_    0.283869 0.945984 0.588264 0.073616
H24   H     H_    0.705910 0.129140 0.778434 0.112541
H25   H     H_    0.656675 0.019371 0.704456 0.096480
H26   H     H_    0.987472 0.701913 0.261366 0.105261
H27   H     H_    0.502524 0.052021 0.766757 0.135556
H28   H     H_    0.139284 0.632128 0.823536 0.073607
H29   H     H_    0.805459 0.336442 0.832453 0.069047
H30   H     H_    0.411423 0.636728 0.158599 0.104246
H31   H     H_    0.039376 0.363257 0.177761 0.121341
H32   H     H_    0.831038 0.470214 0.644891 0.064220
H33   H     H_    0.360855 0.522606 0.352422 0.061549
H34   H     H_    0.103609 0.924390 0.638997 0.139722
H35   H     H_    0.698465 0.434458 0.910645 0.079825
H36   H     H_    0.531607 0.340561 0.987198 0.077076
H37   H     H_    0.621396 0.366973 0.113291 0.088691
H38   H     H_    0.201945 0.710137 0.284476 -0.151923
H39   H     H_    0.884386 0.471768 0.152018 0.109012
H40   H     H_    0.497280 0.527144 0.080499 0.085356
H41   H     H_    0.673582 0.619569 0.005408 0.097584
H42   H     H_    0.579610 0.614721 0.881959 0.082509
H43   H     H_    0.308360 0.528441 0.842260 0.126611
H44   H     H_    0.328954 0.031747 0.420642 0.100472
H45   H     H_    0.843860 0.177755 0.381581 0.004135
H46   H     H_    0.865111 0.960610 0.579342 0.099743
H47   H     H_    0.818497 0.264215 0.523115 0.055884
H48   H     H_    0.372587 0.725556 0.471034 0.070156
H49   H     H_    0.171099 0.708302 0.158539 -0.057030
H50   H     H_    0.362671 0.775066 0.612359 0.004045
H51   H     H_    0.155838 0.753415 0.571666 0.067114
H52   H     H_    0.526832 0.911595 0.127658 0.384319
H53   H     H_    0.352665 0.252395 0.076438 0.334451
H54   H     H_    0.776276 0.770312 0.092829 0.369889
H55   H     H_    0.027600 0.255292 0.428292 0.042845
H56   H     H_    0.023875 0.059312 0.312650 0.197670
H57   H     H_    0.035457 0.058372 0.408187 0.071053
H58   H     H_    0.194218 0.131782 0.362363 0.150237
O1    O     O_2   0.875110 0.423180 0.326290 -0.478565
O2    O     O_2   0.193152 0.124671 0.545907 -0.480995
O3    O     O_3   0.111382 0.144844 0.675781 -0.596170
O4    O     O_3   0.123410 0.433040 0.414950 -0.505919
O5    O     O_3   0.577950 0.634370 0.536140 -0.494775
O6    O     O_2   0.341900 0.231310 0.465740 -0.482139
O7    O     O_3   0.502310 0.200192 0.344669 -0.594247
O8    O     O_2   0.461097 0.447761 0.758188 -0.511013
O9    O     O_3   0.482208 0.241679 0.735102 -0.583362
O10   O     O_3   0.661010 0.625070 0.369680 -0.485129
O11   O     O_2   0.748506 0.550996 0.243791 -0.508228
O12   O     O_3   0.693751 0.789771 0.648664 -0.640517
O13   O     O_3   0.996993 0.252492 0.316881 -0.569258
O14   O     O_3   0.691082 0.750426 0.263499 -0.538813
O15   O     O_2   0.847800 0.768730 0.534310 -0.470996
O16   O     O_3   0.082250 0.684470 0.405440 -0.484643
O17   O     O_2   0.994695 0.875216 0.446222 -0.498476
O18   O     O_2   0.439809 0.005410 0.259603 -0.270291
O19   O     O_2   0.710978 0.075399 0.220366 -0.229633
O20   O     O_3   0.577235 0.880272 0.165405 -0.499534
O21   O     O_2   0.212388 0.145984 0.215422 -0.195835
O22   O     O_2   0.432216 0.105030 0.136885 -0.217425
O23   O     O_3   0.100124 0.848561 0.316787 -0.604997
O24   O     O_3   0.282651 0.262013 0.117665 -0.539773
O25   O     O_2   0.978622 0.942534 0.190044 -0.181666
O26   O     O_2   0.075667 0.857545 0.078154 -0.265482
O27   O     O_3   0.833907 0.749638 0.133383 -0.502782
O28   O     O_2   0.314600 0.576860 0.673750 -0.474878
O29   O     O_3   0.066300 0.567050 0.585060 -0.499144
O30   O     O_3   0.528700 0.375020 0.630330 -0.458460
O31   O     O_3   0.179487 0.748393 0.680418 -0.630207
O32   O     O_3   0.611760 0.365720 0.463870 -0.484471
O33   O     O_3   0.107460 0.315620 0.594570 -0.484777
P1    P     P_3+3 0.042930 0.392230 0.337410 1.004466
P2    P     P_3+3 0.672230 0.754900 0.555730 0.963080
P3    P     P_3+3 0.126805 0.822112 0.403910 0.955299
P4    P     P_3+3 0.146790 0.607860 0.662600 0.972859
P5    P     P_3+3 0.065474 0.175618 0.592124 0.950953
P6    P     P_3+3 0.627907 0.621230 0.279802 0.977612
P7    P     P_3+3 0.520584 0.230765 0.438310 0.951963
P8    P     P_3+3 0.565856 0.369079 0.718939 0.951084
S1    S     S_3+6 0.603509 0.977814 0.237357 0.001144
S2    S     S_3+6 0.354131 0.193986 0.177017 0.003816
S3    S     S_3+6 0.009058 0.837964 0.148332 0.011297

loop_
_geom_bond_atom_site_label_1
_geom_bond_atom_site_label_2
_ccdc_geom_bond_type
C46   H56   S    
C44   H45   S    
C8    H31   S    
Ba2   O32   S    
C44   O13   S    
C1    H14   S    
Ba1   O16   S    
C33   H48   S    
Ba2   O6    S    
C34   H13   S    
O29   P4    S    
C25   C31   A    
Ba2   O33   S    
H52   O20   S    
C2    P4    S    
C24   C25   A    
C15   C21   A    
O9    P8    S    
C10   C26   S    
C48   H5    S    
C51   H25   S    
C7    C14   A    
C22   C24   A    
O13   P1    S    
C27   H40   S    
C3    H29   S    
C4    H38   S    
C12   H8    S    
C47   H3    S    
C51   H27   S    
Ba1   Ba2   S    
C23   H9    S    
C2    C11   A    
Ba1   O10   S    
O17   P3    D    
Ba2   O4    S    
C7    P6    S    
C17   C18   A    
C6    C7    A    
C11   H32   S    
C14   H33   S    
O20   S1    S    
C49   H20   S    
Ba1   O4    S    
O33   P5    S    
C50   H21   S    
Ba2   P4    S    
C12   H1    S    
O21   S2    D    
C19   C20   A    
C39   C41   A    
Ba1   P1    S    
Ba1   O1    S    
C23   O7    S    
C35   H44   S    
C18   H37   S    
Ba2   O5    S    
C44   C46   S    
C38   C43   A    
C4    C16   S    
O12   P2    S    
O11   P6    D    
C32   H47   S    
C32   C41   A    
Ba1   O15   S    
C33   C36   A    
C32   C42   A    
C3    C10   A    
C37   C38   A    
C3    C5    A    
O24   S2    S    
C34   H11   S    
O16   P3    S    
C45   C49   S    
C47   O12   S    
C1    S1    S    
C42   P5    S    
C28   O31   S    
O25   S3    D    
C23   H10   S    
O1    P1    D    
C33   C37   A    
C46   H58   S    
C45   H16   S    
C35   C36   A    
C50   O9    S    
C4    H26   S    
C29   C30   A    
C5    P8    S    
O31   P4    S    
C45   H17   S    
C15   H35   S    
O18   S1    D    
Ba1   O5    S    
C21   C26   A    
O6    P7    D    
C36   P3    S    
C45   O3    S    
C1    C12   S    
C40   H23   S    
C13   C22   S    
C30   H42   S    
O23   P3    S    
C6    C13   A    
C28   H51   S    
Ba2   O30   S    
C20   C22   A    
Ba1   P2    S    
C4    O23   S    
C40   H34   S    
C49   H18   S    
O2    P5    D    
C28   H50   S    
C52   H28   S    
C16   S3    S    
C50   C51   S    
C40   H12   S    
O26   S3    D    
O7    P7    S    
Ba2   O29   S    
O22   S2    D    
C38   C39   A    
C2    C52   A    
C8    C13   A    
C6    H30   S    
O19   S1    D    
C42   C43   A    
C49   H19   S    
C50   H22   S    
C43   H46   S    
H54   O27   S    
C9    P1    S    
C47   H2    S    
C12   O14   S    
O5    P2    S    
C48   H6    S    
O10   P6    S    
C51   H24   S    
Ba2   O28   S    
C27   C29   A    
Ba1   O32   S    
C30   C31   A    
O4    P1    S    
C19   H39   S    
O27   S3    S    
C16   H15   S    
C29   H41   S    
O3    P5    S    
O8    P8    D    
C15   C17   A    
O14   P6    S    
C31   H43   S    
C16   H49   S    
O30   P8    S    
C35   C39   A    
C9    C14   A    
Ba1   O29   S    
C8    C9    A    
C23   C34   S    
C1    H4    S    
C5    C11   A    
C46   H57   S    
C18   C19   A    
C24   C27   A    
O32   P7    S    
C47   C48   S    
C44   H55   S    
C37   P2    S    
C25   C26   A    
C17   H36   S    
C48   H7    S    
C20   C21   A    
C28   C40   S    
O28   P4    D    
C10   C52   A    
C41   P7    S    
C34   S2    S    
O15   P2    D    
H53   O24   S    
