data_mof_unit_10738.cif
_audit_creation_date              2012-12-10T17:11:45-0500
_audit_creation_method            fapswitch 2.2
_symmetry_space_group_name_H-M    P1
_symmetry_Int_Tables_number       1
_space_group_crystal_system       triclinic
_cell_length_a                    19.09363
_cell_length_b                    10.519532
_cell_length_c                    10.054871
_cell_angle_alpha                 86.252764
_cell_angle_beta                  89.965197
_cell_angle_gamma                 89.740213
_cell_volume                      2015.24316723

loop_
_atom_site_label
_atom_site_type_symbol
_atom_type_description
_atom_site_fract_x
_atom_site_fract_y
_atom_site_fract_z
_atom_type_partial_charge
C1    C     C_R   0.509393 0.262722 0.504748 0.889758
C2    C     C_R   0.854251 0.549124 0.483337 -0.014492
C3    C     C_2   0.547528 0.934123 0.413396 -0.197078
C4    C     C_R   0.365929 0.503275 0.499780 0.898350
C5    C     C_2   0.497417 0.873117 0.483771 -0.344185
C6    C     C_2   0.548076 0.071541 0.408952 -0.208723
C7    C     C_2   0.536041 0.133076 0.519658 0.008101
C8    C     C_2   0.522059 0.594243 0.917661 -0.165970
C9    C     C_2   0.529661 0.588676 0.067035 0.190639
C10   C     C_R   0.498167 0.738382 0.495734 0.915771
C11   C     C_R   0.634312 0.501716 0.499838 0.848672
C12   C     C_R   0.290618 0.516559 0.499096 -0.111776
C13   C     C_R   0.258072 0.635848 0.514793 0.143707
C14   C     C_R   0.184031 0.640242 0.525925 0.127497
C15   C     C_R   0.145569 0.527279 0.508580 -0.029764
C16   C     C_R   0.179310 0.410300 0.489501 0.174886
C17   C     C_R   0.251862 0.406532 0.486588 -0.273754
C18   C     C_3   0.302807 0.755911 0.513506 -0.429442
C19   C     C_3   0.325349 0.799127 0.371685 -0.859938
C20   C     C_3   0.551781 0.074615 0.660667 -0.384727
C21   C     C_3   0.614587 0.137298 0.723444 -0.863993
C22   C     C_3   0.574248 0.693104 0.118271 -0.345402
C23   C     C_R   0.929867 0.549405 0.489419 0.301932
C24   C     C_3   0.537807 0.822963 0.099144 -0.890260
C25   C     C_3   0.145502 0.761983 0.559265 -0.399147
C26   C     C_3   0.132429 0.851677 0.436097 -0.848456
C27   C     C_3   0.139865 0.287189 0.474087 -0.408258
C28   C     C_3   0.138143 0.254253 0.328601 -0.842867
C29   C     C_3   0.849692 0.765027 0.581770 -0.413544
C30   C     C_3   0.865202 0.856788 0.461520 -0.878948
C31   C     C_3   0.693658 0.734573 0.595740 -0.386962
C32   C     C_3   0.686743 0.723038 0.747628 -0.844237
C33   C     C_3   0.722548 0.301345 0.389653 -0.375432
C34   C     C_R   0.069945 0.533134 0.501840 0.291632
C35   C     C_3   0.758991 0.182031 0.452316 -0.901276
C36   C     C_R   0.813775 0.644834 0.538840 0.168650
C37   C     C_R   0.740102 0.629397 0.545187 0.093516
C38   C     C_R   0.709970 0.516849 0.497935 -0.143539
C39   C     C_R   0.751942 0.423583 0.440677 0.123285
C40   C     C_R   0.823565 0.443946 0.430659 -0.213068
H1    H     H_    0.458322 0.922806 0.539797 0.145540
H2    H     H_    0.349755 0.738880 0.577267 0.199483
H3    H     H_    0.662287 0.119694 0.664761 0.262724
H4    H     H_    0.607105 0.241290 0.729147 0.284559
H5    H     H_    0.622611 0.094412 0.826206 0.238778
H6    H     H_    0.504876 0.084191 0.724788 0.200738
H7    H     H_    0.565004 0.971909 0.663289 0.229805
H8    H     H_    0.539253 0.679387 0.860724 0.181732
H9    H     H_    0.523844 0.846175 0.993248 0.242368
H10   H     H_    0.489380 0.824385 0.160200 0.287200
H11   H     H_    0.573682 0.898603 0.129125 0.239439
H12   H     H_    0.546991 0.120623 0.310503 0.162763
H13   H     H_    0.588819 0.674231 0.223447 0.253995
H14   H     H_    0.624439 0.697073 0.062071 0.173475
H15   H     H_    0.181813 0.895786 0.399007 0.262731
H16   H     H_    0.107856 0.799631 0.355750 0.271562
H17   H     H_    0.096486 0.929496 0.462302 0.244248
H18   H     H_    0.094095 0.740183 0.606390 0.215888
H19   H     H_    0.173414 0.811752 0.637156 0.186993
H20   H     H_    0.111697 0.331448 0.266578 0.273168
H21   H     H_    0.192136 0.240871 0.290609 0.257061
H22   H     H_    0.108718 0.164363 0.319936 0.245253
H23   H     H_    0.490040 0.416418 0.904303 0.155907
H24   H     H_    0.165707 0.208256 0.534856 0.200685
H25   H     H_    0.085303 0.292084 0.511518 0.213997
H26   H     H_    0.278583 0.316731 0.474489 0.147261
H27   H     H_    0.815940 0.884188 0.408150 0.255164
H28   H     H_    0.890088 0.944245 0.495371 0.253065
H29   H     H_    0.901513 0.812255 0.391697 0.272684
H30   H     H_    0.818504 0.816213 0.654020 0.215874
H31   H     H_    0.899195 0.741187 0.635482 0.216918
H32   H     H_    0.663269 0.630334 0.781555 0.278475
H33   H     H_    0.738385 0.730053 0.796810 0.242905
H34   H     H_    0.467697 0.437804 0.106909 0.146199
H35   H     H_    0.652504 0.800709 0.780324 0.238687
H36   H     H_    0.713459 0.830330 0.562155 0.202483
H37   H     H_    0.640708 0.733213 0.551507 0.198418
H38   H     H_    0.811282 0.169179 0.406706 0.256097
H39   H     H_    0.765576 0.188906 0.561292 0.267229
H40   H     H_    0.727245 0.096455 0.434808 0.252144
H41   H     H_    0.665850 0.290429 0.410406 0.211416
H42   H     H_    0.729172 0.304008 0.279712 0.206627
H43   H     H_    0.856667 0.374016 0.386551 0.166288
H44   H     H_    0.586547 0.883758 0.358269 0.161773
H45   H     H_    0.351361 0.893294 0.371858 0.242036
H46   H     H_    0.362724 0.730714 0.331415 0.281450
H47   H     H_    0.279455 0.807909 0.304063 0.262779
H48   H     H_    0.275792 0.836946 0.555889 0.211168
N1    N     N_R   0.037649 0.552612 0.382348 -0.165444
N2    N     N_R   0.968292 0.559822 0.376080 -0.178028
N3    N     N_R   0.962219 0.527894 0.608644 -0.183003
N4    N     N_R   0.031499 0.520213 0.614908 -0.195011
N5    N     N_2   0.500750 0.501330 0.852150 -0.206479
N6    N     N_2   0.500770 0.501360 0.147810 -0.211094
O1    O     O_R   0.499990 0.319060 0.613040 -0.606186
O2    O     O_R   0.500010 0.319100 0.386900 -0.627445
O3    O     O_R   0.398130 0.499970 0.613110 -0.607528
O4    O     O_R   0.398150 0.500010 0.386970 -0.603522
O5    O     O_R   0.499990 0.680900 0.613100 -0.617121
O6    O     O_R   0.500010 0.680940 0.386960 -0.611295
O7    O     O_R   0.601850 0.499990 0.613030 -0.601120
O8    O     O_R   0.601870 0.500030 0.386890 -0.643277
Zn1   Zn    Zn3+2 0.499990 0.499970 0.650990 0.922618
Zn2   Zn    Zn3+2 0.500010 0.500030 0.349010 0.915551

loop_
_geom_bond_atom_site_label_1
_geom_bond_atom_site_label_2
_ccdc_geom_bond_type
O5    Zn1   S    
C4    O4    A    
H34   N6    S    
C19   H46   S    
C26   H15   S    
N5    Zn1   S    
C32   H35   S    
C22   H14   S    
C29   C36   S    
C17   H26   S    
C33   C39   S    
C13   C18   S    
C36   C37   A    
C37   C38   A    
C19   H47   S    
C18   H2    S    
C38   C39   A    
C9    C22   S    
C15   C16   A    
C35   H40   S    
O6    Zn2   S    
C18   C19   S    
C21   H3    S    
C8    C9    S    
C12   C17   A    
C4    C12   S    
C33   H42   S    
C15   C34   S    
C30   H27   S    
C28   H21   S    
C3    C6    S    
C16   C27   S    
N6    Zn2   S    
O7    Zn1   S    
C4    O3    A    
C40   H43   S    
O1    Zn1   S    
C31   H37   S    
C22   H13   S    
C21   H5    S    
C28   H20   S    
C24   H10   S    
C32   H32   S    
N3    N4    A    
C16   C17   A    
C3    H44   S    
C19   H45   S    
C25   C26   S    
C18   H48   S    
C31   C37   S    
C11   C38   S    
C10   O6    A    
C8    H8    S    
C29   C30   S    
C27   H25   S    
C21   H4    S    
C31   C32   S    
C1    O1    A    
C23   N2    A    
C11   O7    A    
C12   C13   A    
O8    Zn2   S    
O3    Zn1   S    
O2    Zn2   S    
C23   N3    A    
C25   H18   S    
C39   C40   A    
C30   H29   S    
C29   H30   S    
C2    C36   A    
C24   H9    S    
C5    H1    S    
C1    C7    S    
C8    N5    D    
C29   H31   S    
C3    C5    D    
C26   H16   S    
C6    C7    D    
H23   N5    S    
C35   H38   S    
C34   N1    A    
C5    C10   S    
C30   H28   S    
C31   H36   S    
C24   H11   S    
C1    O2    A    
O4    Zn2   S    
C35   H39   S    
C33   C35   S    
C11   O8    A    
C22   C24   S    
C14   C25   S    
C10   O5    A    
C26   H17   S    
C34   N4    A    
C20   H7    S    
C27   H24   S    
C2    C40   A    
C20   C21   S    
C7    C20   S    
C2    C23   S    
C14   C15   A    
C25   H19   S    
C6    H12   S    
N1    N2    A    
C13   C14   A    
C33   H41   S    
C9    N6    D    
C32   H33   S    
C20   H6    S    
C27   C28   S    
C28   H22   S    
