data_mof_unit_28383.cif
_audit_creation_date              2012-10-26T20:51:57-0400
_audit_creation_method            fapswitch 2.2
_symmetry_space_group_name_H-M    P1
_symmetry_Int_Tables_number       1
_space_group_crystal_system       triclinic
_cell_length_a                    8.771935
_cell_length_b                    15.977223
_cell_length_c                    14.764639
_cell_angle_alpha                 90.205571
_cell_angle_beta                  96.971748
_cell_angle_gamma                 89.803483
_cell_volume                      2053.95873034

loop_
_atom_site_label
_atom_site_type_symbol
_atom_type_description
_atom_site_fract_x
_atom_site_fract_y
_atom_site_fract_z
_atom_type_partial_charge
C1    C     C_R   0.499216 0.340946 0.499761 0.532202
C2    C     C_R   0.795983 0.498452 0.522016 0.562031
C3    C     C_2   0.042764 0.519665 0.470840 -0.008252
C4    C     C_2   0.957235 0.480351 0.529189 -0.008400
C5    C     C_R   0.596746 0.956093 0.567240 0.247090
C6    C     C_R   0.404139 0.043917 0.432927 0.247480
C7    C     C_R   0.501850 0.912591 0.499229 -0.055931
C8    C     C_R   0.499007 0.087428 0.500942 -0.055723
C9    C     C_R   0.406049 0.956150 0.431552 0.241716
C10   C     C_R   0.594976 0.043875 0.568566 0.241720
C11   C     C_1   0.501486 0.822960 0.500203 0.000359
C12   C     C_R   0.500877 0.659057 0.500248 0.532476
C13   C     C_1   0.499195 0.177052 0.499916 0.000333
C14   C     C_1   0.499174 0.252029 0.499474 -0.033035
C15   C     C_1   0.501235 0.747980 0.500576 -0.031875
C16   C     C_R   0.596653 0.555793 0.959732 -0.015708
C17   C     C_R   0.405691 0.442277 0.040358 -0.017211
C18   C     C_3   0.985140 0.592095 0.406969 -0.284212
C19   C     C_3   0.088798 0.669292 0.418852 -0.430441
C20   C     C_3   0.014876 0.407968 0.593125 -0.284521
C21   C     C_3   0.911152 0.330788 0.581387 -0.430696
C22   C     C_3   0.616579 0.119843 0.701399 -0.004387
C23   C     C_R   0.503268 0.499391 0.903113 -0.040984
C24   C     C_3   0.730344 0.138196 0.785204 -0.372833
C25   C     C_3   0.385441 0.881100 0.298261 -0.003946
C26   C     C_3   0.271427 0.860445 0.215271 -0.372362
C27   C     C_3   0.628768 0.888609 0.704395 0.003164
C28   C     C_3   0.721405 0.818424 0.754252 -0.368143
C29   C     C_3   0.372451 0.111941 0.295941 0.002734
C30   C     C_3   0.284574 0.185397 0.249404 -0.367919
C31   C     C_3   0.604345 0.682158 0.129718 -0.014852
C32   C     C_3   0.708900 0.739659 0.191498 -0.368268
C33   C     C_3   0.398276 0.316927 0.868413 -0.011899
C34   C     C_R   0.498634 0.498921 0.097004 -0.042467
C35   C     C_3   0.291736 0.258179 0.809510 -0.368306
C36   C     C_3   0.703531 0.615053 0.917898 -0.259398
C37   C     C_3   0.850057 0.570192 0.898605 -0.417401
C38   C     C_3   0.297711 0.382913 0.081144 -0.252763
C39   C     C_3   0.135432 0.418911 0.073267 -0.412160
C40   C     C_R   0.410592 0.441820 0.944164 0.252323
C41   C     C_R   0.591429 0.556444 0.055925 0.251776
C42   C     C_1   0.501044 0.499964 0.802643 0.149521
C43   C     C_1   0.499554 0.499430 0.197390 0.150615
C44   C     C_R   0.204014 0.501550 0.477989 0.561976
Cu1   Cu    Cu3+1 0.500040 0.500000 0.589220 0.953978
Cu2   Cu    Cu3+1 0.499960 0.500000 0.410780 0.955771
H1    H     H_    0.112356 0.686805 0.492093 0.160938
H2    H     H_    0.022069 0.430038 0.664969 0.167241
H3    H     H_    0.527331 0.076608 0.721835 0.099478
H4    H     H_    0.560454 0.179805 0.678702 0.137483
H5    H     H_    0.818350 0.183252 0.767719 0.156822
H6    H     H_    0.669111 0.165809 0.839794 0.078147
H7    H     H_    0.788039 0.079437 0.810832 0.157588
H8    H     H_    0.445490 0.822244 0.321171 0.136848
H9    H     H_    0.471523 0.925792 0.276849 0.100053
H10   H     H_    0.210044 0.918103 0.189416 0.157620
H11   H     H_    0.333122 0.833576 0.160485 0.078548
H12   H     H_    0.198523 0.657599 0.390804 0.181056
H13   H     H_    0.186478 0.814044 0.233793 0.156973
H14   H     H_    0.509387 0.865320 0.685261 0.115812
H15   H     H_    0.625639 0.942190 0.752175 0.135128
H16   H     H_    0.840902 0.839488 0.775725 0.160820
H17   H     H_    0.668147 0.800333 0.815787 0.077843
H18   H     H_    0.723768 0.762987 0.708801 0.167241
H19   H     H_    0.370026 0.059598 0.246176 0.136091
H20   H     H_    0.493950 0.132062 0.314673 0.114456
H21   H     H_    0.286991 0.239436 0.297113 0.168061
H22   H     H_    0.338303 0.204283 0.188304 0.078216
H23   H     H_    0.031177 0.722864 0.380857 0.144967
H24   H     H_    0.163401 0.167418 0.227741 0.160552
H25   H     H_    0.503231 0.666845 0.165377 0.134061
H26   H     H_    0.563899 0.716546 0.065764 0.110751
H27   H     H_    0.811598 0.756142 0.158139 0.151895
H28   H     H_    0.646406 0.798003 0.205151 0.081985
H29   H     H_    0.746448 0.707992 0.257348 0.162648
H30   H     H_    0.445232 0.282981 0.931486 0.110027
H31   H     H_    0.495031 0.333427 0.829629 0.134056
H32   H     H_    0.247628 0.289410 0.744409 0.161716
H33   H     H_    0.355019 0.200622 0.794018 0.081868
H34   H     H_    0.978048 0.570102 0.335103 0.169285
H35   H     H_    0.193308 0.240430 0.846102 0.151971
H36   H     H_    0.913057 0.546743 0.963341 0.164956
H37   H     H_    0.823264 0.516828 0.851018 0.156785
H38   H     H_    0.925169 0.614574 0.867114 0.137373
H39   H     H_    0.644710 0.642162 0.853736 0.130168
H40   H     H_    0.736723 0.669024 0.963404 0.172042
H41   H     H_    0.135550 0.480512 0.108437 0.153976
H42   H     H_    0.088930 0.426629 0.000417 0.181448
H43   H     H_    0.059509 0.375568 0.105558 0.133100
H44   H     H_    0.294779 0.321182 0.046367 0.157226
H45   H     H_    0.870295 0.615641 0.418423 0.169901
H46   H     H_    0.337060 0.369828 0.154020 0.133620
H47   H     H_    0.801516 0.342528 0.609519 0.180414
H48   H     H_    0.887420 0.313224 0.508168 0.161326
H49   H     H_    0.968805 0.277227 0.619386 0.144722
H50   H     H_    0.129678 0.384378 0.581638 0.170454
N1    N     N_1   0.500050 0.499980 0.276720 -0.198665
N2    N     N_1   0.499950 0.500020 0.723280 -0.199362
O1    O     O_R   0.500070 0.380310 0.575330 -0.509091
O2    O     O_3   0.304864 0.914148 0.367808 -0.518446
O3    O     O_3   0.700871 0.912927 0.628083 -0.513911
O4    O     O_3   0.300118 0.087075 0.372002 -0.514073
O5    O     O_3   0.687340 0.609414 0.110943 -0.560361
O6    O     O_3   0.314485 0.388714 0.889402 -0.561062
O7    O     O_R   0.499930 0.619690 0.424670 -0.508715
O8    O     O_R   0.500000 0.380310 0.424640 -0.490133
O9    O     O_R   0.500000 0.619690 0.575360 -0.488839
O10   O     O_R   0.274870 0.500000 0.557960 -0.502435
O11   O     O_R   0.725130 0.500000 0.442040 -0.502141
O12   O     O_R   0.274790 0.500000 0.407270 -0.495992
O13   O     O_R   0.725210 0.500000 0.592730 -0.497342
O14   O     O_3   0.696645 0.085824 0.632113 -0.518363

loop_
_geom_bond_atom_site_label_1
_geom_bond_atom_site_label_2
_ccdc_geom_bond_type
C24   H6    S    
C2    O11   A    
C8    C13   S    
C33   O6    S    
C39   H41   S    
C1    O1    A    
C32   H29   S    
C35   H35   S    
Cu1   Cu2   S    
C7    C11   S    
C23   C42   S    
C18   H45   S    
C36   C37   S    
C27   H14   S    
C42   N2    T    
C32   H28   S    
C12   O7    A    
C19   H1    S    
C21   H48   S    
C23   C40   A    
Cu2   O7    S    
C38   H46   S    
C3    C18   S    
C18   C19   S    
C33   H30   S    
C11   C15   T    
C37   H38   S    
C10   O14   S    
C27   H15   S    
C26   H13   S    
C30   H21   S    
Cu1   O10   S    
C1    O8    A    
C22   H4    S    
C24   H5    S    
C31   H25   S    
C20   H50   S    
C13   C14   T    
C34   C41   A    
C39   H42   S    
C6    C9    A    
C30   H24   S    
C44   O10   A    
C19   H12   S    
C3    C44   S    
C5    O3    S    
C2    O13   A    
C43   N1    T    
C25   H8    S    
Cu1   O1    S    
C32   H27   S    
C5    C7    A    
C6    C8    A    
C21   H49   S    
C36   H40   S    
C25   C26   S    
C27   O3    S    
C41   O5    S    
C17   C40   A    
C31   O5    S    
C2    C4    S    
C29   C30   S    
C40   O6    S    
C25   O2    S    
C31   C32   S    
C12   C15   S    
C20   H2    S    
C22   H3    S    
C29   H19   S    
C28   H18   S    
C18   H34   S    
C31   H26   S    
Cu2   N1    S    
C16   C23   A    
C22   O14   S    
Cu2   O12   S    
C22   C24   S    
C37   H36   S    
C19   H23   S    
C17   C34   A    
C3    C4    D    
C7    C9    A    
C34   C43   S    
C25   H9    S    
C26   H10   S    
C12   O9    A    
Cu1   O13   S    
C36   H39   S    
C9    O2    S    
C38   H44   S    
C35   H32   S    
Cu1   N2    S    
C24   H7    S    
C5    C10   A    
C16   C36   S    
C33   H31   S    
C38   C39   S    
C21   H47   S    
Cu2   O8    S    
C35   H33   S    
C33   C35   S    
C29   O4    S    
C17   C38   S    
C6    O4    S    
C26   H11   S    
C29   H20   S    
C4    C20   S    
C28   H17   S    
C20   C21   S    
C8    C10   A    
Cu2   O11   S    
C27   C28   S    
C37   H37   S    
C1    C14   S    
C16   C41   A    
C39   H43   S    
C30   H22   S    
Cu1   O9    S    
C28   H16   S    
C44   O12   A    
