data_mof_unit_54749.cif
_audit_creation_date              2013-03-05T16:01:51-0500
_audit_creation_method            fapswitch 2.2
_symmetry_space_group_name_H-M    P1
_symmetry_Int_Tables_number       1
_space_group_crystal_system       triclinic
_cell_length_a                    20.530626
_cell_length_b                    7.281307
_cell_length_c                    13.822236
_cell_angle_alpha                 90.389816
_cell_angle_beta                  103.299715
_cell_angle_gamma                 89.461187
_cell_volume                      2010.7537135

loop_
_atom_site_label
_atom_site_type_symbol
_atom_site_description
_atom_site_fract_x
_atom_site_fract_y
_atom_site_fract_z
_atom_type_partial_charge
O1    O     O_R   0.449520 0.506760 0.599710 -0.616015
O2    O     O_R   0.550480 0.006760 0.400290 -0.606409
O3    O     O_R   0.587930 0.180200 0.595790 -0.618749
O4    O     O_R   0.412070 0.680200 0.404210 -0.609432
C1    C     C_R   0.614110 0.343870 0.620392 0.997254
C2    C     C_R   0.385459 0.845039 0.380443 0.992902
O5    O     O_R   0.452350 0.177380 0.611700 -0.552866
O6    O     O_R   0.547650 0.677380 0.388300 -0.551133
O7    O     O_R   0.413930 0.001760 0.416320 -0.528282
O8    O     O_R   0.586070 0.501760 0.583680 -0.527785
C3    C     C_R   0.432485 0.348539 0.632989 1.112560
C4    C     C_R   0.568513 0.846403 0.368229 1.120712
O9    O     O_3   0.487550 0.337460 0.435880 -0.271686
O10   O     O_3   0.512450 0.837460 0.564120 -0.286617
V1    V     V_3+5 0.502310 0.064670 0.511900 1.303630
V2    V     V_3+5 0.497690 0.564670 0.488100 1.307225
C5    C     C_R   0.617845 0.948546 0.128437 -0.045826
C6    C     C_R   0.380048 0.486235 0.867837 -0.032419
H1    H     H_    0.687356 0.898873 0.988250 0.152087
H2    H     H_    0.310389 0.456299 0.008693 0.151476
C7    C     C_R   0.611586 0.864319 0.294318 -0.305097
C8    C     C_R   0.389659 0.372909 0.706954 -0.294764
C9    C     C_R   0.926161 0.847923 0.308956 -0.197988
C10   C     C_R   0.074707 0.280030 0.697034 -0.189778
C11   C     C_R   0.891587 0.815801 0.382717 0.111118
C12   C     C_R   0.110785 0.226674 0.627670 0.103163
C13   C     C_R   0.823473 0.778863 0.357320 -0.228853
C14   C     C_R   0.179891 0.238264 0.650495 -0.221996
C15   C     C_R   0.786274 0.790002 0.258064 0.109727
C16   C     C_R   0.216321 0.288615 0.746023 0.107154
C17   C     C_R   0.821630 0.824531 0.181223 0.058070
C18   C     C_R   0.179517 0.333915 0.820223 0.055144
C19   C     C_R   0.714398 0.801166 0.235969 -0.064243
C20   C     C_R   0.287716 0.312822 0.767050 -0.065733
C21   C     C_R   0.681267 0.865930 0.140799 0.068738
C22   C     C_R   0.318395 0.398241 0.858489 0.069174
C23   C     C_R   0.714457 0.866077 0.063281 -0.207086
C24   C     C_R   0.284611 0.409450 0.935298 -0.209519
C25   C     C_R   0.783434 0.843255 0.081624 -0.045611
C26   C     C_R   0.216635 0.373915 0.918234 -0.043573
C27   C     C_R   0.673566 0.770926 0.306223 0.251197
C28   C     C_R   0.329871 0.273536 0.698933 0.252890
C29   C     C_R   0.593579 0.984619 0.212739 -0.006945
C30   C     C_R   0.405172 0.506801 0.783307 -0.016109
C31   C     C_R   0.892755 0.851176 0.208649 -0.176787
C32   C     C_R   0.107629 0.339187 0.792346 -0.178961
H3    H     H_    0.979594 0.870665 0.329486 0.119457
H4    H     H_    0.020643 0.270256 0.677804 0.113827
H5    H     H_    0.799504 0.765527 0.418175 0.174812
H6    H     H_    0.203173 0.214174 0.589797 0.179889
C33   C     C_R   0.227944 0.896913 0.040064 -0.225461
C34   C     C_R   0.771644 0.368401 0.962567 -0.223637
C35   C     C_R   0.281562 0.924812 0.997361 0.027469
C36   C     C_R   0.717834 0.380145 0.006811 0.028821
C37   C     C_R   0.344498 0.951790 0.056405 -0.251751
C38   C     C_R   0.653607 0.390596 0.949383 -0.252399
C39   C     C_R   0.355588 0.936568 0.159205 0.361065
C40   C     C_R   0.641868 0.386262 0.846169 0.357946
C41   C     C_R   0.303638 0.892736 0.206533 -0.058722
C42   C     C_R   0.694868 0.367385 0.796868 -0.055866
C43   C     C_R   0.237447 0.883243 0.144288 0.082358
C44   C     C_R   0.761707 0.363471 0.858041 0.082019
C45   C     C_R   0.315439 0.852879 0.311141 -0.251853
C46   C     C_R   0.683666 0.347560 0.690678 -0.252721
C47   C     C_R   0.258821 0.806173 0.348948 0.097979
C48   C     C_R   0.740904 0.320664 0.650833 0.097172
C49   C     C_R   0.192558 0.808432 0.286459 0.103623
C50   C     C_R   0.807141 0.341982 0.711133 0.106184
C51   C     C_R   0.181795 0.853186 0.184920 -0.224269
C52   C     C_R   0.817764 0.358439 0.815330 -0.225277
C53   C     C_R   0.266787 0.757659 0.449477 -0.115082
C54   C     C_R   0.733578 0.268904 0.550853 -0.107221
C55   C     C_R   0.211742 0.714217 0.487548 0.026407
C56   C     C_R   0.788641 0.260051 0.508547 0.054931
C57   C     C_R   0.147600 0.712192 0.426013 0.036935
C58   C     C_R   0.851766 0.310396 0.563353 0.033790
C59   C     C_R   0.137906 0.760695 0.326700 -0.227198
C60   C     C_R   0.861662 0.344771 0.664941 -0.227855
H7    H     H_    0.179173 0.880131 0.990390 0.132872
H8    H     H_    0.821240 0.365420 0.011143 0.132668
H9    H     H_    0.385931 0.981648 0.022544 0.162380
H10   H     H_    0.612067 0.410134 0.984904 0.165468
H11   H     H_    0.315722 0.753715 0.499612 0.150286
H12   H     H_    0.685113 0.234384 0.504590 0.138027
H13   H     H_    0.087355 0.758525 0.281139 0.110346
H14   H     H_    0.911747 0.375318 0.707065 0.103217
O11   O     O_R   0.913760 0.203480 0.916370 -0.584962
O12   O     O_R   0.086240 0.703480 0.083630 -0.588931
O13   O     O_R   0.047590 0.535230 0.888250 -0.592732
O14   O     O_R   0.952410 0.035230 0.111750 -0.593387
C61   C     C_R   0.065148 0.365575 0.864561 0.915854
C62   C     C_R   0.934884 0.867808 0.135604 0.915308
O15   O     O_R   0.912020 0.532880 0.904260 -0.587057
O16   O     O_R   0.087980 0.032880 0.095740 -0.584329
O17   O     O_R   0.949590 0.708460 0.099750 -0.593924
O18   O     O_R   0.050410 0.208460 0.900250 -0.593642
C63   C     C_R   0.887002 0.364843 0.880943 0.899212
C64   C     C_R   0.112816 0.863725 0.119142 0.899133
O19   O     O_3   0.012370 0.375360 0.064120 -0.289977
O20   O     O_3   0.987630 0.875360 0.935880 -0.289217
V3    V     V_3+5 0.997700 0.648160 0.988110 1.185822
V4    V     V_3+5 0.002300 0.148160 0.011890 1.188201
C65   C     C_1   0.565628 0.165373 0.221413 0.298972
N1    N     N_1   0.545228 0.312762 0.227431 0.002200
C66   C     C_1   0.436426 0.679907 0.771305 0.319567
N2    N     N_1   0.459901 0.820998 0.762485 0.006584
C67   C     C_1   0.272398 0.920914 0.892253 0.095086
N3    N     N_1   0.265278 0.917006 0.807292 -0.036012
C68   C     C_1   0.728439 0.397429 0.111733 0.095045
N4    N     N_1   0.736444 0.414547 0.196377 -0.042442
N5    N     N_R   0.421039 0.966951 0.213531 0.188994
O21   O     O_R   0.436236 0.129950 0.249769 -0.416196
O22   O     O_R   0.467088 0.852954 0.200617 -0.492495
N6    N     N_R   0.575907 0.422846 0.793845 0.185264
O23   O     O_R   0.563010 0.586195 0.757194 -0.439108
O24   O     O_R   0.528352 0.324095 0.813413 -0.484379
C69   C     C_1   0.220974 0.678465 0.591398 0.146847
N7    N     N_1   0.226899 0.651679 0.674922 -0.073182
C70   C     C_1   0.779507 0.201166 0.407591 0.142233
N8    N     N_1   0.772740 0.154076 0.326329 -0.077676
C71   C     C_1   0.579057 0.007994 0.032644 0.083231
N9    N     N_1   0.547202 0.052518 0.956084 -0.024690
C72   C     C_1   0.416429 0.565171 0.960742 0.076564
N10   N     N_1   0.446565 0.625658 0.034899 -0.024696
N11   N     N_R   0.690568 0.635662 0.382342 0.213212
O25   O     O_R   0.699220 0.685842 0.474996 -0.464620
O26   O     O_R   0.673237 0.467425 0.358338 -0.448865
N12   N     N_R   0.314627 0.132464 0.624876 0.211862
O27   O     O_R   0.306943 0.174014 0.531419 -0.464080
O28   O     O_R   0.326387 0.962814 0.651888 -0.456675
C73   C     C_1   0.924272 0.836453 0.486223 0.068441
N13   N     N_1   0.949852 0.854131 0.569554 -0.073696
C74   C     C_1   0.077910 0.158771 0.531001 0.080407
N14   N     N_1   0.052799 0.103746 0.452777 -0.086461
C75   C     C_1   0.811459 0.856371 0.995189 0.080530
N15   N     N_1   0.832638 0.867174 0.924782 -0.022999
C76   C     C_1   0.188794 0.379298 0.005120 0.081702
N16   N     N_1   0.167783 0.382240 0.075936 -0.023360
C77   C     C_1   0.091476 0.657586 0.464573 0.053992
N17   N     N_1   0.047453 0.612628 0.497572 -0.071833
C78   C     C_1   0.905327 0.333319 0.513638 0.051154
N18   N     N_1   0.946486 0.352695 0.470262 -0.068392

loop_
_geom_bond_atom_site_label_1
_geom_bond_atom_site_label_2
_geom_bond_distance
_ccdc_geom_bond_type
C48   C50   1.431374 A    
C45   C47   1.424519 A    
C9    C31   1.398533 A    
C74   N14   1.156232 T    
O18   V4    2.065966 S    
C13   C15   1.410796 A    
C39   N5    1.399135 S    
N5    O21   1.297618 A    
C49   C59   1.409356 A    
O2    C4    1.325558 A    
N12   O27   1.302215 A    
C2    O7    1.327118 A    
O12   V3    2.027828 S    
C75   N15   1.157028 T    
C25   C75   1.444423 S    
C30   C66   1.447410 S    
O5    C3    1.358957 A    
C56   C70   1.428004 S    
C56   C58   1.393304 A    
C57   C77   1.436643 S    
C21   C23   1.395830 A    
C10   C12   1.391070 A    
C39   C41   1.413370 A    
O16   C64   1.341396 A    
C40   C42   1.415751 A    
C15   C19   1.438108 A    
C44   C52   1.409224 A    
C42   C44   1.436861 A    
C31   C62   1.479065 S    
O14   V4    2.076590 S    
H1    C23   1.085146 S    
C61   O18   1.313975 A    
C7    C29   1.411023 A    
C14   H6    1.069610 S    
C8    C30   1.415230 A    
C48   C54   1.404555 A    
C20   C28   1.443591 A    
C47   C49   1.433937 A    
C33   C43   1.412649 A    
C67   N3    1.149745 T    
C37   H9    1.085335 S    
C52   C63   1.500961 S    
C28   N12   1.430121 S    
C6    C72   1.447079 S    
C51   C64   1.498216 S    
C60   H14   1.083026 S    
O5    V1    2.061129 S    
C59   H13   1.083248 S    
O6    V2    2.076230 S    
C24   C26   1.387354 A    
C55   C57   1.393784 A    
C12   C14   1.384026 A    
C34   C36   1.382087 A    
N6    O23   1.296910 A    
C53   H11   1.081579 S    
C35   C37   1.375358 A    
C50   C60   1.410813 A    
C77   N17   1.152994 T    
C36   C38   1.375493 A    
C41   C43   1.433453 A    
C55   C69   1.429399 S    
C16   C20   1.439522 A    
C10   H4    1.083146 S    
C27   N11   1.427422 S    
C72   N10   1.155267 T    
C9    H3    1.082093 S    
C54   C56   1.387936 A    
O15   V3    2.053943 S    
C53   C55   1.391656 A    
C32   C61   1.479420 S    
C47   C53   1.408320 A    
C4    C7    1.504108 S    
C62   O17   1.318099 A    
C34   H8    1.083209 S    
C36   C68   1.421000 S    
C49   C51   1.409616 A    
C46   C48   1.419362 A    
C2    C45   1.533975 S    
O4    V2    2.046904 S    
C5    C29   1.391213 A    
C6    C30   1.390948 A    
O11   V4    2.024604 S    
H2    C24   1.085029 S    
C35   C67   1.421516 S    
O14   C62   1.338868 A    
C17   C25   1.425706 A    
O6    C4    1.358057 A    
C26   C76   1.444067 S    
O19   V4    1.795047 S    
N5    O22   1.294425 A    
O1    V2    2.062618 S    
O2    V1    2.054509 S    
C57   C59   1.388630 A    
O16   V4    2.046852 S    
C71   N9    1.155401 T    
C54   H12   1.082562 S    
C7    C27   1.413379 A    
C5    C71   1.445982 S    
C37   C39   1.391394 A    
N11   O25   1.302066 A    
O4    C2    1.325688 A    
O13   C61   1.342973 A    
C73   N13   1.157575 T    
C11   C73   1.441201 S    
O15   C63   1.339775 A    
O3    V1    2.053995 S    
N11   O26   1.298320 A    
C66   N2    1.157839 T    
C43   C51   1.403693 A    
O13   V3    2.061469 S    
C18   C32   1.437270 A    
C58   C60   1.393030 A    
O3    C1    1.321820 A    
C29   C65   1.446081 S    
N12   O28   1.297223 A    
N6    O24   1.296434 A    
C70   N8    1.149935 T    
C38   H10   1.085391 S    
C11   C13   1.389647 A    
C76   N16   1.156938 T    
C3    C8    1.502653 S    
C41   C45   1.441110 A    
C42   C46   1.438936 A    
C19   C27   1.440531 A    
C22   C24   1.396954 A    
O7    V1    2.037668 S    
C10   C32   1.402159 A    
C1    O8    1.331042 A    
C15   C17   1.442226 A    
C12   C74   1.437977 S    
C34   C44   1.412129 A    
C78   N18   1.153215 T    
C58   C78   1.435965 S    
C16   C18   1.441822 A    
C8    C28   1.412634 A    
C14   C16   1.407657 A    
O20   V3    1.800509 S    
C19   C21   1.416409 A    
C38   C40   1.391308 A    
C20   C22   1.418234 A    
C18   C26   1.422902 A    
C33   H7    1.083420 S    
O17   V3    2.057541 S    
C9    C11   1.391884 A    
C1    C46   1.531620 S    
C23   C25   1.388643 A    
C17   C31   1.436399 A    
O9    V2    1.795110 S    
C68   N4    1.149481 T    
C65   N1    1.157762 T    
C40   N6    1.404695 S    
C50   C52   1.410618 A    
O10   V1    1.800544 S    
O8    V2    2.034033 S    
O1    C3    1.322857 A    
C5    C21   1.403857 A    
C33   C35   1.380672 A    
C69   N7    1.150510 T    
C6    C22   1.402944 A    
O12   C64   1.334543 A    
C13   H5    1.073103 S    
O11   C63   1.339387 A    
