data_mof_unit_39648.cif
_audit_creation_date              2012-12-10T20:04:44-0500
_audit_creation_method            fapswitch 2.2
_symmetry_space_group_name_H-M    P1
_symmetry_Int_Tables_number       1
_space_group_crystal_system       triclinic
_cell_length_a                    10.627696
_cell_length_b                    18.944612
_cell_length_c                    18.465766
_cell_angle_alpha                 90.352526
_cell_angle_beta                  104.427131
_cell_angle_gamma                 89.842653
_cell_volume                      3600.54021175

loop_
_atom_site_label
_atom_site_type_symbol
_atom_type_description
_atom_site_fract_x
_atom_site_fract_y
_atom_site_fract_z
_atom_type_partial_charge
C1    C     C_R   0.494916 0.365166 0.499159 0.871033
C2    C     C_R   0.497575 0.634993 0.499919 0.856617
C3    C     C_R   0.475773 0.710759 0.497978 -0.046037
C4    C     C_R   0.458680 0.291159 0.494137 -0.042170
C5    C     C_R   0.426989 0.968931 0.554375 -0.210402
C6    C     C_R   0.309167 0.035663 0.419603 -0.206183
C7    C     C_R   0.414836 0.041697 0.552309 -0.149401
C8    C     C_R   0.320286 0.962520 0.421830 -0.148503
C9    C     C_R   0.359538 0.075364 0.484522 0.101851
C10   C     C_R   0.384195 0.929389 0.488620 0.099359
C11   C     C_R   0.566052 0.551132 0.735631 0.011791
C12   C     C_R   0.426927 0.451989 0.263167 0.013186
C13   C     C_R   0.568345 0.551899 0.811939 -0.284921
C14   C     C_R   0.426761 0.450696 0.187161 -0.288662
C15   C     C_R   0.502316 0.499445 0.841563 0.118495
C16   C     C_R   0.501992 0.499519 0.158859 0.111090
C17   C     C_R   0.436032 0.446976 0.792500 -0.271903
C18   C     C_R   0.576598 0.548428 0.209492 -0.272586
C19   C     C_R   0.435857 0.448305 0.716532 0.045737
C20   C     C_R   0.574449 0.547615 0.285144 0.039759
C21   C     C_R   0.390072 0.481155 0.945758 -0.189349
C22   C     C_R   0.614637 0.517824 0.054293 -0.196763
C23   C     C_R   0.257098 0.502773 0.468666 0.885154
C24   C     C_R   0.742597 0.502267 0.531425 0.894378
C25   C     C_R   0.389870 0.481367 0.021756 -0.187288
C26   C     C_R   0.614633 0.517869 0.978256 -0.186798
C27   C     C_R   0.502256 0.499519 0.077424 0.127118
C28   C     C_R   0.502431 0.499429 0.922816 0.127110
C29   C     C_2   0.117362 0.514040 0.450871 -0.187931
C30   C     C_2   0.882213 0.510999 0.550269 -0.191675
C31   C     C_2   0.069590 0.542723 0.505262 -0.202933
C32   C     C_2   0.932236 0.544478 0.500070 -0.218145
C33   C     C_R   0.513151 0.752416 0.444655 -0.243586
C34   C     C_R   0.378061 0.266594 0.538155 -0.238223
C35   C     C_R   0.486496 0.824798 0.440943 0.029530
C36   C     C_R   0.332996 0.197209 0.531208 0.022235
C37   C     C_R   0.415875 0.854275 0.489595 0.057137
C38   C     C_R   0.373597 0.151685 0.480536 0.050820
C39   C     C_R   0.378823 0.811977 0.542550 -0.196148
C40   C     C_R   0.450132 0.177370 0.434574 -0.183834
C41   C     C_R   0.409631 0.740911 0.547242 -0.196454
C42   C     C_R   0.491482 0.247053 0.440821 -0.208337
H1    H     H_    0.869876 0.566439 0.449316 0.182568
H2    H     H_    0.132814 0.558101 0.558905 0.191260
H3    H     H_    0.619977 0.593760 0.847189 0.132609
H4    H     H_    0.369400 0.411054 0.151223 0.133247
H5    H     H_    0.386574 0.404521 0.812913 0.125984
H6    H     H_    0.635001 0.587749 0.190854 0.133787
H7    H     H_    0.385069 0.407691 0.679192 0.116109
H8    H     H_    0.632250 0.585260 0.323668 0.117219
H9    H     H_    0.301139 0.467887 0.904745 0.127236
H10   H     H_    0.703777 0.531192 0.094980 0.124225
H11   H     H_    0.300451 0.468450 0.036657 0.126407
H12   H     H_    0.703541 0.531270 0.962966 0.126835
H13   H     H_    0.565979 0.728875 0.407353 0.145673
H14   H     H_    0.346362 0.302336 0.576188 0.140092
H15   H     H_    0.325336 0.834125 0.580203 0.141863
H16   H     H_    0.482860 0.142497 0.396222 0.141794
H17   H     H_    0.378360 0.709115 0.588099 0.154263
H18   H     H_    0.551353 0.266045 0.405393 0.143509
H19   H     H_    0.476587 0.943833 0.606243 0.135482
H20   H     H_    0.266587 0.061477 0.366994 0.133060
H21   H     H_    0.455938 0.072025 0.602534 0.136345
H22   H     H_    0.285072 0.932081 0.370996 0.136197
H23   H     H_    0.617108 0.591554 0.713222 0.120170
H24   H     H_    0.368960 0.414299 0.284455 0.129731
N1    N     N_R   0.500020 0.499980 0.689440 -0.088851
N2    N     N_R   0.499980 0.500020 0.310560 -0.090822
O1    O     O_R   0.500000 0.398180 0.560840 -0.618543
O2    O     O_R   0.500000 0.601820 0.439160 -0.622257
O3    O     O_R   0.499950 0.398180 0.439200 -0.616690
O4    O     O_R   0.500050 0.601820 0.560800 -0.626492
O5    O     O_R   0.317830 0.500010 0.538110 -0.616752
O6    O     O_R   0.682170 0.499990 0.461890 -0.614678
O7    O     O_R   0.317770 0.500000 0.416470 -0.610219
O8    O     O_R   0.682230 0.500000 0.583530 -0.606374
Zn1   Zn    Zn3+2 0.500040 0.500000 0.581220 0.932850
Zn2   Zn    Zn3+2 0.499960 0.500000 0.418780 0.931678
C43   C     C_R   0.962150 0.477218 0.618850 0.134533
C44   C     C_R   0.955604 0.501892 0.689682 -0.121303
C45   C     C_R   0.024677 0.467497 0.754238 -0.141152
C46   C     C_R   0.099703 0.408019 0.748459 -0.118701
C47   C     C_R   0.107115 0.383308 0.678173 -0.150786
C48   C     C_R   0.038709 0.417721 0.613502 -0.132350
H25   H     H_    0.896531 0.547432 0.694842 0.124375
H26   H     H_    0.019183 0.486595 0.808731 0.122597
H27   H     H_    0.151787 0.380976 0.798454 0.111616
H28   H     H_    0.165281 0.337256 0.673783 0.130176
H29   H     H_    0.043790 0.397372 0.559384 0.126142
C49   C     C_R   0.033986 0.491504 0.377159 0.128800
C50   C     C_R   0.047789 0.523484 0.311151 -0.128904
C51   C     C_R   0.967997 0.503132 0.241928 -0.171300
C52   C     C_R   0.874250 0.450705 0.238113 -0.116548
C53   C     C_R   0.860249 0.418414 0.303451 -0.123159
C54   C     C_R   0.940160 0.438354 0.372704 -0.136908
H30   H     H_    0.119192 0.564646 0.313358 0.137684
H31   H     H_    0.978568 0.528158 0.191245 0.127118
H32   H     H_    0.812479 0.435028 0.184568 0.130404
H33   H     H_    0.787524 0.377874 0.300434 0.130200
H34   H     H_    0.928692 0.412482 0.422769 0.130736
C55   C     C_R   0.538287 0.868355 0.388475 0.101599
C56   C     C_R   0.507495 0.851665 0.311833 -0.177671
C57   C     C_R   0.555832 0.892891 0.262307 -0.135658
C58   C     C_R   0.635667 0.950751 0.288904 -0.114350
C59   C     C_R   0.667851 0.967305 0.365142 -0.142840
C60   C     C_R   0.620000 0.926144 0.414878 -0.125300
H35   H     H_    0.445094 0.807231 0.290403 0.128366
H36   H     H_    0.531218 0.880040 0.203263 0.125535
H37   H     H_    0.672854 0.982642 0.250466 0.119095
H38   H     H_    0.730128 0.011946 0.385746 0.122118
H39   H     H_    0.646718 0.939251 0.473896 0.127998
C61   C     C_R   0.242332 0.174097 0.576077 0.107509
C62   C     C_R   0.127316 0.137887 0.541794 -0.133277
C63   C     C_R   0.040813 0.117481 0.583726 -0.136758
C64   C     C_R   0.067856 0.133296 0.660041 -0.102430
C65   C     C_R   0.181515 0.169505 0.694586 -0.140074
C66   C     C_R   0.268462 0.189890 0.652928 -0.193606
H40   H     H_    0.103847 0.126147 0.482473 0.122767
H41   H     H_    0.952442 0.089698 0.556944 0.123497
H42   H     H_    0.000615 0.117613 0.692374 0.119827
H43   H     H_    0.202248 0.181854 0.753683 0.123968
H44   H     H_    0.356349 0.217665 0.680697 0.123737

loop_
_geom_bond_atom_site_label_1
_geom_bond_atom_site_label_2
_ccdc_geom_bond_type
C33   H13   S    
C38   C40   A    
C59   H38   S    
C34   H14   S    
C52   C53   A    
O2    Zn2   S    
O1    Zn1   S    
N1    Zn1   S    
C6    C9    A    
C45   C46   A    
C49   C50   A    
C49   C54   A    
C39   C41   A    
C12   N2    A    
C1    O3    A    
C10   C37   S    
C23   C29   S    
C35   C37   A    
C25   H11   S    
C43   C48   A    
C3    C33   A    
C46   H27   S    
C39   H15   S    
C65   C66   A    
C15   C17   A    
C29   C49   S    
C20   H8    S    
O4    Zn1   S    
C17   C19   A    
C50   H30   S    
C31   C32   S    
C36   C61   S    
C19   N1    A    
C57   H36   S    
C18   C20   A    
C45   H26   S    
C16   C27   S    
C40   C42   A    
C47   H28   S    
C53   C54   A    
C23   O5    A    
C2    O4    A    
C26   H12   S    
C61   C62   A    
C11   N1    A    
C51   H31   S    
C63   C64   A    
C60   H39   S    
N2    Zn2   S    
C4    C34   A    
C40   H16   S    
C65   H43   S    
C55   C56   A    
O8    Zn1   S    
C41   H17   S    
C14   H4    S    
C31   H2    S    
C42   H18   S    
C50   C51   A    
C5    C7    A    
C54   H34   S    
C24   O8    A    
C6    C8    A    
C12   H24   S    
C1    O1    A    
C43   C44   A    
C66   H44   S    
C44   H25   S    
C19   H7    S    
C47   C48   A    
C29   C31   D    
C5    H19   S    
C56   H35   S    
C7    H21   S    
C8    H22   S    
C30   C43   S    
C8    C10   A    
C21   C28   A    
C12   C14   A    
C46   C47   A    
C22   C27   A    
C13   C15   A    
O6    Zn2   S    
C14   C16   A    
C48   H29   S    
C21   H9    S    
C13   H3    S    
C22   H10   S    
C62   C63   A    
C55   C60   A    
C7    C9    A    
C21   C25   A    
C3    C41   A    
C20   N2    A    
C17   H5    S    
C23   O7    A    
C44   C45   A    
C35   C55   S    
C18   H6    S    
C58   C59   A    
C25   C27   A    
C59   C60   A    
C26   C28   A    
C1    C4    S    
C6    H20   S    
C36   C38   A    
C2    C3    S    
C5    C10   A    
C37   C39   A    
C30   C32   D    
C11   C13   A    
C24   O6    A    
C15   C28   S    
C61   C66   A    
C63   H41   S    
C4    C42   A    
C53   H33   S    
C51   C52   A    
C33   C35   A    
C32   H1    S    
C34   C36   A    
C56   C57   A    
O7    Zn2   S    
C24   C30   S    
C62   H40   S    
C11   H23   S    
C16   C18   A    
C64   H42   S    
C22   C26   A    
C57   C58   A    
O5    Zn1   S    
C58   H37   S    
C9    C38   S    
C2    O2    A    
C52   H32   S    
O3    Zn2   S    
C64   C65   A    
