data_mof_unit_29969.cif
_audit_creation_date              2012-12-11T15:48:35-0500
_audit_creation_method            fapswitch 2.2
_symmetry_space_group_name_H-M    P1
_symmetry_Int_Tables_number       1
_space_group_crystal_system       triclinic
_cell_length_a                    11.020635
_cell_length_b                    11.101648
_cell_length_c                    18.811294
_cell_angle_alpha                 90.963907
_cell_angle_beta                  90.545998
_cell_angle_gamma                 60.265891
_cell_volume                      1998.19968919

loop_
_atom_site_label
_atom_site_type_symbol
_atom_type_description
_atom_site_fract_x
_atom_site_fract_y
_atom_site_fract_z
_atom_type_partial_charge
C1    C     C_R   0.240550 0.645506 0.610232 0.547685
C2    C     C_3   0.646520 0.569035 0.800252 -0.249546
C3    C     C_3   0.698387 0.673276 0.812175 0.050564
C4    C     C_3   0.669234 0.646837 0.676224 0.057334
C5    C     C_3   0.822727 0.604211 0.692788 -0.239802
C6    C     C_3   0.624918 0.556658 0.720108 -0.218962
C7    C     C_R   0.690037 0.138253 0.821022 0.017459
C8    C     C_R   0.793429 0.143657 0.781489 0.016250
C9    C     C_R   0.785903 0.154864 0.709280 0.019359
C10   C     C_R   0.576691 0.141462 0.708196 -0.184579
C11   C     C_R   0.578672 0.140497 0.781751 -0.181129
C12   C     C_R   0.653791 0.621769 0.600740 0.547302
C13   C     C_3   0.926718 0.146604 0.786178 -0.278240
C14   C     C_3   0.917831 0.160822 0.704609 -0.274886
C15   C     C_R   0.673962 0.161770 0.670347 0.020283
C16   C     C_R   0.176369 0.670849 0.834331 0.015193
C17   C     C_R   0.153528 0.578116 0.792999 0.015170
C18   C     C_R   0.163184 0.575283 0.719265 -0.000470
C19   C     C_R   0.209437 0.765605 0.725629 -0.167876
C20   C     C_R   0.205391 0.764402 0.799435 -0.169700
C21   C     C_3   0.230277 0.423683 0.796436 -0.283405
C22   C     C_3   0.238440 0.421100 0.716097 -0.269368
C23   C     C_R   0.630413 0.225557 0.601162 0.541024
C24   C     C_R   0.193821 0.667000 0.684206 0.017905
C25   C     C_R   0.646421 0.679949 0.168406 -0.018757
C26   C     C_R   0.732174 0.554449 0.199800 -0.013856
C27   C     C_R   0.734225 0.540517 0.272188 0.100013
C28   C     C_R   0.575531 0.780988 0.288849 -0.151135
C29   C     C_R   0.559065 0.794369 0.214395 0.222080
C30   C     C_3   0.731116 0.423010 0.186073 -0.290979
C31   C     C_3   0.734599 0.407806 0.265561 -0.218019
C32   C     C_R   0.657921 0.651115 0.318468 -0.007523
C33   C     C_R   0.668338 0.160535 0.174270 0.012261
C34   C     C_R   0.218632 0.648921 0.403284 0.593655
C35   C     C_R   0.544187 0.250345 0.205958 0.013024
C36   C     C_R   0.531181 0.245648 0.276598 -0.003869
C37   C     C_R   0.779690 0.118176 0.292853 0.188759
C38   C     C_R   0.789698 0.098964 0.218482 -0.142570
C39   C     C_3   0.391426 0.336436 0.192926 -0.254280
C40   C     C_3   0.377529 0.334227 0.273784 -0.195770
C41   C     C_R   0.644395 0.184382 0.323169 0.015447
C42   C     C_R   0.070575 0.710007 0.192286 -0.050780
C43   C     C_R   0.148370 0.762656 0.221394 0.049855
C44   C     C_R   0.187931 0.742291 0.289786 0.083960
C45   C     C_R   0.641558 0.620678 0.391814 0.577125
C46   C     C_R   0.078206 0.604515 0.307158 0.206839
C47   C     C_R   0.032258 0.630839 0.235242 -0.153021
C48   C     C_3   0.283575 0.745309 0.196870 -0.223340
C49   C     C_3   0.327450 0.724002 0.274014 -0.246983
C50   C     C_R   0.152380 0.669197 0.334964 0.036097
C51   C     C_R   0.703001 0.098113 0.895310 0.534980
C52   C     C_R   0.723004 0.687838 0.888436 0.535636
C53   C     C_R   0.117191 0.706720 0.905757 0.547394
C54   C     C_R   0.676956 0.108886 0.102871 0.559114
C55   C     C_R   0.694181 0.692973 0.097707 0.551010
C56   C     C_R   0.617501 0.228522 0.395809 0.569143
C57   C     C_R   0.031914 0.743171 0.118881 0.549009
C58   C     C_3   0.589685 0.814807 0.779682 -0.232366
C59   C     C_3   0.575085 0.800330 0.699035 -0.245738
C60   C     C_3   0.838843 0.622196 0.772309 -0.221641
Cr1   Cr    Cr6+3 0.392960 0.397920 0.502240 1.062016
Cr2   Cr    Cr6+3 0.398340 0.708480 0.501250 1.030826
Cr3   Cr    Cr6+3 0.708670 0.393570 0.496460 1.091647
Cr4   Cr    Cr6+3 0.937650 0.938540 0.007610 1.028268
Cr5   Cr    Cr6+3 0.625330 0.937370 0.994520 1.081897
Cr6   Cr    Cr6+3 0.937940 0.625230 0.001190 1.019154
H1    H     H_    0.625894 0.890296 0.789332 0.146356
H2    H     H_    0.685143 0.446271 0.703424 0.133312
H3    H     H_    0.920360 0.520826 0.793350 0.140159
H4    H     H_    0.894207 0.493925 0.677463 0.133809
H5    H     H_    0.490439 0.138352 0.681808 0.136779
H6    H     H_    0.494141 0.134230 0.807042 0.142602
H7    H     H_    0.014333 0.047036 0.804744 0.154512
H8    H     H_    0.915023 0.240112 0.814683 0.126361
H9    H     H_    0.901806 0.262010 0.686091 0.138266
H10   H     H_    0.001354 0.068844 0.676183 0.146183
H11   H     H_    0.234416 0.838592 0.701644 0.130737
H12   H     H_    0.486042 0.855226 0.805671 0.122659
H13   H     H_    0.221094 0.839959 0.829167 0.129596
H14   H     H_    0.164346 0.382038 0.816837 0.135037
H15   H     H_    0.333208 0.383326 0.823233 0.143213
H16   H     H_    0.345886 0.379630 0.695855 0.174066
H17   H     H_    0.175721 0.379837 0.689628 0.130901
H18   H     H_    0.512485 0.868869 0.323533 0.183519
H19   H     H_    0.828226 0.343487 0.159322 0.173343
H20   H     H_    0.631997 0.440286 0.161062 0.123467
H21   H     H_    0.638096 0.416747 0.288045 0.101612
H22   H     H_    0.463554 0.836393 0.686381 0.132796
H23   H     H_    0.892033 0.034733 0.195491 0.184863
H24   H     H_    0.344072 0.283024 0.163017 0.212351
H25   H     H_    0.362709 0.440238 0.172624 0.113370
H26   H     H_    0.348648 0.433505 0.300196 0.132665
H27   H     H_    0.323368 0.277865 0.290687 0.238592
H28   H     H_    0.972591 0.586549 0.212312 0.173449
H29   H     H_    0.264847 0.843397 0.173953 0.257588
H30   H     H_    0.605954 0.867366 0.669930 0.123338
H31   H     H_    0.344075 0.652363 0.162467 0.115284
H32   H     H_    0.413777 0.617978 0.285575 0.081607
H33   H     H_    0.874721 0.699074 0.780522 0.131670
H34   H     H_    0.854645 0.668859 0.662124 0.131314
H35   H     H_    0.723632 0.466078 0.821459 0.124096
H36   H     H_    0.546326 0.604452 0.828968 0.119170
H37   H     H_    0.513004 0.590330 0.709895 0.125889
O1    O     O_R   0.507380 0.255700 0.581440 -0.537585
O2    O     O_R   0.524480 0.695810 0.424040 -0.530065
O3    O     O_R   0.736390 0.504290 0.414790 -0.415650
O4    O     O_R   0.691300 0.277290 0.422170 -0.442683
O5    O     O_3   0.499990 0.499990 0.499980 -0.299143
O6    O     O_R   0.089400 0.825690 0.930570 -0.517255
O7    O     O_R   0.818460 0.054440 0.929850 -0.499388
O8    O     O_R   0.606060 0.077150 0.915510 -0.541011
O9    O     O_R   0.646550 0.806680 0.917570 -0.512504
O10   O     O_R   0.837170 0.593410 0.915250 -0.528605
O11   O     O_R   0.065200 0.635530 0.931570 -0.498047
O12   O     O_R   0.280320 0.527350 0.578930 -0.497434
O13   O     O_R   0.068260 0.828890 0.091840 -0.506766
O14   O     O_R   0.798870 0.057410 0.079340 -0.544495
O15   O     O_R   0.584930 0.080350 0.076780 -0.430854
O16   O     O_R   0.626960 0.809650 0.067060 -0.425862
O17   O     O_R   0.816040 0.596610 0.076510 -0.528101
O18   O     O_R   0.045610 0.638500 0.081060 -0.502912
O19   O     O_3   0.833640 0.833710 0.001100 -0.291387
O20   O     O_R   0.260510 0.739590 0.584590 -0.526765
O21   O     O_R   0.532300 0.695080 0.573820 -0.513344
O22   O     O_R   0.744840 0.503500 0.576370 -0.520457
O23   O     O_R   0.699120 0.276560 0.571960 -0.499287
O24   O     O_R   0.498940 0.256500 0.419860 -0.495541
O25   O     O_R   0.272500 0.528080 0.429150 -0.449935
O26   O     O_R   0.252060 0.740380 0.423010 -0.481846
S1    S     S_3+6 0.427929 0.956796 0.185908 -0.041103
O27   O     O_2   0.496158 0.041740 0.190732 -0.308466
O28   O     O_2   0.376943 0.956924 0.111494 -0.291486
O29   O     O_3   0.291611 0.027383 0.242131 -0.532979
H38   H     H_    0.233052 0.124355 0.226363 0.385364
H39   H     H_    0.834882 0.322127 0.284139 0.256367
S2    S     S_3+6 0.936321 0.065492 0.342847 -0.009045
O30   O     O_2   0.959638 0.947151 0.389174 -0.291763
O31   O     O_2   0.054929 0.022467 0.292031 -0.295100
O32   O     O_3   0.937462 0.189986 0.394611 -0.473617
H40   H     H_    0.029902 0.144629 0.418366 0.357179
S3    S     S_3+6 0.047250 0.488355 0.357458 -0.004538
O33   O     O_2   0.932968 0.574109 0.409359 -0.270638
O34   O     O_2   0.004669 0.408785 0.308106 -0.313396
O35   O     O_3   0.185003 0.368407 0.403071 -0.501916
H41   H     H_    0.148531 0.317232 0.430014 0.354980
H42   H     H_    0.334499 0.810469 0.299479 0.236402

loop_
_geom_bond_atom_site_label_1
_geom_bond_atom_site_label_2
_ccdc_geom_bond_type
C44   C49   S    
C8    C13   S    
Cr4   O13   S    
Cr6   O10   S    
C28   H18   S    
C32   C45   S    
S1    O28   D    
C35   C36   A    
C40   H27   S    
C9    C14   S    
C60   H33   S    
Cr2   O21   S    
C7    C8    A    
C41   C56   S    
Cr2   O2    S    
C55   O16   A    
C52   O10   A    
C53   O11   A    
C7    C11   A    
C48   H31   S    
C38   H23   S    
C26   C27   A    
C5    H4    S    
C18   C24   A    
C22   H16   S    
C28   C29   A    
C48   H29   S    
C2    C3    S    
C10   C15   A    
S3    O34   D    
C30   C31   S    
Cr2   O5    S    
C2    H36   S    
C53   O6    A    
C4    C59   S    
C56   O24   A    
C19   H11   S    
Cr1   O5    S    
C59   H22   S    
Cr5   O8    S    
C49   H32   S    
C16   C53   S    
C19   C20   A    
C34   O26   A    
C16   C17   A    
Cr1   O12   S    
Cr5   O15   S    
Cr6   O19   S    
C30   H20   S    
C43   C48   S    
C39   H24   S    
C20   H13   S    
C3    C60   S    
C15   C23   S    
Cr6   O17   S    
C21   C22   S    
Cr2   O26   S    
C36   C41   A    
C2    C6    S    
S2    O32   S    
C42   C57   S    
C39   H25   S    
Cr2   O20   S    
C45   O2    A    
C46   S3    S    
C55   O17   A    
C25   C29   A    
C57   O13   A    
O32   H40   S    
C37   S2    S    
C31   H21   S    
C27   C31   S    
C28   C32   A    
Cr1   O1    S    
C4    C6    S    
S3    O35   S    
C39   C40   S    
C11   H6    S    
C8    C9    A    
C12   O22   A    
C2    H35   S    
C58   C59   S    
C6    H37   S    
C17   C21   S    
Cr4   O14   S    
Cr3   O3    S    
C14   H10   S    
C35   C39   S    
C43   C44   A    
C1    O20   A    
C56   O4    A    
C37   C38   A    
Cr4   O7    S    
C29   S1    S    
C12   O21   A    
C5    H34   S    
C36   C40   S    
C16   C20   A    
C17   C18   A    
Cr5   O16   S    
Cr6   O18   S    
Cr1   O24   S    
Cr5   O19   S    
C40   H26   S    
C30   H19   S    
Cr3   O22   S    
C23   O23   A    
C31   H39   S    
C48   C49   S    
C21   H15   S    
C26   C30   S    
C51   O7    A    
C54   O15   A    
O29   H38   S    
S1    O29   S    
C4    C12   S    
C42   C43   A    
Cr5   O9    S    
Cr3   O4    S    
C45   O3    A    
S2    O31   D    
C44   C50   A    
C33   C54   S    
C46   C47   A    
C51   O8    A    
Cr6   O11   S    
C5    C60   S    
C27   C32   A    
C18   C22   S    
C25   C55   S    
C13   H7    S    
S2    O30   D    
C34   C50   S    
C3    C52   S    
C46   C50   A    
C33   C38   A    
O35   H41   S    
C14   H9    S    
S1    O27   D    
C25   C26   A    
C7    C51   S    
S3    O33   D    
C22   H17   S    
Cr4   O6    S    
C60   H3    S    
Cr4   O19   S    
C21   H14   S    
C6    H2    S    
C33   C35   A    
C47   H28   S    
C49   H42   S    
C19   C24   A    
Cr1   O25   S    
C42   C47   A    
C23   O1    A    
C37   C41   A    
Cr3   O23   S    
C10   C11   A    
C58   H12   S    
C10   H5    S    
C57   O18   A    
C3    C58   S    
C58   H1    S    
C4    C5    S    
C13   H8    S    
C1    C24   S    
C34   O25   A    
C59   H30   S    
C54   O14   A    
C52   O9    A    
C1    O12   A    
Cr3   O5    S    
C13   C14   S    
C9    C15   A    
