data_mof_unit_39031.cif
_audit_creation_date              2012-12-10T18:12:13-0500
_audit_creation_method            fapswitch 2.2
_symmetry_space_group_name_H-M    P1
_symmetry_Int_Tables_number       1
_space_group_crystal_system       triclinic
_cell_length_a                    19.010157
_cell_length_b                    18.895376
_cell_length_c                    18.531982
_cell_angle_alpha                 109.136834
_cell_angle_beta                  109.405422
_cell_angle_gamma                 110.056488
_cell_volume                      5112.37894463

loop_
_atom_site_label
_atom_site_type_symbol
_atom_type_description
_atom_site_fract_x
_atom_site_fract_y
_atom_site_fract_z
_atom_type_partial_charge
C1    C     C_R   0.617559 0.619942 0.497023 0.938218
C2    C     C_R   0.328400 0.760616 0.196416 -0.108801
C3    C     C_R   0.304101 0.813887 0.244184 0.361745
C4    C     C_R   0.376174 0.495389 0.379449 0.908702
C5    C     C_R   0.277479 0.793441 0.301116 -0.017527
C6    C     C_R   0.269925 0.718485 0.305544 0.009348
C7    C     C_R   0.286462 0.661669 0.252177 -0.123347
C8    C     C_R   0.748783 0.759376 0.572267 -0.223548
C9    C     C_R   0.814014 0.821266 0.572811 -0.224071
C10   C     C_R   0.813818 0.807667 0.494219 -0.175179
C11   C     C_R   0.747996 0.731010 0.413101 0.257409
C12   C     C_R   0.152407 0.174856 0.245932 -0.129895
C13   C     C_R   0.676495 0.672717 0.411152 0.315190
C14   C     C_R   0.680589 0.685348 0.492534 -0.188821
C15   C     C_R   0.679712 0.501339 0.762750 0.379103
C16   C     C_R   0.381760 0.379986 0.502236 0.981662
C17   C     C_R   0.745976 0.502635 0.825722 -0.068929
C18   C     C_R   0.814886 0.501266 0.813090 -0.308348
C19   C     C_R   0.822881 0.507278 0.741725 0.437406
C20   C     C_R   0.762628 0.518006 0.685286 -0.029917
C21   C     C_R   0.687465 0.506155 0.690749 -0.303453
C22   C     C_R   0.254059 0.329278 0.519165 0.047585
C23   C     C_R   0.174232 0.418058 0.176028 0.174093
C24   C     C_R   0.190851 0.266351 0.521480 0.054262
C25   C     C_R   0.185728 0.184975 0.498413 -0.251693
C26   C     C_R   0.247500 0.168769 0.481321 0.274934
C27   C     C_R   0.319929 0.237892 0.496099 0.306147
C28   C     C_R   0.618750 0.499965 0.621298 0.975675
C29   C     C_R   0.317882 0.314483 0.505974 -0.249923
C30   C     C_R   0.999649 0.619553 0.119367 0.879683
C31   C     C_R   0.120292 0.500238 0.120261 0.868888
C32   C     C_R   0.998627 0.379507 0.878483 0.995320
C33   C     C_R   0.880310 0.499089 0.878345 0.986002
C34   C     C_R   0.187849 0.498827 0.183923 -0.091976
C35   C     C_R   0.998937 0.879240 0.378424 1.069344
C36   C     C_R   0.880100 0.877364 0.497694 0.929369
C37   C     C_R   0.002095 0.121059 0.620622 0.817543
C38   C     C_R   0.119715 0.118756 0.498435 0.972444
C39   C     C_R   0.981442 0.745709 0.165207 -0.046204
C40   C     C_R   0.219595 0.205502 0.228365 0.013308
C41   C     C_R   0.968642 0.802007 0.222969 0.367472
C42   C     C_R   0.995875 0.811316 0.309225 -0.181114
C43   C     C_R   0.019276 0.752865 0.328239 0.047180
C44   C     C_R   0.007948 0.682911 0.260533 0.076002
C45   C     C_R   0.266594 0.577146 0.250336 0.075524
C46   C     C_R   0.997467 0.684514 0.183168 -0.138881
C47   C     C_R   0.078695 0.325561 0.819562 0.034000
C48   C     C_R   0.079978 0.265102 0.752707 0.074555
C49   C     C_R   0.002458 0.185236 0.688681 -0.140644
C50   C     C_R   0.924290 0.166522 0.689319 -0.007331
C51   C     C_R   0.919966 0.233527 0.745072 0.411267
C52   C     C_R   0.241643 0.280143 0.220025 0.408660
C53   C     C_R   0.998354 0.312175 0.812308 -0.274547
C54   C     C_R   0.208904 0.334509 0.248031 -0.318257
C55   C     C_R   0.141951 0.304668 0.268310 0.199368
C56   C     C_R   0.327966 0.574809 0.314856 0.093786
C57   C     C_R   0.106395 0.218995 0.255337 0.224206
C58   C     C_R   0.311082 0.495019 0.311621 -0.055664
C59   C     C_R   0.233768 0.416354 0.243648 0.140693
C60   C     C_R   0.319448 0.684670 0.199952 0.434468
H1    H     H_    0.751578 0.769249 0.634397 0.184720
H2    H     H_    0.868051 0.682870 0.370981 0.353443
H3    H     H_    0.443514 0.532804 0.261173 0.420568
H4    H     H_    0.549436 0.376090 0.779767 0.366646
H5    H     H_    0.802422 0.558125 0.960202 0.191710
H6    H     H_    0.729712 0.448668 0.902316 0.239295
H7    H     H_    0.978009 0.434936 0.731503 0.384547
H8    H     H_    0.215523 0.094430 0.159570 0.234498
H9    H     H_    0.289467 0.152107 0.268657 0.257816
H10   H     H_    0.739232 0.564112 0.597148 0.163463
H11   H     H_    0.841153 0.600733 0.662662 0.223101
H12   H     H_    0.864988 0.879961 0.634741 0.172368
H13   H     H_    0.244889 0.411968 0.474477 0.195814
H14   H     H_    0.209075 0.416179 0.546141 0.226197
H15   H     H_    0.089793 0.237487 0.549594 0.192959
H16   H     H_    0.172230 0.338320 0.613179 0.184354
H17   H     H_    0.122860 0.961489 0.302505 0.380700
H18   H     H_    0.553400 0.318467 0.597452 0.373675
H19   H     H_    0.036512 0.768766 0.092243 0.238503
H20   H     H_    0.930542 0.688345 0.031635 0.192809
H21   H     H_    0.937225 0.876643 0.083538 0.365839
H22   H     H_    0.117116 0.818621 0.455585 0.238722
H23   H     H_    0.077464 0.044464 0.191296 0.247991
H24   H     H_    0.016250 0.765819 0.442017 0.235302
H25   H     H_    0.950861 0.578994 0.272511 0.239076
H26   H     H_    0.059106 0.630534 0.329041 0.213623
H27   H     H_    0.213074 0.402197 0.894498 0.233063
H28   H     H_    0.161833 0.396374 0.951278 0.205069
H29   H     H_    0.344536 0.379116 0.113232 0.413756
H30   H     H_    0.179232 0.343120 0.746798 0.188052
H31   H     H_    0.153323 0.240500 0.695932 0.188623
H32   H     H_    0.862371 0.033071 0.604289 0.172537
H33   H     H_    0.832382 0.062076 0.677382 0.216866
H34   H     H_    0.115779 0.103199 0.301684 0.277699
H35   H     H_    0.751764 0.290605 0.738004 0.383115
H36   H     H_    0.093192 0.333559 0.401556 0.350150
H37   H     H_    0.945431 0.058092 0.107181 0.349946
H38   H     H_    0.106069 0.337487 0.043836 0.172095
H39   H     H_    0.098347 0.283054 0.097785 0.207158
H40   H     H_    0.395518 0.696110 0.421694 0.206251
H41   H     H_    0.439079 0.682318 0.355449 0.236613
H42   H     H_    0.325700 0.575627 0.002226 0.393249
H43   H     H_    0.416730 0.845002 0.182597 0.260799
H44   H     H_    0.314909 0.776821 0.090436 0.254371
H45   H     H_    0.399351 0.046218 0.324375 0.427061
H46   H     H_    0.202792 0.846419 0.315730 0.246713
H47   H     H_    0.310050 0.911276 0.394480 0.300704
H48   H     H_    0.188211 0.700357 0.352869 0.212066
H49   H     H_    0.292855 0.750151 0.429386 0.219221
N1    N     N_3   0.130750 0.096977 0.251424 -0.401257
N2    N     N_3   0.055822 0.762676 0.414884 -0.450665
N3    N     N_3   0.006376 0.609631 0.269510 -0.396597
N4    N     N_3   0.158155 0.400947 0.895541 -0.365877
N5    N     N_3   0.160083 0.286672 0.751469 -0.420241
N6    N     N_3   0.849205 0.079859 0.635120 -0.339541
N7    N     N_3   0.099965 0.338920 0.098264 -0.373157
N8    N     N_3   0.408472 0.653152 0.383854 -0.392568
N9    N     N_3   0.362927 0.782129 0.143682 -0.323207
N10   N     N_3   0.257512 0.847722 0.355712 -0.414108
N11   N     N_3   0.245378 0.699609 0.365161 -0.409776
N12   N     N_3   0.743424 0.507836 0.903990 -0.321486
N13   N     N_3   0.262054 0.157100 0.212778 -0.323126
N14   N     N_3   0.780385 0.544081 0.625140 -0.332097
N15   N     N_3   0.256460 0.410089 0.532815 -0.377218
N16   N     N_3   0.133819 0.287215 0.547918 -0.411076
N17   N     N_3   0.975911 0.749494 0.087507 -0.385558
O1    O     O_R   0.591640 0.539900 0.448310 -0.567135
O2    O     O_R   0.948270 0.908330 0.356580 -0.519375
O3    O     O_R   0.960090 0.908280 0.551610 -0.635171
O4    O     O_R   0.591610 0.643330 0.551710 -0.632410
O5    O     O_R   0.856650 0.908310 0.448190 -0.578592
O6    O     O_R   0.051730 0.091500 0.643240 -0.624828
O7    O     O_R   0.948290 0.091530 0.539820 -0.605572
O8    O     O_R   0.143350 0.091510 0.551630 -0.592795
O9    O     O_R   0.039910 0.091550 0.448210 -0.566844
O10   O     O_R   0.408400 0.448280 0.356670 -0.561537
O11   O     O_R   0.408370 0.551710 0.460080 -0.606401
O12   O     O_R   0.051750 0.643320 0.091550 -0.650444
O13   O     O_R   0.408390 0.356670 0.448290 -0.596397
O14   O     O_R   0.408360 0.460100 0.551690 -0.574588
O15   O     O_R   0.591630 0.448290 0.539920 -0.583984
O16   O     O_R   0.591600 0.551720 0.643330 -0.584396
O17   O     O_R   0.948300 0.539910 0.091570 -0.598488
O18   O     O_2   0.325957 0.914014 0.165085 -0.300126
O19   O     O_2   0.227361 0.907465 0.222492 -0.303890
O20   O     O_3   0.392282 0.996539 0.334526 -0.479042
O21   O     O_2   0.707484 0.610071 0.250701 -0.179830
O22   O     O_2   0.747312 0.757998 0.278863 -0.165578
O23   O     O_R   0.039910 0.448280 0.091610 -0.574416
O24   O     O_3   0.865931 0.728176 0.356106 -0.631922
O25   O     O_2   0.569316 0.620453 0.241449 -0.164111
O26   O     O_2   0.581875 0.508532 0.275401 -0.208284
O27   O     O_3   0.493547 0.572036 0.321826 -0.580560
O28   O     O_2   0.621140 0.589495 0.846713 -0.182390
O29   O     O_2   0.510288 0.465760 0.700305 -0.251094
O30   O     O_3   0.568635 0.434816 0.825412 -0.473450
O31   O     O_2   0.881202 0.473045 0.626280 -0.236521
O32   O     O_2   0.986450 0.592742 0.777601 -0.284634
O33   O     O_3   0.932873 0.434471 0.747110 -0.516019
O34   O     O_R   0.143370 0.551700 0.091590 -0.618259
O35   O     O_2   0.279925 0.050682 0.388128 -0.214654
O36   O     O_2   0.252709 0.036207 0.504094 -0.233308
O37   O     O_3   0.124255 0.991824 0.358300 -0.617147
O38   O     O_2   0.421500 0.172031 0.547756 -0.204907
O39   O     O_2   0.415538 0.201041 0.426687 -0.266738
O40   O     O_3   0.504773 0.329842 0.586016 -0.566508
O41   O     O_2   0.830146 0.822337 0.183790 -0.145370
O42   O     O_2   0.967074 0.950495 0.240356 -0.253067
O43   O     O_3   0.888408 0.829357 0.078214 -0.480472
O44   O     O_2   0.390890 0.313788 0.220142 -0.225346
O45   O     O_R   0.948300 0.356650 0.908390 -0.568002
O46   O     O_2   0.256802 0.213586 0.078674 -0.270236
O47   O     O_3   0.310399 0.377579 0.143664 -0.563393
O48   O     O_2   0.746187 0.148069 0.635124 -0.232264
O49   O     O_2   0.797959 0.185339 0.789578 -0.281877
O50   O     O_3   0.811628 0.307343 0.750222 -0.510903
O51   O     O_2   0.035923 0.367245 0.228923 -0.192871
O52   O     O_2   0.174969 0.467348 0.365364 -0.327174
O53   O     O_3   0.056492 0.348586 0.365030 -0.420221
O54   O     O_2   0.009011 0.164846 0.324240 -0.235957
O55   O     O_2   0.945554 0.198189 0.210484 -0.162326
O56   O     O_R   0.051750 0.460070 0.908380 -0.569564
O57   O     O_3   0.949241 0.056529 0.161210 -0.482867
O58   O     O_2   0.444520 0.671953 0.171843 -0.213625
O59   O     O_2   0.327264 0.535640 0.135430 -0.319456
O60   O     O_3   0.296544 0.598062 0.031021 -0.528131
O61   O     O_R   0.856690 0.448280 0.908350 -0.630824
O62   O     O_R   0.960140 0.551690 0.908340 -0.569663
O63   O     O_R   0.051710 0.908290 0.460000 -0.634900
S1    S     S_3+6 0.310373 0.908125 0.237783 0.031858
S2    S     S_3+6 0.815793 0.215905 0.728877 0.077672
S3    S     S_3+6 0.102525 0.374356 0.307109 0.077269
S4    S     S_3+6 0.000906 0.161265 0.239516 0.097808
S5    S     S_3+6 0.348778 0.619903 0.135607 0.058631
S6    S     S_3+6 0.763522 0.704605 0.320016 0.104604
S7    S     S_3+6 0.579621 0.591299 0.308756 0.119168
S8    S     S_3+6 0.592204 0.498685 0.781592 0.115843
S9    S     S_3+6 0.907748 0.503202 0.721813 0.075285
S10   S     S_3+6 0.228967 0.060557 0.433789 0.062647
S11   S     S_3+6 0.415927 0.232407 0.512612 0.104063
S12   S     S_3+6 0.913634 0.853383 0.182567 0.120042
S13   S     S_3+6 0.301872 0.296101 0.164928 0.065568
Zn1   Zn    Zn3+2 0.500020 0.430940 0.430950 1.190244
Zn2   Zn    Zn3+2 0.499980 0.569060 0.569050 1.100884
Zn3   Zn    Zn3+2 0.930950 0.430940 0.999980 1.112348
Zn4   Zn    Zn3+2 0.069100 0.569040 0.999960 1.091897
Zn5   Zn    Zn3+2 0.069070 0.999890 0.568970 1.054725
Zn6   Zn    Zn3+2 0.930930 0.999930 0.430860 1.212444

loop_
_geom_bond_atom_site_label_1
_geom_bond_atom_site_label_2
_ccdc_geom_bond_type
H17   O37   S    
H14   N15   S    
C28   O15   A    
C30   O12   A    
C22   C29   A    
O19   S1    D    
C27   C29   A    
C41   C42   A    
H48   N11   S    
O30   S8    S    
C9    H12   S    
H29   O47   S    
O59   S5    D    
H35   O50   S    
H25   N3    S    
C12   N1    S    
C2    N9    S    
C60   S5    S    
C39   C41   A    
C38   O8    A    
O7    Zn6   S    
C23   C59   A    
O62   Zn4   S    
C26   C27   A    
H42   O60   S    
O18   S1    D    
H5    N12   S    
C5    N10   S    
C56   N8    S    
C7    C45   S    
H11   N14   S    
C11   S6    S    
O31   S9    D    
O14   Zn2   S    
O49   S2    D    
C5    C6    A    
C15   S8    S    
C2    C60   A    
H46   N10   S    
C37   C49   S    
O42   S12   D    
O60   S5    S    
C15   C17   A    
C50   N6    S    
H33   N6    S    
C6    N11   S    
H28   N4    S    
C35   C42   S    
C20   N14   S    
C31   O23   A    
O32   S9    D    
C23   N7    S    
H10   N14   S    
O33   S9    S    
O53   S3    S    
C19   C20   A    
C45   C56   A    
C44   C46   A    
C8    C9    A    
C13   S7    S    
O21   S6    D    
H21   O43   S    
O45   Zn3   S    
O55   S4    D    
C9    C10   A    
C52   S13   S    
C31   O34   A    
O29   S8    D    
O4    Zn2   S    
C8    H1    S    
C47   C53   A    
H13   N15   S    
H30   N5    S    
C4    O11   A    
O37   S10   S    
C35   O63   A    
C39   N17   S    
C13   C14   A    
H16   N16   S    
O1    Zn1   S    
C16   O14   A    
C43   N2    S    
O5    Zn6   S    
H47   N10   S    
C18   C33   S    
C52   C54   A    
H37   O57   S    
H44   N9    S    
C54   C59   S    
O12   Zn4   S    
H18   O40   S    
H24   N2    S    
H27   N4    S    
O26   S7    D    
O15   Zn1   S    
C24   C25   A    
H3    O27   S    
C1    O4    A    
O39   S11   D    
H8    N13   S    
H39   N7    S    
O28   S8    D    
O35   S10   D    
C18   C19   A    
O50   S2    S    
H6    N12   S    
C50   C51   A    
C58   C59   A    
C40   C52   A    
O43   S12   S    
O36   S10   D    
H34   N1    S    
C30   O17   A    
C57   S4    S    
O47   S13   S    
O56   Zn4   S    
O16   Zn2   S    
O25   S7    D    
C12   C40   A    
H26   N3    S    
C43   C44   A    
C25   C38   S    
O52   S3    D    
O22   S6    D    
H38   N7    S    
C47   C48   A    
C23   C34   A    
O61   Zn3   S    
C17   C18   A    
H23   N1    S    
C33   O61   A    
C34   C45   A    
C38   O9    A    
O46   S13   D    
C26   S10   S    
C39   C46   A    
C12   C57   A    
C44   N3    S    
C17   N12   S    
C48   C49   A    
C51   S2    S    
C32   O45   A    
C7    C60   A    
H19   N17   S    
C55   C57   A    
C24   N16   S    
C22   C24   A    
C36   O5    A    
H43   N9    S    
C28   O16   A    
C42   C43   A    
O23   Zn3   S    
O58   S5    D    
C32   C53   S    
C31   C34   S    
C48   N5    S    
C32   O56   A    
C21   C28   S    
C47   N4    S    
C54   C55   A    
C3    S1    S    
C19   S9    S    
C8    C14   A    
H2    O24   S    
C30   C46   S    
C27   S11   S    
C1    O1    A    
C3    C5    A    
H7    O33   S    
C37   O6    A    
C22   N15   S    
C6    C7    A    
C1    C14   S    
O11   Zn2   S    
C40   N13   S    
H4    O30   S    
H31   N5    S    
C4    O10   A    
O48   S2    D    
H41   N8    S    
C55   S3    S    
C2    C3    A    
C25   C26   A    
O13   Zn1   S    
C36   O3    A    
H22   N2    S    
C11   C13   A    
O8    Zn5   S    
O17   Zn3   S    
O27   S7    S    
H20   N17   S    
H9    N13   S    
O63   Zn5   S    
O3    Zn5   S    
H45   O20   S    
O57   S4    S    
C56   C58   A    
C33   O62   A    
C37   O7    A    
O41   S12   D    
H36   O53   S    
H15   N16   S    
C35   O2    A    
H32   N6    S    
O40   S11   S    
O24   S6    S    
O44   S13   D    
C10   C11   A    
O34   Zn4   S    
C16   O13   A    
C15   C21   A    
C20   C21   A    
C16   C29   S    
O6    Zn5   S    
C49   C50   A    
C4    C58   S    
O51   S3    D    
O20   S1    S    
C10   C36   S    
H40   N8    S    
O2    Zn6   S    
C51   C53   A    
C41   S12   S    
O10   Zn1   S    
O54   S4    D    
O38   S11   D    
H49   N11   S    
O9    Zn6   S    
