data_mof_unit_57736.cif
_audit_creation_date              2012-12-10T16:58:31-0500
_audit_creation_method            fapswitch 2.2
_symmetry_space_group_name_H-M    P1
_symmetry_Int_Tables_number       1
_space_group_crystal_system       triclinic
_cell_length_a                    7.90951
_cell_length_b                    8.533914
_cell_length_c                    23.370704
_cell_angle_alpha                 93.930059
_cell_angle_beta                  84.619982
_cell_angle_gamma                 92.87257
_cell_volume                      1565.34199325

loop_
_atom_site_label
_atom_site_type_symbol
_atom_type_description
_atom_site_fract_x
_atom_site_fract_y
_atom_site_fract_z
_atom_type_partial_charge
C1    C     C_R   0.544468 0.794000 0.499126 0.944015
C2    C     C_R   0.565782 0.388850 0.292266 -0.256853
C3    C     C_R   0.363274 0.587324 0.765860 -0.158950
C4    C     C_R   0.560695 0.391755 0.233340 -0.148065
C5    C     C_R   0.479077 0.507047 0.792816 0.155230
C6    C     C_R   0.491179 0.518370 0.210431 0.153113
C7    C     C_2   0.567591 0.957517 0.500605 -0.393612
C8    C     C_2   0.432457 0.042287 0.498407 -0.381715
C9    C     C_R   0.499852 0.498073 0.610439 0.884126
C10   C     C_R   0.500171 0.502190 0.390006 0.881476
C11   C     C_R   0.371317 0.425294 0.123486 0.489303
C12   C     C_R   0.455510 0.205930 0.500466 0.945731
C13   C     C_R   0.593132 0.609081 0.879900 0.585180
C14   C     C_R   0.608466 0.610625 0.119556 0.574699
C15   C     C_R   0.349807 0.430977 0.884403 0.505481
C16   C     C_R   0.611075 0.611141 0.059286 -0.071711
C17   C     C_R   0.351764 0.425350 0.944320 -0.063133
C18   C     C_R   0.484509 0.518397 0.031785 -0.064263
C19   C     C_R   0.477944 0.518570 0.971818 -0.076444
C20   C     C_R   0.364608 0.424681 0.064158 -0.029572
C21   C     C_R   0.598245 0.611775 0.939377 -0.050838
C22   C     C_R   0.733564 0.701370 0.025718 0.228323
C23   C     C_R   0.602844 0.417002 0.760554 0.496674
C24   C     C_R   0.234053 0.329611 0.977503 0.230854
C25   C     C_R   0.723764 0.702452 0.966452 -0.235156
C26   C     C_R   0.240871 0.331948 0.036960 -0.253556
C27   C     C_3   0.021927 0.703432 0.050580 -0.728878
C28   C     C_3   0.166667 0.070875 0.936007 -0.732963
C29   C     C_3   0.660276 0.198261 0.805816 0.096671
C30   C     C_3   0.735929 0.165295 0.861069 -0.758956
C31   C     C_3   0.204237 0.752314 0.208908 0.093181
C32   C     C_3   0.133694 0.909921 0.199121 -0.721182
C33   C     C_3   0.679093 0.169104 0.644532 -0.749429
C34   C     C_R   0.424456 0.643789 0.246487 0.495211
C35   C     C_3   0.198752 0.778842 0.361027 -0.680059
C36   C     C_3   0.928085 0.231810 0.419335 -0.698534
C37   C     C_3   0.071866 0.769522 0.579911 -0.710521
C38   C     C_R   0.613752 0.411970 0.700336 0.086051
C39   C     C_R   0.431007 0.641763 0.306093 0.087968
C40   C     C_R   0.497551 0.496965 0.673011 -0.156629
C41   C     C_R   0.500153 0.512179 0.328600 -0.149913
C42   C     C_R   0.372225 0.582245 0.706414 -0.249741
H1    H     H_    0.818015 0.772524 0.941492 0.181500
H2    H     H_    0.073968 0.670885 0.005720 0.225142
H3    H     H_    0.994975 0.595281 0.074365 0.260825
H4    H     H_    0.119378 0.777842 0.072172 0.230506
H5    H     H_    0.992974 0.226347 0.975327 0.213876
H6    H     H_    0.067256 0.001700 0.913459 0.236177
H7    H     H_    0.189783 0.010712 0.975088 0.216906
H8    H     H_    0.285347 0.075110 0.906544 0.257870
H9    H     H_    0.700249 0.106099 0.772111 0.176010
H10   H     H_    0.519011 0.188456 0.814109 0.134339
H11   H     H_    0.697483 0.255348 0.895797 0.240408
H12   H     H_    0.149483 0.258509 0.061685 0.188885
H13   H     H_    0.689739 0.047512 0.874880 0.216973
H14   H     H_    0.876797 0.167991 0.853852 0.298007
H15   H     H_    0.119758 0.696845 0.243428 0.148230
H16   H     H_    0.200472 0.677035 0.168405 0.158258
H17   H     H_    0.212728 0.966918 0.163864 0.266571
H18   H     H_    0.001348 0.892250 0.187000 0.249471
H19   H     H_    0.133795 0.988182 0.239101 0.254207
H20   H     H_    0.825703 0.379982 0.641604 0.270370
H21   H     H_    0.788568 0.100802 0.625323 0.233408
H22   H     H_    0.594366 0.185636 0.610472 0.241594
H23   H     H_    0.282165 0.647664 0.686515 0.180976
H24   H     H_    0.607721 0.100507 0.678329 0.223495
H25   H     H_    0.456324 0.808263 0.374612 0.217733
H26   H     H_    0.126729 0.672265 0.344775 0.233728
H27   H     H_    0.146469 0.884392 0.345208 0.227749
H28   H     H_    0.179121 0.786102 0.408837 0.236645
H29   H     H_    0.145606 0.339821 0.441907 0.281717
H30   H     H_    0.000148 0.169660 0.382169 0.195257
H31   H     H_    0.806274 0.261638 0.404569 0.276400
H32   H     H_    0.907515 0.150602 0.454621 0.220180
H33   H     H_    0.854230 0.660057 0.558122 0.281474
H34   H     H_    0.618734 0.289463 0.309663 0.168532
H35   H     H_    0.000535 0.831877 0.617189 0.200430
H36   H     H_    0.090932 0.850114 0.544395 0.220593
H37   H     H_    0.194492 0.740431 0.594235 0.275664
H38   H     H_    0.267792 0.655623 0.791183 0.180315
H39   H     H_    0.611405 0.295863 0.205181 0.178853
H40   H     H_    0.694998 0.007689 0.504877 0.175180
H41   H     H_    0.305066 0.992080 0.494127 0.171997
H42   H     H_    0.894257 0.898075 0.033717 0.214609
N1    N     N_R   0.489972 0.518887 0.149641 -0.343441
N2    N     N_2   0.974649 0.630329 0.561926 -0.232085
N3    N     N_R   0.472263 0.517809 0.853980 -0.339261
N4    N     N_2   0.950330 0.457950 0.484560 0.021058
N5    N     N_2   0.049670 0.542050 0.515440 0.018056
N6    N     N_2   0.869021 0.789717 0.050488 -0.256107
N7    N     N_2   0.110155 0.227981 0.951830 -0.253088
N8    N     N_2   0.740335 0.319408 0.668936 -0.265135
N9    N     N_2   0.378697 0.774980 0.342409 -0.273334
N10   N     N_2   0.025528 0.370300 0.437927 -0.220876
O1    O     O_R   0.389250 0.738570 0.503790 -0.621198
O2    O     O_2   0.708478 0.696039 0.847861 -0.566632
O3    O     O_2   0.721788 0.700719 0.148316 -0.537080
O4    O     O_2   0.228548 0.350010 0.856233 -0.529603
O5    O     O_3   0.723987 0.346824 0.788094 -0.570600
O6    O     O_3   0.373169 0.777138 0.223579 -0.586349
O7    O     O_R   0.610750 0.261430 0.496210 -0.616916
O8    O     O_R   0.678390 0.711620 0.493890 -0.651253
O9    O     O_R   0.321610 0.288380 0.506110 -0.648231
O10   O     O_R   0.355400 0.513520 0.588790 -0.610019
O11   O     O_R   0.644600 0.486480 0.411210 -0.614617
O12   O     O_R   0.644550 0.486570 0.578900 -0.649153
O13   O     O_R   0.355450 0.513430 0.421100 -0.632499
O14   O     O_2   0.258574 0.335096 0.155260 -0.582443
Zn1   Zn    Zn3+2 0.306930 0.518000 0.506610 0.944752
Zn2   Zn    Zn3+2 0.693070 0.482000 0.493390 0.942380

loop_
_geom_bond_atom_site_label_1
_geom_bond_atom_site_label_2
_ccdc_geom_bond_type
C23   O5    S    
O11   Zn2   S    
C3    C42   A    
N5    Zn1   S    
C8    H41   S    
C25   H1    S    
C7    C8    D    
C39   C41   A    
H29   N10   S    
C37   H37   S    
C6    N1    S    
C20   C26   A    
C31   H16   S    
C19   C21   A    
C24   C26   A    
C32   H19   S    
C33   H22   S    
C29   H9    S    
O10   Zn1   S    
C2    C41   A    
C38   N8    S    
C27   N6    S    
C18   C19   A    
C39   N9    S    
C28   H8    S    
C27   H2    S    
C4    H39   S    
C35   H28   S    
C22   C25   A    
H20   N8    S    
C42   H23   S    
C34   O6    S    
C1    O1    A    
N4    Zn2   S    
C27   H3    S    
C40   C42   A    
C10   C41   S    
O13   Zn1   S    
C10   O13   A    
H42   N6    S    
C3    H38   S    
C26   H12   S    
C33   H24   S    
C35   N9    S    
C30   H11   S    
N4    N10   S    
C11   C20   A    
C17   C24   A    
C29   O5    S    
C13   O2    S    
C34   C39   A    
C37   N2    S    
C12   O9    A    
C4    C6    A    
O1    Zn1   S    
C33   N8    S    
O7    Zn2   S    
C37   H35   S    
C9    C40   S    
C6    C34   A    
C2    C4    A    
C29   C30   S    
C28   H7    S    
H33   N2    S    
C31   C32   S    
C5    C23   A    
C8    C12   S    
C13   N3    A    
C22   N6    S    
C13   C21   A    
C31   O6    S    
C36   H32   S    
C27   H4    S    
C14   C16   A    
O8    Zn2   S    
C32   H18   S    
C15   O4    S    
C24   N7    S    
C2    H34   S    
C14   O3    S    
C15   N3    A    
O12   Zn2   S    
C15   C17   A    
C21   C25   A    
C28   H6    S    
C16   C22   A    
C1    C7    S    
H5    N7    S    
C14   N1    A    
C3    C5    A    
N2    N5    S    
C23   C38   A    
C30   H13   S    
O9    Zn1   S    
C31   H15   S    
C9    O12   A    
C12   O7    A    
C38   C40   A    
C30   H14   S    
C35   H26   S    
C11   N1    A    
C9    O10   A    
C17   C19   A    
C28   N7    S    
C18   C20   A    
C33   H21   S    
C36   H31   S    
C5    N3    S    
C36   N10   S    
C7    H40   S    
N4    N5    D    
C35   H27   S    
C16   C18   A    
C11   O14   S    
H25   N9    S    
C10   O11   A    
C32   H17   S    
C37   H36   S    
C1    O8    A    
C36   H30   S    
C29   H10   S    
