data_mof_unit_27239.cif
_audit_creation_date              2012-12-10T18:14:40-0500
_audit_creation_method            fapswitch 2.2
_symmetry_space_group_name_H-M    P1
_symmetry_Int_Tables_number       1
_space_group_crystal_system       triclinic
_cell_length_a                    10.777148
_cell_length_b                    9.399133
_cell_length_c                    27.826872
_cell_angle_alpha                 90.292276
_cell_angle_beta                  90.865137
_cell_angle_gamma                 90.489772
_cell_volume                      2818.28372556

loop_
_atom_site_label
_atom_site_type_symbol
_atom_type_description
_atom_site_fract_x
_atom_site_fract_y
_atom_site_fract_z
_atom_type_partial_charge
C1    C     C_R   0.259253 0.499648 0.497698 0.785717
C2    C     C_R   0.477863 0.390169 0.275094 -0.124539
C3    C     C_R   0.506724 0.519426 0.253040 0.292029
C4    C     C_R   0.499559 0.530829 0.101370 -0.054388
C5    C     C_R   0.390274 0.502745 0.126824 0.000092
C6    C     C_R   0.279861 0.473695 0.101540 -0.126945
C7    C     C_R   0.609848 0.563339 0.126980 -0.120526
C8    C     C_R   0.503214 0.501099 0.353979 -0.120666
C9    C     C_R   0.491286 0.500870 0.645392 -0.114858
C10   C     C_R   0.383232 0.507778 0.974008 0.073295
C11   C     C_R   0.611951 0.524104 0.974791 -0.073658
C12   C     C_R   0.501853 0.499649 0.407313 0.806369
C13   C     C_R   0.497235 0.513566 0.949158 -0.000575
C14   C     C_R   0.271255 0.506473 0.946839 -0.186360
C15   C     C_R   0.271673 0.504051 0.896913 -0.127488
C16   C     C_R   0.383557 0.502460 0.872184 -0.000180
C17   C     C_R   0.496582 0.506582 0.898185 -0.054558
C18   C     C_R   0.608956 0.502540 0.873159 -0.119480
C19   C     C_R   0.606394 0.499593 0.822682 0.585424
C20   C     C_R   0.385033 0.497185 0.821787 0.536650
C21   C     C_R   0.438168 0.611002 0.721518 -0.124022
C22   C     C_R   0.433128 0.612422 0.670909 0.235895
C23   C     C_R   0.739764 0.500758 0.501092 0.789902
C24   C     C_R   0.546449 0.388369 0.670693 -0.276644
C25   C     C_R   0.547488 0.387053 0.720691 -0.099945
C26   C     C_R   0.494464 0.498845 0.746334 0.287854
C27   C     C_R   0.384961 0.502727 0.024976 0.074731
C28   C     C_R   0.498511 0.526722 0.050373 -0.001070
C29   C     C_R   0.610885 0.547819 0.025287 -0.075466
C30   C     C_R   0.276936 0.473961 0.051605 -0.183095
C31   C     C_R   0.716311 0.600739 0.101739 -0.228438
C32   C     C_R   0.722889 0.503498 0.948961 0.676654
C33   C     C_R   0.721049 0.497220 0.898978 -0.227020
C34   C     C_R   0.496602 0.500332 0.592489 0.805704
C35   C     C_R   0.716325 0.597371 0.051725 0.677956
C36   C     C_3   0.072114 0.655168 0.503398 -0.416620
C37   C     C_3   0.072865 0.416240 0.540507 -0.421588
C38   C     C_3   0.929611 0.656239 0.502574 -0.382740
C39   C     C_3   0.930310 0.415336 0.542174 -0.399415
C40   C     C_3   0.061310 0.442116 0.446133 0.511297
C41   C     C_3   0.120268 0.500222 0.495968 0.146826
C42   C     C_3   0.876818 0.501729 0.499767 0.100474
C43   C     C_3   0.917072 0.431885 0.452222 -0.410436
C44   C     C_3   0.627421 0.085027 0.507599 -0.189909
C45   C     C_3   0.627526 0.917396 0.506880 -0.189494
C46   C     C_3   0.424614 0.083497 0.540601 -0.186625
C47   C     C_3   0.425365 0.915894 0.540797 -0.191041
C48   C     C_3   0.450859 0.082476 0.455257 -0.197548
C49   C     C_3   0.447266 0.915345 0.455727 -0.190118
C50   C     C_R   0.394215 0.503103 0.177241 0.536471
C51   C     C_R   0.610165 0.560948 0.177455 0.586184
C52   C     C_R   0.534789 0.638987 0.281216 -0.104668
C53   C     C_R   0.533684 0.629788 0.331073 -0.275069
C54   C     C_R   0.473995 0.378829 0.325498 0.233789
Cu1   Cu    Cu3+1 0.499860 0.642410 0.500020 0.894080
Cu2   Cu    Cu3+1 0.499860 0.357590 0.500020 0.905056
H1    H     H_    0.556451 0.739709 0.264435 0.155079
H2    H     H_    0.799727 0.636175 0.120615 0.215516
H3    H     H_    0.590256 0.301804 0.651697 0.160312
H4    H     H_    0.808166 0.484035 0.880610 0.213286
H5    H     H_    0.589932 0.299100 0.739581 0.157907
H6    H     H_    0.107052 0.728542 0.475365 0.193439
H7    H     H_    0.107722 0.306298 0.542202 0.176892
H8    H     H_    0.106467 0.698971 0.538473 0.163578
H9    H     H_    0.109735 0.467677 0.574005 0.159399
H10   H     H_    0.896376 0.710756 0.535523 0.166608
H11   H     H_    0.899606 0.462003 0.576826 0.169471
H12   H     H_    0.455246 0.300092 0.252189 0.154802
H13   H     H_    0.896454 0.718405 0.471007 0.177475
H14   H     H_    0.895473 0.303561 0.540658 0.165539
H15   H     H_    0.866446 0.485437 0.422279 0.128891
H16   H     H_    0.881936 0.320864 0.450054 0.162598
H17   H     H_    0.668928 0.124321 0.542097 0.136741
H18   H     H_    0.671068 0.877651 0.540688 0.141193
H19   H     H_    0.688606 0.123884 0.478527 0.143177
H20   H     H_    0.686584 0.880518 0.476907 0.140586
H21   H     H_    0.461008 0.122146 0.575934 0.150154
H22   H     H_    0.463906 0.880331 0.575886 0.183702
H23   H     H_    0.357166 0.124560 0.447327 0.163033
H24   H     H_    0.350036 0.877118 0.450427 0.135678
H25   H     H_    0.510994 0.116599 0.425339 0.182207
H26   H     H_    0.500418 0.876547 0.424484 0.144478
H27   H     H_    0.327891 0.121714 0.537837 0.130470
H28   H     H_    0.328462 0.874654 0.538302 0.141339
H29   H     H_    0.194770 0.450138 0.120275 0.196976
H30   H     H_    0.396428 0.694782 0.742383 0.156995
H31   H     H_    0.183402 0.503188 0.877748 0.198206
H32   H     H_    0.181293 0.510833 0.963153 0.178187
H33   H     H_    0.189004 0.446960 0.034843 0.169740
H34   H     H_    0.556526 0.724566 0.351763 0.161308
N1    N     N_R   0.503608 0.529281 0.201511 -0.459761
N2    N     N_R   0.495425 0.497840 0.798020 -0.459426
N3    N     N_3   0.500250 0.143650 0.501060 -0.117726
N4    N     N_3   0.500250 0.856350 0.501060 -0.115349
O1    O     O_R   0.317570 0.620260 0.500030 -0.612138
O2    O     O_R   0.317570 0.379740 0.500030 -0.577909
O3    O     O_R   0.499900 0.620250 0.430280 -0.596846
O4    O     O_R   0.499900 0.379750 0.430280 -0.569464
O5    O     O_R   0.682190 0.620260 0.500010 -0.597316
O6    O     O_R   0.682190 0.379740 0.500010 -0.599275
O7    O     O_R   0.499860 0.620280 0.569750 -0.572063
O8    O     O_R   0.499860 0.379720 0.569750 -0.592952
O9    O     O_2   0.289419 0.477793 0.201872 -0.539486
O10   O     O_2   0.276920 0.490403 0.796713 -0.538982
O11   O     O_2   0.716504 0.587604 0.202238 -0.534229
O12   O     O_2   0.713951 0.500461 0.798462 -0.533726
N5    N     N_2   0.434227 0.249523 0.347642 -0.428399
H35   H     H_    0.356465 0.259592 0.368441 0.257473
C55   C     C_3   0.439352 0.116577 0.321197 -0.726426
H36   H     H_    0.365238 0.112482 0.293044 0.240489
H37   H     H_    0.423914 0.026476 0.346098 0.214503
H38   H     H_    0.532033 0.103536 0.304869 0.241432
F1    F     F_    0.832055 0.473001 0.971352 -0.617764
F2    F     F_    0.815364 0.657624 0.029948 -0.607994
N6    N     N_2   0.081787 0.545028 0.407068 -0.465042
H39   H     H_    0.023972 0.528981 0.377559 0.254912
C56   C     C_3   0.206616 0.574159 0.391244 -0.702551
H40   H     H_    0.203929 0.622991 0.354950 0.236375
H41   H     H_    0.259898 0.474664 0.388911 0.222597
H42   H     H_    0.252984 0.652222 0.415377 0.240178
N7    N     N_2   0.110283 0.303749 0.430502 -0.430930
H43   H     H_    0.094107 0.283440 0.394435 0.256952
C57   C     C_3   0.097826 0.175209 0.458928 -0.763080
H44   H     H_    0.105456 0.080110 0.435286 0.217000
H45   H     H_    0.008328 0.167599 0.477646 0.221855
H46   H     H_    0.174252 0.168517 0.485366 0.238316
N8    N     N_2   0.365863 0.719391 0.645180 -0.432809
H47   H     H_    0.306451 0.680928 0.618654 0.245798
C58   C     C_3   0.321440 0.844358 0.669950 -0.719839
H48   H     H_    0.283948 0.920814 0.643241 0.216441
H49   H     H_    0.398855 0.897855 0.689931 0.238891
H50   H     H_    0.245854 0.814699 0.694783 0.246062

loop_
_geom_bond_atom_site_label_1
_geom_bond_atom_site_label_2
_ccdc_geom_bond_type
C10   C27   A    
C23   O5    A    
C21   C26   A    
C43   H16   S    
Cu2   O4    S    
Cu1   Cu2   S    
C56   H41   S    
C57   H44   S    
C52   C53   A    
C40   N7    S    
C20   N2    A    
C34   O8    A    
C6    H29   S    
C54   N5    S    
C45   H20   S    
C48   H23   S    
C28   C29   A    
C38   C42   S    
C2    H12   S    
C4    C7    A    
C5    C6    A    
C9    C22   A    
C57   H45   S    
C40   N6    S    
C26   N2    S    
C15   C16   A    
C48   H25   S    
C35   F2    S    
C3    N1    S    
C18   C19   A    
C19   N2    A    
C51   N1    A    
C37   H7    S    
C47   N4    S    
C40   C43   S    
C38   H10   S    
C16   C17   A    
N6    C56   S    
C37   H9    S    
N5    H35   S    
C44   N3    S    
C32   F1    S    
C12   O4    A    
C16   C20   A    
C58   H50   S    
C23   O6    A    
C38   H13   S    
C50   O9    S    
C21   C22   A    
C27   C30   A    
N5    C55   S    
C36   C41   S    
Cu1   N4    S    
C36   H6    S    
C45   N4    S    
C4    C28   A    
C39   C42   S    
Cu2   N3    S    
C30   H33   S    
C7    C31   A    
C48   N3    S    
C34   O7    A    
C24   C25   A    
Cu1   O1    S    
C10   C14   A    
C55   H38   S    
C8    C54   A    
C57   H46   S    
C25   C26   A    
C45   H18   S    
C49   H26   S    
C44   H19   S    
N8    C58   S    
C7    C51   A    
C1    O1    A    
Cu1   O3    S    
C17   C18   A    
N7    H43   S    
C25   H5    S    
C47   H28   S    
C23   C42   S    
C12   O3    A    
C1    C41   S    
C48   C49   S    
C6    C30   A    
C11   C32   A    
C33   H4    S    
C2    C54   A    
C9    C34   S    
C49   N4    S    
C31   C35   A    
C5    C50   A    
C56   H42   S    
C42   C43   S    
Cu2   O6    S    
N8    H47   S    
C53   H34   S    
C44   C45   S    
C31   H2    S    
C15   H31   S    
C58   H48   S    
Cu2   O2    S    
Cu1   O7    S    
C46   C47   S    
C40   C41   S    
C43   H15   S    
C39   H11   S    
C4    C5    A    
C10   C13   A    
C8    C53   A    
C21   H30   S    
C46   H21   S    
C3    C52   A    
C9    C24   A    
C20   O10   S    
C29   C35   A    
C49   H24   S    
C13   C17   A    
C32   C33   A    
C55   H37   S    
C2    C3    A    
C14   H32   S    
C37   C39   S    
C36   H8    S    
C56   H40   S    
C11   C13   A    
C22   N8    S    
C46   N3    S    
C24   H3    S    
C36   C38   S    
C39   H14   S    
C37   C41   S    
C44   H17   S    
C18   C33   A    
C51   O11   S    
N7    C57   S    
C52   H1    S    
Cu2   O8    S    
C46   H27   S    
C19   O12   S    
C50   N1    A    
C11   C29   A    
Cu1   O5    S    
C27   C28   A    
C14   C15   A    
C1    O2    A    
C47   H22   S    
N6    H39   S    
C55   H36   S    
C8    C12   S    
C58   H49   S    
