data_mof_unit_34449.cif
_audit_creation_date              2012-12-11T15:30:35-0500
_audit_creation_method            fapswitch 2.2
_symmetry_space_group_name_H-M    P1
_symmetry_Int_Tables_number       1
_space_group_crystal_system       triclinic
_cell_length_a                    6.99061
_cell_length_b                    20.463253
_cell_length_c                    24.376698
_cell_angle_alpha                 89.731022
_cell_angle_beta                  91.59022
_cell_angle_gamma                 88.727612
_cell_volume                      3484.85008664

loop_
_atom_site_label
_atom_site_type_symbol
_atom_type_description
_atom_site_fract_x
_atom_site_fract_y
_atom_site_fract_z
_atom_type_partial_charge
O1    O     O_R   0.507310 0.423620 0.460450 -0.544595
O2    O     O_R   0.170760 0.556060 0.437190 -0.537370
O3    O     O_R   0.004040 0.576380 0.539550 -0.536188
C1    C     C_R   0.336981 0.576098 0.421143 0.718317
O4    O     O_R   0.177350 0.422870 0.454070 -0.538980
O5    O     O_R   0.010680 0.442240 0.556560 -0.526520
C2    C     C_R   0.345604 0.398434 0.443904 0.753432
O6    O     O_R   0.500670 0.557760 0.443440 -0.535772
O7    O     O_3   0.340380 0.506510 0.533610 -0.362631
V1    V     V_3+5 0.064130 0.498790 0.493770 1.437083
O8    O     O_R   0.681170 0.443940 0.562810 -0.535096
C3    C     C_R   0.853954 0.424681 0.578982 0.723066
O9    O     O_R   0.674570 0.577130 0.545930 -0.537900
C4    C     C_R   0.842782 0.601111 0.556236 0.692705
V2    V     V_3+5 0.564560 0.501210 0.506230 1.430988
O10   O     O_3   0.838170 0.493490 0.466390 -0.376393
C5    C     C_R   0.974825 0.837878 0.911939 -0.045482
C6    C     C_R   0.850053 0.661652 0.588507 -0.038753
C7    C     C_R   0.000886 0.720198 0.910105 -0.111384
C8    C     C_R   0.998446 0.778366 0.939326 -0.163809
C9    C     C_R   0.949165 0.838967 0.854672 -0.198193
C10   C     C_R   0.949871 0.780163 0.823437 0.079678
C11   C     C_R   0.982537 0.719919 0.852224 0.057157
C12   C     C_R   0.919070 0.779405 0.764895 0.063373
C13   C     C_R   0.921571 0.718616 0.735910 0.035061
C14   C     C_R   0.959577 0.660682 0.766094 -0.224190
C15   C     C_R   0.992222 0.660585 0.822884 -0.025291
C16   C     C_R   0.884380 0.837526 0.734324 -0.181054
C17   C     C_R   0.853662 0.836603 0.677864 -0.205557
C18   C     C_R   0.854522 0.777948 0.649144 0.143621
C19   C     C_R   0.887984 0.717780 0.677383 0.097335
C20   C     C_R   0.820815 0.779325 0.592078 -0.166643
C21   C     C_R   0.818215 0.721657 0.562092 -0.176616
C22   C     C_R   0.884737 0.659502 0.645558 -0.208506
H1    H     H_    0.905814 0.611596 0.663453 0.099310
H2    H     H_    0.790876 0.723804 0.518135 0.103385
H3    H     H_    0.827772 0.882625 0.656400 0.119213
H4    H     H_    0.015019 0.675466 0.933715 0.155051
H5    H     H_    0.015656 0.776922 0.983642 0.124532
H6    H     H_    0.930789 0.886598 0.836110 0.086748
H7    H     H_    0.970252 0.613954 0.746224 0.146890
H8    H     H_    0.879265 0.885208 0.752657 0.119275
H9    H     H_    0.795396 0.825305 0.570549 0.109036
C23   C     C_3   0.775474 0.259707 0.798118 -0.415664
C24   C     C_3   0.138562 0.252862 0.795883 0.675349
C25   C     C_3   0.127328 0.300254 0.742687 0.249140
H10   H     H_    0.805391 0.361115 0.772474 0.173687
H11   H     H_    0.768877 0.282371 0.839436 0.188372
H12   H     H_    0.122206 0.350885 0.758513 0.079642
C26   C     C_1   0.878649 0.380700 0.625485 -0.174814
C27   C     C_3   0.948700 0.211565 0.794207 0.186503
C28   C     C_3   0.777083 0.313025 0.753063 -0.446889
C29   C     C_3   0.930662 0.296263 0.710420 0.152746
C30   C     C_3   0.898422 0.225564 0.690105 -0.373588
C31   C     C_3   0.924373 0.175818 0.738289 -0.421948
C32   C     C_1   0.906611 0.343279 0.663819 -0.001521
C33   C     C_1   0.943852 0.162327 0.839399 -0.026419
C34   C     C_1   0.951785 0.122319 0.876441 -0.218409
H13   H     H_    0.795860 0.144662 0.738830 0.157791
H14   H     H_    0.047342 0.141745 0.731908 0.163777
H15   H     H_    0.754038 0.221898 0.671422 0.162076
H16   H     H_    0.645412 0.231803 0.790651 0.207853
H17   H     H_    0.634068 0.318853 0.732956 0.221076
H18   H     H_    0.988957 0.212533 0.655154 0.151272
C35   C     C_3   0.593044 0.700249 0.269150 -0.464395
C36   C     C_3   0.244455 0.695517 0.242467 -0.273865
C37   C     C_3   0.265228 0.747960 0.196643 -0.281969
H19   H     H_    0.620560 0.648486 0.257297 0.195303
H20   H     H_    0.094669 0.696495 0.256811 0.170980
H21   H     H_    0.271864 0.646044 0.225234 0.180090
H22   H     H_    0.277047 0.723944 0.156079 0.194823
H23   H     H_    0.132861 0.779161 0.194192 0.180350
C38   C     C_1   0.480721 0.878270 0.125000 -0.165835
C39   C     C_3   0.387011 0.707718 0.291199 0.186634
C40   C     C_3   0.623325 0.747992 0.219872 -0.119665
C41   C     C_3   0.439881 0.791880 0.208926 0.120175
C42   C     C_3   0.397927 0.828576 0.263174 -0.375810
C43   C     C_3   0.357830 0.779673 0.310896 0.346311
C44   C     C_1   0.465555 0.839733 0.162939 -0.047841
C45   C     C_1   0.359574 0.660047 0.337073 -0.053844
C46   C     C_1   0.343697 0.621602 0.375010 -0.188652
H24   H     H_    0.466017 0.788853 0.344562 0.016326
H25   H     H_    0.522122 0.859116 0.274995 0.111347
H26   H     H_    0.699039 0.710913 0.302665 0.146814
H27   H     H_    0.742109 0.780931 0.231973 0.119732
H28   H     H_    0.273493 0.862899 0.256584 0.173295
C47   C     C_R   0.475199 0.162053 0.088756 -0.041265
C48   C     C_R   0.347492 0.337012 0.411913 -0.150453
C49   C     C_R   0.558440 0.275670 0.095799 -0.113259
C50   C     C_R   0.534176 0.219658 0.064519 -0.166893
C51   C     C_R   0.435426 0.161330 0.144886 -0.196355
C52   C     C_R   0.459065 0.218024 0.178209 0.078323
C53   C     C_R   0.529096 0.275365 0.152926 0.061396
C54   C     C_R   0.416349 0.219372 0.235548 0.060399
C55   C     C_R   0.446540 0.277510 0.267074 0.052162
C56   C     C_R   0.522574 0.331984 0.240551 -0.225553
C57   C     C_R   0.565679 0.331463 0.184890 -0.031961
C58   C     C_R   0.340561 0.164711 0.262214 -0.179571
C59   C     C_R   0.291026 0.167002 0.316817 -0.180946
C60   C     C_R   0.313979 0.223666 0.347477 0.080401
C61   C     C_R   0.396368 0.279578 0.324021 0.104312
C62   C     C_R   0.247874 0.225029 0.401136 -0.254931
C63   C     C_R   0.253013 0.282311 0.432065 0.407572
C64   C     C_R   0.419034 0.335466 0.358384 -0.299258
H29   H     H_    0.483402 0.379588 0.344287 0.127758
H30   H     H_    0.229354 0.124081 0.334945 0.120497
H31   H     H_    0.600660 0.319175 0.074423 0.149467
H32   H     H_    0.564825 0.220987 0.021185 0.102236
H33   H     H_    0.393201 0.115094 0.161329 0.090112
H34   H     H_    0.553106 0.376204 0.262541 0.147746
H35   H     H_    0.312995 0.119252 0.241824 0.118594
H36   H     H_    0.182620 0.182284 0.418460 0.131260
O11   O     O_R   0.323590 0.942280 0.056590 -0.532656
O12   O     O_R   0.647030 0.077140 0.045940 -0.536611
O13   O     O_R   0.813570 0.057750 0.943430 -0.539658
C65   C     C_R   0.478533 0.101240 0.056402 0.687131
O14   O     O_R   0.653510 0.943950 0.062820 -0.533453
O15   O     O_R   0.820100 0.923600 0.960440 -0.533265
C66   C     C_R   0.487288 0.923892 0.078884 0.727208
O16   O     O_R   0.317060 0.076430 0.039590 -0.535956
O17   O     O_3   0.483830 0.993520 0.966410 -0.372242
V3    V     V_3+5 0.760140 0.001200 0.006230 1.427790
O18   O     O_R   0.149560 0.922820 0.954030 -0.536191
C67   C     C_R   0.981333 0.898918 0.943625 0.699232
O19   O     O_R   0.143080 0.056020 0.937150 -0.540250
C68   C     C_R   0.970810 0.075921 0.921408 0.725283
V4    V     V_3+5 0.259690 0.998730 0.993720 1.415053
O20   O     O_3   0.986120 0.006480 0.033580 -0.365099
C69   C     C_2   0.043242 0.596893 0.849676 0.748077
O21   O     O_2   0.953007 0.548209 0.837665 -0.558576
O22   O     O_R   0.199657 0.591860 0.886601 -0.662829
H37   H     H_    0.221294 0.545791 0.901337 0.301161
O23   O     O_3   0.302598 0.209793 0.794478 -0.596208
C70   C     C_3   0.366320 0.182944 0.846126 0.088099
H38   H     H_    0.263199 0.187095 0.879505 0.162024
H39   H     H_    0.492252 0.209126 0.862241 0.119588
C71   C     C_3   0.426050 0.111688 0.838524 -0.731399
H40   H     H_    0.542834 0.107998 0.808674 0.208815
H41   H     H_    0.478112 0.090514 0.878339 0.208816
H42   H     H_    0.302813 0.083288 0.822874 0.217113
O24   O     O_3   0.137947 0.290851 0.845289 -0.585890
C72   C     C_3   0.293998 0.333797 0.850899 0.051610
H43   H     H_    0.246768 0.383741 0.837676 0.150429
H44   H     H_    0.419331 0.319059 0.826439 0.147303
C73   C     C_3   0.356123 0.337985 0.911136 -0.710919
H45   H     H_    0.402467 0.289229 0.927268 0.198392
H46   H     H_    0.477389 0.371853 0.915762 0.194045
H47   H     H_    0.235269 0.356677 0.935671 0.238420
O25   O     O_3   0.290400 0.302046 0.709036 -0.565266
C74   C     C_3   0.351080 0.241953 0.686294 0.118144
H48   H     H_    0.258498 0.200499 0.692363 0.133452
H49   H     H_    0.484575 0.225947 0.707431 0.153305
C75   C     C_3   0.386466 0.251300 0.625462 -0.729717
H50   H     H_    0.495928 0.289074 0.619710 0.229256
H51   H     H_    0.438201 0.204607 0.607500 0.177170
H52   H     H_    0.252041 0.267300 0.603681 0.251691
C76   C     C_2   0.685267 0.711239 0.169242 0.767580
O26   O     O_2   0.826015 0.728668 0.144872 -0.579099
O27   O     O_R   0.583245 0.657320 0.150525 -0.657144
H53   H     H_    0.639517 0.637142 0.116490 0.309690
O28   O     O_3   0.165638 0.789293 0.327331 -0.553922
C77   C     C_3   0.157020 0.802383 0.384017 0.105320
H54   H     H_    0.222164 0.850356 0.393341 0.113390
H55   H     H_    0.232241 0.763243 0.408742 0.113347
C78   C     C_3   0.948520 0.805050 0.400353 -0.733755
H56   H     H_    0.881478 0.757211 0.392241 0.214694
H57   H     H_    0.939571 0.816123 0.444778 0.172858
H58   H     H_    0.868873 0.843714 0.376441 0.218435
C79   C     C_2   0.656399 0.390417 0.162248 0.754121
O29   O     O_2   0.593547 0.444859 0.173443 -0.546995
O30   O     O_R   0.818736 0.383872 0.130289 -0.665570
H59   H     H_    0.868521 0.427577 0.117995 0.305706
O31   O     O_3   0.171944 0.283756 0.483270 -0.563008
C80   C     C_3   0.969336 0.285062 0.477242 0.116141
H60   H     H_    0.913237 0.264924 0.437599 0.106677
H61   H     H_    0.915740 0.336387 0.480104 0.146756
C81   C     C_3   0.884545 0.245565 0.523253 -0.761492
H62   H     H_    0.929933 0.265497 0.563566 0.218752
H63   H     H_    0.725773 0.247998 0.519708 0.193233
H64   H     H_    0.933698 0.193717 0.520757 0.221396

loop_
_geom_bond_atom_site_label_1
_geom_bond_atom_site_label_2
_ccdc_geom_bond_type
C13   C19   A    
O30   H59   S    
C78   H56   S    
C38   C66   S    
C31   H13   S    
C79   O29   D    
C4    C6    S    
C62   H36   S    
C55   C56   A    
C41   C44   S    
C1    O6    A    
C21   H2    S    
C70   C71   S    
C73   H45   S    
O16   V4    S    
O25   C74   S    
O18   C67   A    
C36   H21   S    
C29   C30   S    
O14   V3    S    
C71   H41   S    
C25   H12   S    
C14   C15   A    
C76   O26   D    
O13   C68   A    
C16   C17   A    
C37   H23   S    
C47   C51   A    
O14   C66   A    
O5    C3    A    
C18   C19   A    
C81   H64   S    
C36   H20   S    
C24   C27   S    
V2    O10   S    
C36   C39   S    
C63   O31   S    
C5    C8    A    
C57   C79   S    
C22   H1    S    
O15   V3    S    
C2    C48   S    
C80   H60   S    
C52   C53   A    
C48   C64   A    
O11   C66   A    
O8    V2    S    
C40   H27   S    
C1    C46   S    
C7    C8    A    
C81   H63   S    
C74   C75   S    
C55   C61   A    
V4    O20   S    
C27   C33   S    
C11   C15   A    
C48   C63   A    
C75   H51   S    
O7    V1    S    
C27   C31   S    
C31   H14   S    
C40   C76   S    
C36   C37   S    
C78   H57   S    
O13   V3    S    
C39   C45   S    
O9    C4    A    
C24   O24   S    
C79   O30   S    
C72   C73   S    
C62   C63   A    
C60   C62   A    
C64   H29   S    
C73   H46   S    
O28   C77   S    
C77   H55   S    
C71   H42   S    
C72   H43   S    
C41   C42   S    
C49   C50   A    
C51   C52   A    
O4    C2    A    
C8    H5    S    
C69   O21   D    
C35   H26   S    
C70   H39   S    
C23   H16   S    
C13   C14   A    
C42   C43   S    
C56   H34   S    
C42   H25   S    
C26   C32   T    
C35   C39   S    
C65   O16   A    
O12   C65   A    
C7    C11   A    
C40   C41   S    
C17   C18   A    
C7    H4    S    
C77   C78   S    
C47   C65   S    
C43   H24   S    
C5    C67   S    
O18   V4    S    
O27   H53   S    
C35   H19   S    
C56   C57   A    
C49   H31   S    
C52   C54   A    
C38   C44   T    
C19   C22   A    
C74   H49   S    
O15   C67   A    
C12   C13   A    
C75   H52   S    
C6    C22   A    
C80   C81   S    
O17   V3    S    
C70   H38   S    
O3    C4    A    
C81   H62   S    
O1    V2    S    
C23   C27   S    
C78   H58   S    
C42   H28   S    
C34   C68   S    
C61   C64   A    
O9    V2    S    
O23   C70   S    
C15   C69   S    
C10   C12   A    
O22   H37   S    
O2    V1    S    
C53   C57   A    
C73   H47   S    
C28   C29   S    
C77   H54   S    
C29   C32   S    
C59   H30   S    
C30   C31   S    
C58   H35   S    
O1    C2    A    
C12   C16   A    
C45   C46   T    
C28   H17   S    
O5    V1    S    
C3    C26   S    
O8    C3    A    
V3    O20   S    
O17   V4    S    
H10   C28   S    
O11   V4    S    
C30   H15   S    
O6    V2    S    
C71   H40   S    
C24   O23   S    
C35   C40   S    
C59   C60   A    
C20   C21   A    
C51   H33   S    
O7    V2    S    
C50   H32   S    
O4    V1    S    
O3    V1    S    
V1    O10   S    
O24   C72   S    
C18   C20   A    
C23   C28   S    
C33   C34   T    
O19   C68   A    
C9    H6    S    
C30   H18   S    
O2    C1    A    
C25   C29   S    
C16   H8    S    
C60   C61   A    
C20   H9    S    
C37   H22   S    
C49   C53   A    
C54   C55   A    
C6    C21   A    
C80   H61   S    
O31   C80   S    
O12   V3    S    
C24   C25   S    
C25   O25   S    
C43   O28   S    
C76   O27   S    
C58   C59   A    
C39   C43   S    
C47   C50   A    
C17   H3    S    
O19   V4    S    
C54   C58   A    
C10   C11   A    
C37   C41   S    
C75   H50   S    
C9    C10   A    
C72   H44   S    
C23   H11   S    
C14   H7    S    
C74   H48   S    
C69   O22   S    
C5    C9    A    
