data_mof_unit_56181.cif
_audit_creation_date              2012-12-11T15:54:50-0500
_audit_creation_method            fapswitch 2.2
_symmetry_space_group_name_H-M    P1
_symmetry_Int_Tables_number       1
_space_group_crystal_system       triclinic
_cell_length_a                    17.652576
_cell_length_b                    24.35124
_cell_length_c                    15.138823
_cell_angle_alpha                 89.802425
_cell_angle_beta                  126.063036
_cell_angle_gamma                 89.923737
_cell_volume                      5260.47600269

loop_
_atom_site_label
_atom_site_type_symbol
_atom_type_description
_atom_site_fract_x
_atom_site_fract_y
_atom_site_fract_z
_atom_type_partial_charge
C1    C     C_R   0.905292 0.873326 0.092487 -0.221549
C2    C     C_R   0.902743 0.126365 0.090433 -0.224681
C3    C     C_R   0.405289 0.373331 0.092488 -0.221550
C4    C     C_R   0.402746 0.626368 0.090434 -0.224724
C5    C     C_R   0.051587 0.846876 0.908436 -0.144944
C6    C     C_R   0.053676 0.153387 0.909220 -0.167366
C7    C     C_R   0.551590 0.346877 0.908435 -0.144963
C8    C     C_R   0.553674 0.653387 0.909220 -0.167352
C9    C     C_R   0.137364 0.154585 0.090776 0.127843
C10   C     C_R   0.137259 0.844885 0.088983 0.186757
C11   C     C_R   0.637362 0.654586 0.090776 0.127771
C12   C     C_R   0.637261 0.344886 0.088982 0.186748
C13   C     C_R   0.325148 0.999488 0.275959 -0.255633
C14   C     C_R   0.825146 0.499487 0.275963 -0.255680
C15   C     C_R   0.941715 0.999854 0.636736 0.057113
C16   C     C_R   0.441700 0.499854 0.636728 0.057161
C17   C     C_R   0.106920 0.813214 0.998038 -0.030282
C18   C     C_R   0.108608 0.186109 0.000102 0.004387
C19   C     C_R   0.606926 0.313217 0.998036 -0.030270
C20   C     C_R   0.608598 0.686112 0.000100 0.004451
C21   C     C_3   0.932306 0.029487 0.383628 0.566548
C22   C     C_3   0.018323 0.939197 0.466929 0.702912
C23   C     C_3   0.432328 0.529523 0.383656 0.566628
C24   C     C_3   0.518234 0.439204 0.466851 0.702880
C25   C     C_3   0.900105 0.028556 0.457728 -0.544130
C26   C     C_3   0.982647 0.939979 0.536702 -0.669666
C27   C     C_3   0.400139 0.528602 0.457767 -0.544237
C28   C     C_3   0.482545 0.439989 0.536612 -0.669702
C29   C     C_3   0.104908 0.027718 0.545374 -0.310693
C30   C     C_3   0.604914 0.527686 0.545386 -0.310754
C31   C     C_3   0.028681 0.998866 0.438611 -0.038256
C32   C     C_3   0.528662 0.498869 0.438600 -0.038194
C33   C     C_3   0.975170 0.000011 0.566619 0.175038
C34   C     C_3   0.475154 0.500011 0.566611 0.175043
C35   C     C_R   0.811814 0.126053 0.907180 0.692086
C36   C     C_R   0.815379 0.869444 0.909434 0.694888
C37   C     C_R   0.311816 0.626056 0.907181 0.692099
C38   C     C_R   0.315372 0.369452 0.909434 0.694891
C39   C     C_3   0.075103 0.029646 0.623854 0.052507
C40   C     C_3   0.575122 0.529594 0.623882 0.052504
C41   C     C_3   0.672419 0.200582 0.878479 -0.346399
C42   C     C_3   0.657774 0.826838 0.927417 -0.412058
C43   C     C_3   0.172414 0.700579 0.878482 -0.346408
C44   C     C_3   0.157780 0.326856 0.927484 -0.412056
C45   C     C_3   0.113306 0.745933 0.878662 -0.422831
C46   C     C_3   0.097515 0.278004 0.917617 -0.347485
C47   C     C_3   0.613310 0.245936 0.878658 -0.422843
C48   C     C_3   0.597512 0.777985 0.917548 -0.347512
C49   C     C_3   0.316692 0.735751 0.052626 -0.403406
C50   C     C_3   0.279306 0.257206 0.963633 -0.347428
C51   C     C_3   0.816695 0.235746 0.052635 -0.403431
C52   C     C_3   0.779356 0.757194 0.963716 -0.347398
C53   C     C_3   0.710369 0.165367 0.056411 -0.297391
C54   C     C_3   0.790612 0.802175 0.122670 -0.314330
C55   C     C_3   0.210381 0.665369 0.056426 -0.297397
C56   C     C_3   0.290673 0.302144 0.122690 -0.314276
C57   C     C_3   0.754710 0.184198 0.997174 0.267371
C58   C     C_3   0.763814 0.811305 0.004712 0.320386
C59   C     C_3   0.254712 0.684200 0.997177 0.267377
C60   C     C_3   0.263816 0.311306 0.004713 0.320387
C61   C     C_3   0.156634 0.764428 0.997546 0.194743
C62   C     C_3   0.162094 0.233308 0.002597 0.186438
C63   C     C_3   0.656637 0.264429 0.997543 0.194762
C64   C     C_3   0.662084 0.733310 0.002593 0.186393
C65   C     C_3   0.259174 0.782701 0.050909 -0.496105
C66   C     C_3   0.228177 0.210420 0.974781 -0.545623
C67   C     C_3   0.759180 0.282701 0.050910 -0.496097
C68   C     C_3   0.728223 0.710412 0.974868 -0.545618
C69   C     C_3   0.155936 0.714380 0.061246 0.617944
C70   C     C_3   0.222769 0.260632 0.117439 0.623851
C71   C     C_3   0.655933 0.214381 0.061241 0.617912
C72   C     C_3   0.722698 0.760665 0.117407 0.623974
C73   C     C_3   0.463281 0.937756 0.408147 -0.245982
C74   C     C_3   0.489022 0.023366 0.333486 -0.292007
C75   C     C_3   0.963278 0.437755 0.408158 -0.245968
C76   C     C_3   0.989019 0.523362 0.333485 -0.292031
C77   C     C_R   0.747758 0.953624 0.696288 -0.050274
C78   C     C_R   0.746419 0.044648 0.692919 -0.043044
C79   C     C_R   0.247759 0.453624 0.696287 -0.050213
C80   C     C_R   0.246420 0.544648 0.692919 -0.043055
C81   C     C_3   0.568939 0.937762 0.497715 0.557064
C82   C     C_3   0.591935 0.029627 0.437357 0.663918
C83   C     C_3   0.068937 0.437761 0.497715 0.556988
C84   C     C_3   0.091929 0.529631 0.437355 0.663928
C85   C     C_3   0.442298 0.031553 0.463848 -0.397139
C86   C     C_3   0.942299 0.531558 0.463852 -0.397069
C87   C     C_3   0.427242 0.998258 0.366952 0.213414
C88   C     C_3   0.927240 0.498257 0.366957 0.213436
C89   C     C_3   0.603537 0.997750 0.533753 0.021645
C90   C     C_3   0.103535 0.497751 0.533754 0.021657
C91   C     C_3   0.542839 0.025712 0.564354 -0.666194
C92   C     C_3   0.042838 0.525711 0.564360 -0.666186
C93   C     C_R   0.046511 0.044688 0.302919 0.731197
C94   C     C_R   0.045053 0.953792 0.301093 0.586113
C95   C     C_R   0.546506 0.544689 0.302915 0.731206
C96   C     C_R   0.545046 0.453792 0.301090 0.586199
C97   C     C_R   0.821215 0.854095 0.001793 -0.169713
C98   C     C_R   0.815171 0.141800 0.997469 -0.135461
C99   C     C_R   0.321212 0.354100 0.001794 -0.169708
C100  C     C_R   0.315174 0.641803 0.997471 -0.135462
C101  C     C_R   0.699897 0.998537 0.632993 0.037153
C102  C     C_R   0.199897 0.498537 0.632992 0.037147
C103  C     C_R   0.053413 0.998799 0.361139 -0.289568
C104  C     C_R   0.553400 0.498801 0.361132 -0.289655
C105  C     C_R   0.266645 0.954489 0.242212 0.650770
C106  C     C_R   0.268192 0.045334 0.247890 0.617098
C107  C     C_R   0.766643 0.454489 0.242213 0.650779
C108  C     C_R   0.768190 0.545333 0.247891 0.617143
C109  C     C_R   0.949745 0.045778 0.695935 0.032845
C110  C     C_R   0.951121 0.953934 0.697362 -0.004996
C111  C     C_R   0.449744 0.545778 0.695936 0.032885
C112  C     C_R   0.451110 0.453934 0.697356 -0.005080
H1    H     H_    0.932794 0.870120 0.177096 0.206906
H2    H     H_    0.931182 0.134561 0.174512 0.231284
H3    H     H_    0.432789 0.370121 0.177098 0.206895
H4    H     H_    0.431188 0.634564 0.174514 0.231272
H5    H     H_    0.878298 0.009165 0.304982 -0.000106
H6    H     H_    0.966808 0.915980 0.391115 0.029291
H7    H     H_    0.378297 0.509224 0.304998 -0.000133
H8    H     H_    0.466706 0.416010 0.391014 0.029231
H9    H     H_    0.832206 0.006355 0.416308 0.196992
H10   H     H_    0.912582 0.920134 0.489505 0.164476
H11   H     H_    0.332209 0.506443 0.416329 0.197017
H12   H     H_    0.412458 0.420180 0.489390 0.164554
H13   H     H_    0.886029 0.071038 0.470588 0.208867
H14   H     H_    0.029951 0.914340 0.610497 0.220036
H15   H     H_    0.386140 0.571086 0.470688 0.208865
H16   H     H_    0.529812 0.414326 0.610371 0.220035
H17   H     H_    0.117154 0.069677 0.527161 0.227114
H18   H     H_    0.173030 0.005889 0.583823 0.200380
H19   H     H_    0.617182 0.569648 0.527212 0.227105
H20   H     H_    0.673017 0.505845 0.583795 0.200363
H21   H     H_    0.700160 0.216993 0.834032 0.226428
H22   H     H_    0.636015 0.838137 0.844375 0.216953
H23   H     H_    0.200147 0.716989 0.834025 0.226436
H24   H     H_    0.135991 0.338172 0.844436 0.216904
H25   H     H_    0.627105 0.164515 0.833472 0.205760
H26   H     H_    0.643944 0.863178 0.960414 0.180975
H27   H     H_    0.127102 0.664510 0.833484 0.205753
H28   H     H_    0.143991 0.363188 0.960537 0.180968
H29   H     H_    0.540165 0.231455 0.838404 0.216374
H30   H     H_    0.544913 0.792249 0.930601 0.208465
H31   H     H_    0.040163 0.731453 0.838410 0.216381
H32   H     H_    0.044959 0.292264 0.930743 0.208456
H33   H     H_    0.111308 0.780482 0.828959 0.168450
H34   H     H_    0.058380 0.261044 0.833524 0.160917
H35   H     H_    0.611312 0.280485 0.828955 0.168451
H36   H     H_    0.558428 0.761004 0.833475 0.160927
H37   H     H_    0.347305 0.748791 0.009216 0.193657
H38   H     H_    0.251490 0.261191 0.876182 0.228168
H39   H     H_    0.847321 0.248784 0.009237 0.193639
H40   H     H_    0.751580 0.761157 0.876274 0.228143
H41   H     H_    0.260371 0.818011 0.004732 0.214024
H42   H     H_    0.188471 0.187106 0.896772 0.203396
H43   H     H_    0.760381 0.318008 0.004730 0.214005
H44   H     H_    0.688559 0.687076 0.896886 0.203412
H45   H     H_    0.659735 0.131920 0.006815 0.189802
H46   H     H_    0.783267 0.842133 0.152741 0.182807
H47   H     H_    0.159754 0.631917 0.006842 0.189800
H48   H     H_    0.283365 0.342094 0.152820 0.182806
H49   H     H_    0.189264 0.725346 0.147511 -0.020782
H50   H     H_    0.265271 0.229311 0.181643 0.019949
H51   H     H_    0.689268 0.225346 0.147510 -0.020788
H52   H     H_    0.765192 0.729362 0.181653 0.019882
H53   H     H_    0.376609 0.727198 0.138710 0.188765
H54   H     H_    0.355161 0.247120 0.009552 0.189400
H55   H     H_    0.876604 0.227190 0.138721 0.188753
H56   H     H_    0.855219 0.747117 0.009687 0.189388
H57   H     H_    0.293285 0.796674 0.136252 0.199593
H58   H     H_    0.280000 0.181411 0.039928 0.189592
H59   H     H_    0.793290 0.296676 0.136254 0.199580
H60   H     H_    0.780042 0.681421 0.040063 0.189590
H61   H     H_    0.451301 0.913397 0.338874 0.237685
H62   H     H_    0.488487 0.993739 0.277172 0.204325
H63   H     H_    0.951291 0.413391 0.338885 0.237675
H64   H     H_    0.988493 0.493728 0.277185 0.204328
H65   H     H_    0.740029 0.911542 0.670211 0.204629
H66   H     H_    0.733752 0.086098 0.661415 0.164386
H67   H     H_    0.240029 0.411543 0.670208 0.204609
H68   H     H_    0.233753 0.586098 0.661416 0.164389
H69   H     H_    0.583321 0.912903 0.567908 0.047458
H70   H     H_    0.608928 0.073590 0.460282 -0.007179
H71   H     H_    0.083326 0.412897 0.567908 0.047495
H72   H     H_    0.108911 0.573596 0.460278 -0.007167
H73   H     H_    0.393582 0.017862 0.483424 0.189913
H74   H     H_    0.428146 0.075895 0.443711 0.240381
H75   H     H_    0.893577 0.517876 0.483426 0.189921
H76   H     H_    0.928162 0.575902 0.443710 0.240383
H77   H     H_    0.544995 0.001061 0.627912 0.216897
H78   H     H_    0.569419 0.067358 0.599147 0.237592
H79   H     H_    0.044988 0.501057 0.627912 0.216889
H80   H     H_    0.069421 0.567356 0.599164 0.237590
H81   H     H_    0.006729 0.834719 0.823865 0.127201
H82   H     H_    0.015717 0.165812 0.824589 0.123190
H83   H     H_    0.506734 0.334721 0.823863 0.127195
H84   H     H_    0.515714 0.665812 0.824589 0.123192
N1    N     N_R   0.950530 0.896220 0.057200 -0.071331
N2    N     N_R   0.950530 0.103780 0.057200 -0.087201
N3    N     N_R   0.450530 0.396220 0.057200 -0.071324
N4    N     N_R   0.450530 0.603780 0.057200 -0.087197
N5    N     N_R   0.893330 0.103780 0.942800 -0.100180
N6    N     N_R   0.893330 0.896220 0.942800 -0.104079
N7    N     N_R   0.393330 0.603780 0.942800 -0.100178
N8    N     N_R   0.393330 0.396220 0.942800 -0.104080
N9    N     N_R   0.818150 0.971400 0.792440 -0.068329
N10   N     N_R   0.818150 0.028600 0.792440 -0.051947
N11   N     N_R   0.318150 0.471400 0.792440 -0.068323
N12   N     N_R   0.318150 0.528600 0.792440 -0.051954
N13   N     N_R   0.025710 0.028600 0.207560 -0.163481
N14   N     N_R   0.025710 0.971400 0.207560 -0.152304
N15   N     N_R   0.525710 0.528600 0.207560 -0.163500
N16   N     N_R   0.525710 0.471400 0.207560 -0.152321
N17   N     N_R   0.181850 0.971400 0.207560 -0.140342
N18   N     N_R   0.181850 0.028600 0.207560 -0.153703
N19   N     N_R   0.681850 0.471400 0.207560 -0.140336
N20   N     N_R   0.681850 0.528600 0.207560 -0.153692
N21   N     N_R   0.974290 0.028600 0.792440 -0.063043
N22   N     N_R   0.974290 0.971400 0.792440 -0.062159
N23   N     N_R   0.474290 0.528600 0.792440 -0.063034
N24   N     N_R   0.474290 0.471400 0.792440 -0.062161
N25   N     N_R   0.049470 0.896220 0.942800 -0.063920
N26   N     N_R   0.049470 0.103780 0.942800 -0.054362
N27   N     N_R   0.549470 0.396220 0.942800 -0.063923
N28   N     N_R   0.549470 0.603780 0.942800 -0.054360
N29   N     N_R   0.106670 0.103780 0.057200 -0.062887
N30   N     N_R   0.106670 0.896220 0.057200 -0.042923
N31   N     N_R   0.606670 0.603780 0.057200 -0.062881
N32   N     N_R   0.606670 0.396220 0.057200 -0.042931
Ni1   Ni    Ni4+2 0.065600 0.934400 0.131190 0.264368
Ni2   Ni    Ni4+2 0.065600 0.065600 0.131190 0.225520
Ni3   Ni    Ni4+2 0.565600 0.434400 0.131190 0.264369
Ni4   Ni    Ni4+2 0.565600 0.565600 0.131190 0.225528
Ni5   Ni    Ni4+2 0.934400 0.065600 0.868810 0.221829
Ni6   Ni    Ni4+2 0.934400 0.934400 0.868810 0.227314
Ni7   Ni    Ni4+2 0.434400 0.565600 0.868810 0.221836
Ni8   Ni    Ni4+2 0.434400 0.434400 0.868810 0.227299
N33   N     N_3   0.070880 0.087507 0.648471 -0.223546
H85   H     H_    0.138544 0.103942 0.694470 0.123482
H86   H     H_    0.031499 0.110796 0.576592 0.163216
N34   N     N_3   0.148218 0.002393 0.727513 -0.209215
H87   H     H_    0.159463 0.961945 0.715136 0.161390
H88   H     H_    0.129476 0.002061 0.781313 0.118313
N35   N     N_3   0.570994 0.587440 0.648621 -0.223517
H89   H     H_    0.531651 0.610764 0.576796 0.163120
H90   H     H_    0.638679 0.603834 0.694642 0.123503
N36   N     N_3   0.648195 0.502285 0.727473 -0.209233
H91   H     H_    0.629416 0.501896 0.781248 0.118314
H92   H     H_    0.659440 0.461852 0.714993 0.161498
F1    F     F_    0.742747 0.135008 0.800396 -0.770982
F2    F     F_    0.749946 0.853707 0.805148 -0.759781
F3    F     F_    0.242747 0.635010 0.800397 -0.770982
F4    F     F_    0.249922 0.353729 0.805146 -0.759804
N37   N     N_3   0.780253 0.142802 0.165767 -0.182858
H93   H     H_    0.822952 0.174217 0.218965 0.152274
H94   H     H_    0.745116 0.126067 0.196018 0.162392
N38   N     N_3   0.888016 0.782821 0.200570 -0.211418
H95   H     H_    0.895331 0.741787 0.186673 0.121683
H96   H     H_    0.905738 0.785143 0.279677 0.146209
N39   N     N_3   0.280274 0.642813 0.165787 -0.182898
H97   H     H_    0.322964 0.674233 0.218974 0.152278
H98   H     H_    0.245147 0.626075 0.196048 0.162358
N40   N     N_3   0.388079 0.282776 0.200522 -0.211398
H99   H     H_    0.395366 0.241746 0.186571 0.121674
H100  H     H_    0.405845 0.285076 0.279651 0.146255
F5    F     F_    0.564557 0.198981 0.017046 -0.708987
F6    F     F_    0.665999 0.786752 0.140061 -0.693465
F7    F     F_    0.064564 0.698975 0.017049 -0.708991
F8    F     F_    0.166122 0.286713 0.140181 -0.693484
N41   N     N_3   0.414088 0.910739 0.448348 -0.167176
H101  H     H_    0.430223 0.868793 0.458428 0.159084
H102  H     H_    0.436667 0.925932 0.524680 0.109334
N42   N     N_3   0.452032 0.075687 0.274339 -0.176428
H103  H     H_    0.489269 0.086040 0.242744 0.136868
H104  H     H_    0.464069 0.107012 0.328192 0.157809
N43   N     N_3   0.914090 0.410744 0.448375 -0.167180
H105  H     H_    0.930198 0.368795 0.458432 0.159091
H106  H     H_    0.936693 0.425932 0.524719 0.109320
N44   N     N_3   0.952021 0.575677 0.274316 -0.176445
H107  H     H_    0.989226 0.586015 0.242679 0.136889
H108  H     H_    0.964075 0.607014 0.328152 0.157779
F9    F     F_    0.615615 0.912659 0.460159 -0.654403
F10   F     F_    0.653955 0.010146 0.416733 -0.674290
F11   F     F_    0.115606 0.412662 0.460143 -0.654412
F12   F     F_    0.153956 0.510156 0.416733 -0.674296
F13   F     F_    0.073455 0.096368 0.342334 -0.681055
F14   F     F_    0.076788 0.902246 0.339735 -0.649120
F15   F     F_    0.573476 0.596365 0.342342 -0.680986
F16   F     F_    0.576780 0.402247 0.339734 -0.649069
F17   F     F_    0.289321 0.901978 0.239181 -0.741472
F18   F     F_    0.295821 0.098220 0.266800 -0.757197
F19   F     F_    0.789317 0.401976 0.239205 -0.741493
F20   F     F_    0.795819 0.598218 0.266815 -0.757198
N45   N     N_3   0.895694 0.095078 0.648201 -0.216292
H109  H     H_    0.831298 0.085510 0.575079 0.132574
H110  H     H_    0.931016 0.122441 0.631410 0.099223
N46   N     N_3   0.896745 0.904918 0.650882 -0.202504
H111  H     H_    0.837556 0.912992 0.571543 0.183839
H112  H     H_    0.937328 0.874695 0.648312 0.097902
N47   N     N_3   0.395723 0.595087 0.648217 -0.216296
H113  H     H_    0.331319 0.585530 0.575094 0.132574
H114  H     H_    0.431063 0.622438 0.631429 0.099200
N48   N     N_3   0.396725 0.404921 0.650880 -0.202497
H115  H     H_    0.337541 0.412994 0.571536 0.183852
H116  H     H_    0.437307 0.374692 0.648321 0.097903
N49   N     N_3   0.143690 0.177211 0.182557 -0.165623
H117  H     H_    0.213055 0.176102 0.251518 0.194418
H118  H     H_    0.106217 0.152749 0.201025 0.161386
N50   N     N_3   0.163542 0.824144 0.192137 -0.155875
H119  H     H_    0.114615 0.794676 0.178107 0.121986
H120  H     H_    0.229566 0.805776 0.233195 0.136127
N51   N     N_3   0.643691 0.677210 0.182560 -0.165673
H121  H     H_    0.713061 0.676096 0.251521 0.194386
H122  H     H_    0.606216 0.652746 0.201026 0.161421
N52   N     N_3   0.663544 0.324142 0.192134 -0.155870
H123  H     H_    0.614619 0.294671 0.178101 0.121995
H124  H     H_    0.729573 0.305776 0.233193 0.136136
F21   F     F_    0.937693 0.083918 0.360813 -0.681137
F22   F     F_    0.103668 0.911576 0.523067 -0.635263
F23   F     F_    0.437769 0.583951 0.360884 -0.681092
F24   F     F_    0.603545 0.411555 0.522972 -0.635287

loop_
_geom_bond_atom_site_label_1
_geom_bond_atom_site_label_2
_ccdc_geom_bond_type
C55   C59   S    
N25   Ni6   S    
C15   C109  A    
C77   C101  A    
C42   C58   S    
C42   C48   S    
C71   H51   S    
C46   C62   S    
N10   Ni5   S    
C86   C88   S    
C42   H26   S    
C30   H19   S    
C11   N51   S    
C62   C70   S    
C26   H14   S    
N3    Ni3   S    
C21   H5    S    
C17   C61   S    
C19   C63   S    
N42   H103  S    
C36   F2    S    
C32   C104  S    
C79   C102  A    
C36   C97   A    
C51   C57   S    
C75   N43   S    
C86   H75   S    
C38   N8    A    
C78   C101  A    
C1    H1    S    
C70   H50   S    
C73   C81   S    
C44   C46   S    
C63   C67   S    
C11   C20   A    
C24   H8    S    
N15   Ni4   S    
C81   F9    S    
N21   Ni5   S    
C74   N42   S    
C35   N5    A    
N52   H123  S    
C37   F3    S    
N19   N20   A    
C24   C32   S    
C77   N9    A    
C12   N52   S    
N6    Ni6   S    
C7    N27   A    
C90   C92   S    
C72   F6    S    
C83   H71   S    
C52   C58   S    
C14   C107  A    
C63   C71   S    
C7    C19   A    
N41   H102  S    
N3    N8    A    
C79   H67   S    
C53   C71   S    
C6    H82   S    
N17   Ni1   S    
C22   H6    S    
C89   C101  S    
C54   N38   S    
C13   C106  A    
N39   H98   S    
C69   F7    S    
C70   F8    S    
C47   H29   S    
C21   F21   S    
N29   Ni2   S    
C42   H22   S    
C23   F23   S    
C14   C88   S    
N8    Ni8   S    
C2    H2    S    
C46   H34   S    
C109  N45   S    
C79   N11   A    
N14   Ni1   S    
C105  F17   S    
C48   C64   S    
C61   C65   S    
C107  N19   A    
N4    Ni4   S    
C25   H9    S    
N32   Ni3   S    
C16   C111  A    
C6    N26   A    
C51   H55   S    
C93   C103  A    
C41   H21   S    
C21   C31   S    
C82   C89   S    
C45   H33   S    
C64   C68   S    
N28   Ni7   S    
C74   H62   S    
C23   H7    S    
N37   H93   S    
C90   C102  S    
C65   H41   S    
C16   C34   S    
C29   H17   S    
N49   H118  S    
N38   H96   S    
C74   C87   S    
C89   C91   S    
C111  N23   A    
C92   H79   S    
C43   C59   S    
N33   H85   S    
C59   C100  S    
C84   C90   S    
C41   C47   S    
N50   H120  S    
C85   H73   S    
C106  N18   A    
C47   H35   S    
C62   C66   S    
C48   H30   S    
N23   Ni7   S    
C84   H72   S    
C18   C62   S    
C46   H32   S    
N26   N29   A    
N21   N22   A    
C110  N46   S    
C77   H65   S    
C80   C102  A    
N45   H109  S    
C50   C66   S    
C26   C33   S    
C112  N48   S    
C29   C31   S    
C13   C87   S    
N13   N14   A    
C112  N24   A    
N1    N6    A    
C51   C67   S    
C43   C45   S    
C55   C69   S    
C80   N12   A    
C94   N14   A    
N51   H122  S    
C82   F10   S    
C39   N33   S    
C21   C25   S    
N36   H91   S    
C1    N1    A    
C24   C28   S    
C28   H12   S    
N40   H99   S    
N1    Ni1   S    
C82   H70   S    
C49   C59   S    
C50   C60   S    
C4    C100  A    
N48   H116  S    
C93   F13   S    
C108  F20   S    
C14   C108  A    
C95   F15   S    
N46   H112  S    
N34   H87   S    
C55   N39   S    
N13   Ni2   S    
C109  N21   A    
N27   Ni8   S    
C28   C34   S    
C3    C99   A    
C9    C18   A    
C4    N4    A    
C11   N31   A    
N44   H107  S    
C9    N29   A    
C37   C100  A    
C25   C33   S    
C44   H24   S    
C86   H76   S    
C96   N16   A    
C22   F22   S    
N43   H105  S    
C76   C84   S    
C92   H80   S    
N17   N18   A    
N50   H119  S    
N9    Ni6   S    
C106  F18   S    
C47   C63   S    
C12   N32   A    
C5    C17   A    
N52   H124  S    
N35   H89   S    
C67   H43   S    
C25   H13   S    
C73   C87   S    
C27   H15   S    
C50   H54   S    
C35   C98   A    
C41   H25   S    
C8    N28   A    
C81   C89   S    
C55   H47   S    
C51   H39   S    
C44   H28   S    
N41   H101  S    
C15   C110  A    
C53   N37   S    
C74   C82   S    
N24   Ni8   S    
C38   F4    S    
C75   H63   S    
N11   N12   A    
C76   H64   S    
C13   C105  A    
N23   N24   A    
C66   H42   S    
N16   Ni3   S    
C53   C57   S    
N25   N30   A    
C56   C60   S    
C65   H57   S    
C56   N40   S    
N47   H113  S    
C78   N10   A    
N7    Ni7   S    
C91   H77   S    
N5    Ni5   S    
N15   N16   A    
C52   H40   S    
C72   H52   S    
C33   C39   S    
N12   Ni7   S    
C108  N20   A    
C94   C103  A    
C111  N47   S    
C34   C40   S    
C7    H83   S    
N18   Ni2   S    
N28   N31   A    
C16   C112  A    
C5    H81   S    
C78   H66   S    
C4    H4    S    
C38   C99   A    
C40   N36   S    
C49   H37   S    
C23   C32   S    
C41   C57   S    
C3    H3    S    
C68   H60   S    
C75   C83   S    
C44   C60   S    
C57   C98   S    
C12   C19   A    
C45   C61   S    
C96   F16   S    
C8    H84   S    
C40   N35   S    
C83   F11   S    
C9    N49   S    
C56   H48   S    
N49   H117  S    
C22   C26   S    
C45   H31   S    
C73   N41   S    
C26   H10   S    
C28   H16   S    
C5    N25   A    
N51   H121  S    
N26   Ni5   S    
C81   H69   S    
C60   C99   S    
C85   C91   S    
C94   F14   S    
N9    N10   A    
C49   H53   S    
C84   F12   S    
C8    C20   A    
C49   C65   S    
N19   Ni3   S    
C80   H68   S    
N43   H106  S    
C69   H49   S    
C30   H20   S    
C10   C17   A    
C35   F1    S    
N35   H90   S    
C3    N3    A    
C43   H27   S    
C23   C27   S    
C76   C88   S    
C52   C68   S    
N31   Ni4   S    
C71   F5    S    
C58   C97   S    
C36   N6    A    
C39   N34   S    
C107  F19   S    
N11   Ni8   S    
C85   C87   S    
C27   C34   S    
C6    C18   A    
C91   H78   S    
N36   H92   S    
C105  N17   A    
C22   C31   S    
C24   F24   S    
N22   Ni6   S    
C1    C97   A    
N37   H94   S    
C27   H11   S    
N27   N32   A    
N40   H100  S    
C67   H59   S    
C31   C103  S    
C20   C64   S    
C54   H46   S    
C50   H38   S    
C29   H18   S    
C10   N50   S    
N38   H95   S    
C29   C39   S    
N2    N5    A    
N34   H88   S    
C37   N7    A    
C30   C40   S    
C43   H23   S    
N47   H114  S    
N42   H104  S    
C56   C70   S    
N33   H86   S    
C93   N13   A    
N44   H108  S    
N39   H97   S    
C95   C104  A    
C54   C58   S    
C61   C69   S    
C85   H74   S    
C83   C90   S    
N48   H115  S    
N46   H111  S    
C2    N2    A    
C66   H58   S    
C68   H44   S    
N2    Ni2   S    
C95   N15   A    
N30   Ni1   S    
C53   H45   S    
C76   N44   S    
C96   C104  A    
N45   H110  S    
C86   C92   S    
C52   H56   S    
C30   C32   S    
N4    N7    A    
C48   H36   S    
N20   Ni4   S    
C64   C72   S    
C73   H61   S    
C110  N22   A    
C75   C88   S    
C54   C72   S    
C2    C98   A    
C10   N30   A    
C15   C33   S    
