data_mof_unit_15882.cif
_audit_creation_date              2012-12-11T14:04:19-0500
_audit_creation_method            fapswitch 2.2
_symmetry_space_group_name_H-M    P1
_symmetry_Int_Tables_number       1
_space_group_crystal_system       triclinic
_cell_length_a                    18.89746
_cell_length_b                    10.99854
_cell_length_c                    18.767242
_cell_angle_alpha                 90.145098
_cell_angle_beta                  90.735933
_cell_angle_gamma                 90.23491
_cell_volume                      3900.29988341

loop_
_atom_site_label
_atom_site_type_symbol
_atom_type_description
_atom_site_fract_x
_atom_site_fract_y
_atom_site_fract_z
_atom_type_partial_charge
C1    C     C_R   0.227049 0.511281 0.637487 0.563437
C2    C     C_R   0.992287 0.667889 0.575233 -0.044278
C3    C     C_2   0.163819 0.398596 0.064250 0.169400
C4    C     C_R   0.507520 0.168563 0.424979 -0.043153
C5    C     C_R   0.493946 0.157209 0.574130 -0.034124
C6    C     C_R   0.035347 0.874637 0.424067 -0.077287
C7    C     C_R   0.003293 0.893138 0.568235 -0.071551
C8    C     C_R   0.496063 0.393440 0.433008 -0.071769
C9    C     C_R   0.464305 0.373677 0.577156 -0.076156
C10   C     C_R   0.042477 0.985738 0.459021 -0.127892
C11   C     C_R   0.024514 0.995821 0.530461 -0.125099
C12   C     C_R   0.474913 0.495591 0.471315 -0.125968
C13   C     C_R   0.760570 0.467600 0.353534 0.555897
C14   C     C_R   0.457186 0.484917 0.542771 -0.127737
C15   C     C_R   0.002552 0.776991 0.535680 0.007948
C16   C     C_R   0.013601 0.770049 0.461275 0.006799
C17   C     C_R   0.486021 0.269586 0.539416 0.006082
C18   C     C_R   0.497005 0.277175 0.465031 0.008707
C19   C     C_R   0.980438 0.557946 0.538227 0.008121
C20   C     C_R   0.001433 0.549776 0.467142 0.020779
C21   C     C_R   0.498511 0.049596 0.532548 0.019323
C22   C     C_R   0.519527 0.058563 0.461510 0.009607
C23   C     C_R   0.955573 0.452165 0.572763 -0.068088
C24   C     C_R   0.739370 0.967207 0.646482 0.558173
C25   C     C_R   0.014603 0.432870 0.438562 -0.082849
C26   C     C_R   0.485371 0.932389 0.560597 -0.083561
C27   C     C_R   0.544450 0.953309 0.426507 -0.067399
C28   C     C_R   0.963900 0.338108 0.541730 -0.131578
C29   C     C_R   0.995470 0.328398 0.475520 -0.151394
C30   C     C_R   0.504270 0.828387 0.523031 -0.151996
C31   C     C_R   0.535860 0.838915 0.456874 -0.130980
C32   C     C_2   0.265811 0.947794 0.909663 0.017520
C33   C     C_2   0.737096 0.933497 0.085502 0.026053
C34   C     C_2   0.763201 0.440149 0.913205 0.023139
C35   C     C_R   0.272710 0.010489 0.362477 0.561873
C36   C     C_2   0.235044 0.442697 0.089299 0.017735
C37   C     C_2   0.267371 0.984225 0.066847 -0.118998
C38   C     C_2   0.748401 0.937558 0.925976 -0.112376
C39   C     C_2   0.753866 0.441465 0.072179 -0.111639
C40   C     C_2   0.234599 0.482349 0.932449 -0.121820
C41   C     C_R   0.228374 0.878279 0.649754 0.560152
C42   C     C_R   0.772926 0.874542 0.352484 0.556666
C43   C     C_R   0.727083 0.374275 0.647538 0.557166
C44   C     C_R   0.271616 0.378634 0.350202 0.560063
C45   C     C_2   0.249930 0.070198 0.019190 -0.215282
C46   C     C_2   0.306835 0.890816 0.548243 -0.169550
C47   C     C_2   0.759434 0.032180 0.970828 -0.203785
C48   C     C_2   0.738535 0.535498 0.028505 -0.208409
C49   C     C_2   0.249680 0.568558 0.981124 -0.216033
C50   C     C_2   0.233243 0.041202 0.943794 -0.048495
C51   C     C_2   0.772367 0.018296 0.047488 -0.055675
C52   C     C_2   0.726434 0.522473 0.951484 -0.061760
C53   C     C_2   0.266174 0.539012 0.056330 -0.044304
C54   C     C_2   0.036652 0.658321 0.931034 -0.107010
C55   C     C_2   0.008758 0.658399 0.083903 -0.099989
C56   C     C_2   0.545148 0.158326 0.932624 -0.108968
C57   C     C_2   0.710572 0.843411 0.462539 -0.162810
C58   C     C_2   0.511930 0.160187 0.085310 -0.101944
C59   C     C_2   0.008751 0.558572 0.042722 -0.159826
C60   C     C_2   0.030352 0.557621 0.969405 -0.179055
C61   C     C_2   0.520353 0.058915 0.046369 -0.149291
C62   C     C_2   0.540368 0.058191 0.971981 -0.176326
C63   C     C_R   0.026432 0.655891 0.646473 0.531596
C64   C     C_R   0.973331 0.654208 0.353796 0.530101
C65   C     C_R   0.526611 0.153838 0.646275 0.540644
C66   C     C_R   0.473496 0.156271 0.353622 0.521732
C67   C     C_R   0.225448 0.517041 0.858845 0.556840
C68   C     C_2   0.788857 0.342895 0.537090 -0.163220
C69   C     C_R   0.761297 0.469340 0.147464 0.574437
C70   C     C_R   0.739419 0.967171 0.851466 0.570648
C71   C     C_R   0.274950 0.017337 0.141281 0.575475
C72   C     C_R   0.230264 0.878793 0.850917 0.574968
C73   C     C_R   0.769968 0.877111 0.148755 0.594230
C74   C     C_R   0.729976 0.377676 0.851332 0.580819
C75   C     C_R   0.269885 0.378085 0.149088 0.587403
C76   C     C_R   0.059262 0.648708 0.858589 0.537777
C77   C     C_R   0.971643 0.652054 0.150296 0.553139
C78   C     C_R   0.562033 0.148354 0.858164 0.558484
C79   C     C_2   0.192600 0.392232 0.451217 -0.169277
C80   C     C_R   0.472096 0.152222 0.150439 0.543592
C81   C     C_2   0.255354 0.939685 0.587390 -0.102547
C82   C     C_2   0.751503 0.915898 0.422539 -0.110406
C83   C     C_2   0.748600 0.415532 0.577537 -0.110234
C84   C     C_2   0.244685 0.440565 0.412463 -0.103317
C85   C     C_2   0.263089 0.966053 0.434241 -0.109854
C86   C     C_2   0.753472 0.908660 0.578907 -0.114528
C87   C     C_2   0.746216 0.409329 0.421072 -0.114794
C88   C     C_2   0.236428 0.467164 0.565543 -0.110079
C89   C     C_2   0.318066 0.931001 0.474894 -0.165680
C90   C     C_R   0.005858 0.657795 0.426035 -0.032601
C91   C     C_2   0.700245 0.867101 0.538156 -0.160152
C92   C     C_2   0.799168 0.366890 0.461518 -0.159660
C93   C     C_2   0.181331 0.432557 0.524629 -0.166338
C94   C     C_2   0.178851 0.119678 0.909576 0.258905
C95   C     C_2   0.824339 0.105109 0.079481 0.245563
C96   C     C_2   0.672335 0.604915 0.920027 0.243602
C97   C     C_2   0.318023 0.621481 0.092175 0.259304
C98   C     C_2   0.339612 0.913507 0.931860 0.187703
C99   C     C_2   0.666405 0.886511 0.059950 0.170863
C100  C     C_2   0.836660 0.406220 0.936835 0.187708
Cr1   Cr    Cr6+3 0.113970 0.508630 0.747920 1.057972
Cr2   Cr    Cr6+3 0.887700 0.820070 0.250200 1.059014
Cr3   Cr    Cr6+3 0.612300 0.320070 0.749800 1.058972
Cr4   Cr    Cr6+3 0.387700 0.320070 0.250200 1.042569
Cr5   Cr    Cr6+3 0.886030 0.508630 0.252080 1.057163
Cr6   Cr    Cr6+3 0.613970 0.008630 0.747920 1.053615
Cr7   Cr    Cr6+3 0.386030 0.008630 0.252080 1.060314
Cr8   Cr    Cr6+3 0.269200 0.666740 0.749850 1.056428
Cr9   Cr    Cr6+3 0.730800 0.666740 0.250150 1.060885
Cr10  Cr    Cr6+3 0.769200 0.166740 0.749850 1.056597
Cr11  Cr    Cr6+3 0.230800 0.166740 0.250150 1.058128
Cr12  Cr    Cr6+3 0.112300 0.820070 0.749800 1.043160
H1    H     H_    0.370844 0.925407 0.452989 0.171397
H2    H     H_    0.038991 0.468573 0.945806 0.174487
H3    H     H_    0.506257 0.970268 0.067453 0.194526
H4    H     H_    0.546726 0.969259 0.947580 0.169748
H5    H     H_    0.028845 0.745725 0.066579 0.106111
H6    H     H_    0.026050 0.748061 0.952304 0.115750
H7    H     H_    0.526444 0.249766 0.066553 0.105993
H8    H     H_    0.537390 0.248599 0.954242 0.112436
H9    H     H_    0.337769 0.814544 0.567783 0.145314
H10   H     H_    0.684703 0.763454 0.440097 0.155440
H11   H     H_    0.814234 0.262718 0.559148 0.155166
H12   H     H_    0.647844 0.853980 0.559755 0.173687
H13   H     H_    0.161260 0.316062 0.431372 0.145364
H14   H     H_    0.209589 0.965906 0.454831 0.117161
H15   H     H_    0.806547 0.916738 0.557614 0.111940
H16   H     H_    0.693275 0.417961 0.442542 0.111700
H17   H     H_    0.289979 0.466699 0.545080 0.117599
H18   H     H_    0.226572 0.019071 0.568731 0.116865
H19   H     H_    0.776638 0.996623 0.445014 0.111533
H20   H     H_    0.723969 0.496473 0.555453 0.112160
H21   H     H_    0.273886 0.519905 0.431371 0.116220
H22   H     H_    0.061736 0.063907 0.430234 0.109500
H23   H     H_    0.851369 0.353078 0.439691 0.173773
H24   H     H_    0.027984 0.083018 0.557048 0.113702
H25   H     H_    0.471393 0.582854 0.445129 0.112861
H26   H     H_    0.438184 0.562788 0.572012 0.110614
H27   H     H_    0.049845 0.869779 0.368501 0.134404
H28   H     H_    0.987176 0.905845 0.622820 0.137096
H29   H     H_    0.512097 0.406725 0.378469 0.135408
H30   H     H_    0.449928 0.368328 0.632731 0.137898
H31   H     H_    0.039778 0.421709 0.387473 0.140996
H32   H     H_    0.932235 0.457416 0.625112 0.139236
H33   H     H_    0.567847 0.959172 0.374211 0.137060
H34   H     H_    0.128473 0.427182 0.546403 0.170621
H35   H     H_    0.460263 0.920633 0.611667 0.142726
H36   H     H_    0.946924 0.257338 0.569616 0.109213
H37   H     H_    0.003149 0.240324 0.451663 0.109344
H38   H     H_    0.496386 0.740050 0.546377 0.109433
H39   H     H_    0.552630 0.758495 0.428510 0.108875
H40   H     H_    0.241744 0.162919 0.037341 0.156694
H41   H     H_    0.763353 0.124174 0.949888 0.167319
H42   H     H_    0.729979 0.625662 0.050720 0.170971
H43   H     H_    0.255321 0.662570 0.964175 0.148521
H44   H     H_    0.139359 0.163678 0.942178 0.129999
H45   H     H_    0.273503 0.889498 0.051828 0.115683
H46   H     H_    0.865157 0.144594 0.046453 0.137464
H47   H     H_    0.630648 0.640641 0.953294 0.128362
H48   H     H_    0.356673 0.669970 0.060591 0.132609
H49   H     H_    0.371281 0.975660 0.964212 0.123253
H50   H     H_    0.644477 0.915826 0.009833 0.111178
H51   H     H_    0.864394 0.461208 0.976463 0.121286
H52   H     H_    0.135303 0.449573 0.024833 0.116817
H53   H     H_    0.745077 0.844005 0.943907 0.103496
H54   H     H_    0.762871 0.349930 0.052728 0.109485
H55   H     H_    0.231967 0.386520 0.945954 0.118029
H56   H     H_    0.989423 0.471586 0.061967 0.186360
O1    O     O_R   0.043230 0.549300 0.667990 -0.518579
O2    O     O_R   0.832470 0.905110 0.169660 -0.474397
O3    O     O_R   0.667530 0.405110 0.830340 -0.481860
O4    O     O_R   0.332470 0.405110 0.169660 -0.475494
O5    O     O_R   0.054010 0.748440 0.822860 -0.492804
O6    O     O_R   0.945990 0.748440 0.177140 -0.500013
O7    O     O_R   0.554010 0.248440 0.822860 -0.493677
O8    O     O_R   0.445990 0.248440 0.177140 -0.501477
O9    O     O_3   0.165160 0.665150 0.749190 -0.319695
O10   O     O_3   0.834840 0.665150 0.250810 -0.269581
O11   O     O_3   0.665160 0.165150 0.749190 -0.289879
O12   O     O_R   0.956770 0.549300 0.332010 -0.520228
O13   O     O_3   0.334840 0.165150 0.250810 -0.302574
O14   O     O_R   0.178620 0.457600 0.674100 -0.470789
O15   O     O_R   0.821380 0.457600 0.325900 -0.486769
O16   O     O_R   0.678620 0.957600 0.674100 -0.486632
O17   O     O_R   0.321380 0.957600 0.325900 -0.471788
O18   O     O_R   0.284680 0.542100 0.669460 -0.515397
O19   O     O_R   0.715320 0.542100 0.330540 -0.525996
O20   O     O_R   0.784680 0.042100 0.669460 -0.524076
O21   O     O_R   0.215320 0.042100 0.330540 -0.517963
O22   O     O_R   0.262860 0.790390 0.676650 -0.515437
O23   O     O_R   0.543230 0.049300 0.667990 -0.516602
O24   O     O_R   0.737140 0.790390 0.323350 -0.504739
O25   O     O_R   0.762860 0.290390 0.676650 -0.503525
O26   O     O_R   0.237140 0.290390 0.323350 -0.516348
O27   O     O_R   0.167460 0.907030 0.670940 -0.496341
O28   O     O_R   0.832540 0.907030 0.329060 -0.497941
O29   O     O_R   0.667460 0.407030 0.670940 -0.496189
O30   O     O_R   0.332540 0.407030 0.329060 -0.497550
O31   O     O_R   0.053950 0.750220 0.675100 -0.501417
O32   O     O_R   0.946050 0.750220 0.324900 -0.499737
O33   O     O_R   0.553950 0.250220 0.675100 -0.494195
O34   O     O_R   0.456770 0.049300 0.332010 -0.521166
O35   O     O_R   0.446050 0.250220 0.324900 -0.506888
O36   O     O_R   0.043300 0.547370 0.827390 -0.496572
O37   O     O_R   0.956700 0.547370 0.172610 -0.508551
O38   O     O_R   0.543300 0.047370 0.827390 -0.493390
O39   O     O_R   0.456700 0.047370 0.172610 -0.512983
O40   O     O_R   0.178690 0.455820 0.821860 -0.474444
O41   O     O_R   0.821310 0.455820 0.178140 -0.473333
O42   O     O_R   0.678690 0.955820 0.821860 -0.492642
O43   O     O_R   0.321310 0.955820 0.178140 -0.462619
O44   O     O_R   0.284750 0.540170 0.828860 -0.458400
O45   O     O_R   0.262920 0.788600 0.824420 -0.474600
O46   O     O_R   0.715250 0.540170 0.171140 -0.495327
O47   O     O_R   0.784750 0.040170 0.828860 -0.490216
O48   O     O_R   0.215250 0.040170 0.171140 -0.466769
O49   O     O_2   0.180525 0.142687 0.845991 -0.467814
O50   O     O_2   0.819295 0.139422 0.141150 -0.490235
O51   O     O_2   0.676476 0.640023 0.858523 -0.486185
O52   O     O_2   0.315096 0.642454 0.156001 -0.472234
O53   O     O_2   0.365958 0.816870 0.914515 -0.497040
O54   O     O_2   0.630705 0.816811 0.095223 -0.499906
O55   O     O_2   0.867326 0.318436 0.912245 -0.496643
O56   O     O_R   0.737080 0.788600 0.175580 -0.461253
O57   O     O_2   0.136046 0.306484 0.087172 -0.500792
O58   O     O_R   0.762920 0.288600 0.824420 -0.463780
O59   O     O_R   0.237080 0.288600 0.175580 -0.471578
O60   O     O_R   0.167530 0.905110 0.830340 -0.481926

loop_
_geom_bond_atom_site_label_1
_geom_bond_atom_site_label_2
_ccdc_geom_bond_type
Cr2   O2    S    
C38   H53   S    
C21   C26   A    
C38   C70   S    
C44   O30   A    
C77   O6    A    
Cr12  O60   S    
C55   C59   D    
C24   O16   A    
C95   H46   S    
C43   C83   S    
C60   H2    S    
C19   C20   A    
C42   C82   S    
C64   C90   S    
Cr5   O10   S    
Cr1   O14   S    
C26   H35   S    
Cr3   O33   S    
C56   C78   S    
C32   C72   S    
C46   C89   S    
C54   C60   D    
C1    O18   A    
Cr9   O19   S    
C7    C11   A    
Cr10  O20   S    
C41   O22   A    
Cr7   O13   S    
C13   O19   A    
C16   C90   A    
Cr6   O23   S    
Cr8   O18   S    
C76   O5    A    
C36   C75   S    
C79   C93   S    
C77   O37   A    
C86   C91   D    
C79   C84   D    
C64   O12   A    
Cr4   O13   S    
C63   O1    A    
C5    C17   A    
C20   C25   A    
Cr9   O24   S    
C40   C49   D    
C99   H50   S    
C98   O53   D    
Cr11  O13   S    
C95   O50   D    
Cr5   O41   S    
Cr3   O29   S    
C37   H45   S    
C6    H27   S    
C40   H55   S    
C48   H42   S    
C36   C53   D    
C57   H10   S    
Cr9   O10   S    
C65   O23   A    
C63   O31   A    
C13   O15   A    
C40   C67   S    
C61   H3    S    
C34   C100  S    
C46   H9    S    
Cr1   O1    S    
C8    H29   S    
C8    C12   A    
C3    O57   D    
Cr12  O31   S    
Cr7   O39   S    
Cr8   O45   S    
C94   H44   S    
C27   H33   S    
Cr4   O4    S    
C4    C18   A    
C1    C88   S    
C7    C15   A    
C72   O45   A    
C86   H15   S    
C99   O54   D    
C39   C69   S    
C59   C60   S    
C35   O21   A    
C87   C92   D    
Cr3   O3    S    
C56   H8    S    
Cr8   O22   S    
C85   H14   S    
C25   H31   S    
C88   H17   S    
C68   H11   S    
C87   H16   S    
Cr8   O44   S    
C25   C29   A    
C89   H1    S    
C84   H21   S    
C28   H36   S    
C37   C71   S    
C27   C31   A    
C97   H48   S    
C14   H26   S    
C93   H34   S    
Cr1   O9    S    
Cr11  O48   S    
C80   O8    A    
Cr7   O34   S    
C5    C65   S    
Cr9   O46   S    
Cr10  O58   S    
C85   C89   D    
C50   C94   S    
C47   C51   S    
C47   H41   S    
C100  O55   D    
C53   C97   S    
C20   C90   A    
C94   O49   D    
C8    C18   A    
C9    H30   S    
Cr10  O11   S    
C33   C99   S    
C19   C23   A    
C9    C14   A    
C78   O38   A    
Cr12  O27   S    
C62   H4    S    
Cr1   O40   S    
Cr2   O32   S    
C46   C81   D    
C31   H39   S    
C35   O17   A    
C41   C81   S    
C13   C87   S    
Cr10  O25   S    
Cr3   O7    S    
C17   C18   A    
C38   C47   D    
C97   O52   D    
C65   O33   A    
C67   O44   A    
C43   O29   A    
C23   C28   A    
Cr5   O15   S    
C42   O28   A    
C2    C15   A    
Cr4   O8    S    
Cr6   O16   S    
C74   O3    A    
Cr9   O56   S    
C3    H52   S    
C34   C74   S    
C54   C76   S    
C66   O35   A    
C33   C73   S    
Cr6   O38   S    
C12   C14   A    
Cr4   O35   S    
Cr11  O21   S    
C71   O43   A    
C22   C27   A    
C64   O32   A    
C55   C77   S    
C78   O7    A    
Cr2   O10   S    
C56   C62   D    
C23   H32   S    
C92   H23   S    
C69   O41   A    
C70   O47   A    
Cr5   O12   S    
C37   C45   D    
C34   C52   D    
Cr6   O11   S    
C98   H49   S    
C2    C63   S    
C24   O20   A    
C55   H5    S    
C9    C17   A    
C4    C22   A    
C88   C93   D    
C28   C29   A    
C57   C91   S    
C73   O56   A    
C2    C19   A    
C57   C82   D    
C68   C83   D    
Cr4   O30   S    
C49   H43   S    
C32   C50   D    
C69   O46   A    
C10   H22   S    
C44   C84   S    
Cr1   O36   S    
Cr2   O28   S    
C6    C10   A    
C1    O14   A    
C76   O36   A    
Cr5   O37   S    
Cr2   O6    S    
C58   C80   S    
C33   C51   D    
C96   O51   D    
Cr7   O17   S    
C44   O26   A    
C43   O25   A    
C91   H12   S    
C45   H40   S    
Cr11  O59   S    
C39   H54   S    
C54   H6    S    
Cr10  O47   S    
C82   H19   S    
C83   H20   S    
C74   O58   A    
C11   H24   S    
Cr7   O43   S    
C4    C66   S    
C35   C85   S    
C81   H18   S    
C30   C31   A    
C3    C36   S    
C58   C61   D    
C49   C53   S    
C75   O59   A    
C58   H7    S    
C68   C92   S    
C32   C98   S    
Cr8   O9    S    
C52   C96   S    
C100  H51   S    
Cr3   O11   S    
C79   H13   S    
C61   C62   S    
C29   H37   S    
C30   H38   S    
C10   C11   A    
C96   H47   S    
Cr11  O26   S    
C6    C16   A    
C66   O34   A    
C42   O24   A    
C7    H28   S    
C48   C52   S    
C80   O39   A    
C5    C21   A    
C41   O27   A    
C72   O60   A    
C51   C95   S    
C75   O4    A    
C12   H25   S    
Cr12  O9    S    
C45   C50   S    
C70   O42   A    
C73   O2    A    
C21   C22   A    
C24   C86   S    
C67   O40   A    
C71   O48   A    
C59   H56   S    
C15   C16   A    
Cr12  O5    S    
C39   C48   D    
C26   C30   A    
Cr6   O42   S    
