data_mof_unit_9846.cif
_audit_creation_date              2012-12-11T14:24:55-0500
_audit_creation_method            fapswitch 2.2
_symmetry_space_group_name_H-M    P1
_symmetry_Int_Tables_number       1
_space_group_crystal_system       triclinic
_cell_length_a                    18.848668
_cell_length_b                    11.187989
_cell_length_c                    18.80683
_cell_angle_alpha                 90.537868
_cell_angle_beta                  91.520656
_cell_angle_gamma                 90.179292
_cell_volume                      3964.3656263

loop_
_atom_site_label
_atom_site_type_symbol
_atom_type_description
_atom_site_fract_x
_atom_site_fract_y
_atom_site_fract_z
_atom_type_partial_charge
C1    C     C_R   0.731763 0.375720 0.146694 0.540800
C2    C     C_R   0.249068 0.901584 0.071236 -0.071071
C3    C     C_R   0.698584 0.628492 0.390123 -0.077034
C4    C     C_R   0.943388 0.951371 0.527620 -0.105903
C5    C     C_R   0.149177 0.211984 0.411911 -0.115168
C6    C     C_R   0.443388 0.451307 0.527643 -0.105812
C7    C     C_R   0.649145 0.711933 0.411870 -0.115618
C8    C     C_R   0.938441 0.030819 0.472913 -0.162625
C9    C     C_R   0.134293 0.222367 0.483458 -0.139829
C10   C     C_R   0.438467 0.530691 0.472904 -0.163761
C11   C     C_R   0.634262 0.722340 0.483422 -0.140100
C12   C     C_R   0.872703 0.050923 0.441326 0.002362
C13   C     C_R   0.251177 0.402244 0.928778 -0.072310
C14   C     C_R   0.174283 0.159803 0.534163 -0.098402
C15   C     C_R   0.372735 0.550821 0.441306 0.000660
C16   C     C_R   0.674269 0.659819 0.534142 -0.098435
C17   C     C_R   0.739051 0.008556 0.438091 0.022874
C18   C     C_R   0.263049 0.998828 0.561838 -0.053079
C19   C     C_R   0.239065 0.508570 0.438091 0.022036
C20   C     C_R   0.763038 0.498843 0.561839 -0.051987
C21   C     C_R   0.732723 0.383358 0.351662 0.554172
C22   C     C_R   0.270183 0.375919 0.644490 0.581018
C23   C     C_R   0.232725 0.883359 0.351662 0.555332
C24   C     C_R   0.753253 0.409754 0.074493 -0.037966
C25   C     C_R   0.770185 0.875910 0.644486 0.580246
C26   C     C_R   0.534208 0.157993 0.353756 0.524109
C27   C     C_R   0.469162 0.154124 0.647745 0.532525
C28   C     C_R   0.034250 0.657989 0.353797 0.533231
C29   C     C_R   0.969235 0.654142 0.647800 0.522851
C30   C     C_R   0.728465 0.027685 0.362718 0.600500
C31   C     C_R   0.271407 0.024669 0.637006 0.553347
C32   C     C_R   0.228467 0.527688 0.362718 0.603472
C33   C     C_R   0.771408 0.524681 0.637007 0.550353
C34   C     C_3   0.429916 0.201773 0.988327 -0.177741
C35   C     C_R   0.688944 0.857165 0.962907 0.063970
C36   C     C_3   0.449052 0.091031 0.033965 -0.202571
C37   C     C_3   0.051707 0.593627 0.964586 -0.200660
C38   C     C_3   0.069905 0.703776 0.012457 -0.175550
C39   C     C_3   0.489635 0.276247 0.026558 -0.125278
C40   C     C_3   0.502431 0.049497 0.977822 -0.138152
C41   C     C_3   0.998903 0.548245 0.020002 -0.139936
C42   C     C_3   0.009427 0.777145 0.975929 -0.124645
C43   C     C_3   0.508025 0.164575 0.070916 0.000431
C44   C     C_3   0.483832 0.160169 0.932910 0.014020
C45   C     C_3   0.016547 0.658288 0.067077 0.013708
C46   C     C_R   0.307273 0.849098 0.032975 0.004528
C47   C     C_3   0.991981 0.666150 0.929273 0.000332
C48   C     C_3   0.601287 0.810825 0.852233 -0.231817
C49   C     C_3   0.522030 0.794072 0.832901 -0.350144
C50   C     C_3   0.507593 0.821312 0.754507 -0.387440
C51   C     C_3   0.395994 0.805864 0.141434 -0.238699
C52   C     C_3   0.476007 0.799824 0.156164 -0.345439
C53   C     C_3   0.493530 0.828795 0.234151 -0.394213
C54   C     C_3   0.103610 0.308363 0.856414 -0.237032
C55   C     C_3   0.023665 0.302521 0.840939 -0.350376
C56   C     C_3   0.007172 0.331364 0.763030 -0.382333
C57   C     C_R   0.192210 0.350430 0.965959 0.004513
C58   C     C_3   0.898427 0.307617 0.145139 -0.233482
C59   C     C_3   0.977879 0.291294 0.162900 -0.344122
C60   C     C_3   0.994053 0.318361 0.241267 -0.399251
C61   C     C_R   0.810444 0.355223 0.035948 0.063875
C62   C     C_R   0.696481 0.853969 0.039230 0.025617
C63   C     C_R   0.300461 0.847929 0.956659 -0.038228
C64   C     C_R   0.198898 0.347991 0.042168 -0.037020
C65   C     C_R   0.269205 0.374498 0.854369 0.537838
C66   C     C_R   0.802454 0.353141 0.959537 0.026770
C67   C     C_R   0.804993 0.969319 0.037239 0.434729
C68   C     C_R   0.189975 0.955406 0.959489 0.335032
C69   C     C_R   0.310759 0.452900 0.041267 0.333964
C70   C     C_R   0.696638 0.473765 0.964078 0.437671
C71   C     C_R   0.802830 0.965339 0.964786 -0.071957
C72   C     C_R   0.192037 0.951898 0.032245 -0.128621
C73   C     C_R   0.308930 0.450129 0.968562 -0.127315
C74   C     C_R   0.699369 0.469532 0.036650 -0.068368
C75   C     C_R   0.625316 0.802375 0.930662 0.064922
C76   C     C_R   0.230781 0.873766 0.145550 0.522468
C77   C     C_R   0.369773 0.791899 0.064114 0.057767
C78   C     C_R   0.129186 0.294543 0.933773 0.054194
C79   C     C_R   0.873463 0.298642 0.066924 0.068827
C80   C     C_R   0.088433 0.219174 0.975919 -0.040990
C81   C     C_R   0.914592 0.226750 0.022646 -0.047219
C82   C     C_R   0.583072 0.731114 0.973606 -0.039051
C83   C     C_R   0.409733 0.716368 0.020701 -0.047653
C84   C     C_R   0.598885 0.714823 0.044682 -0.141484
C85   C     C_R   0.395434 0.704655 0.948698 -0.156832
C86   C     C_R   0.102811 0.205721 0.047602 -0.151261
C87   C     C_R   0.768270 0.876422 0.853215 0.554536
C88   C     C_R   0.898676 0.212539 0.951206 -0.150180
C89   C     C_R   0.653196 0.777701 0.077943 -0.091405
C90   C     C_R   0.343162 0.771903 0.916467 -0.101474
C91   C     C_R   0.155506 0.272014 0.081080 -0.103885
C92   C     C_R   0.844676 0.276478 0.919373 -0.087193
C93   C     C_R   0.531968 0.155376 0.145075 0.586764
C94   C     C_R   0.464618 0.154821 0.857027 0.594761
C95   C     C_R   0.035853 0.653910 0.142826 0.591519
C96   C     C_R   0.967955 0.656157 0.855038 0.592692
C97   C     C_R   0.750302 0.921089 0.075629 0.083181
C98   C     C_3   0.560752 0.124485 0.014931 0.399092
C99   C     C_R   0.247068 0.915102 0.921343 0.013245
C100  C     C_R   0.252935 0.413616 0.078525 0.012275
C101  C     C_R   0.749674 0.422746 0.924374 0.086761
C102  C     C_R   0.499814 0.146063 0.575628 0.036951
C103  C     C_R   0.509688 0.167366 0.427180 -0.000162
C104  C     C_R   0.000037 0.646099 0.575752 0.038711
C105  C     C_R   0.009828 0.667359 0.427283 -0.001162
C106  C     C_R   0.480721 0.048428 0.529274 0.058315
C107  C     C_R   0.473664 0.069459 0.455846 0.006080
C108  C     C_R   0.981042 0.548400 0.529439 0.059833
C109  C     C_3   0.541943 0.233217 0.970106 0.409577
C110  C     C_R   0.973876 0.569441 0.456025 0.005788
C111  C     C_R   0.545137 0.248604 0.473896 -0.147869
C112  C     C_R   0.539606 0.238214 0.547727 -0.152489
C113  C     C_R   0.045261 0.748676 0.473967 -0.148223
C114  C     C_R   0.039739 0.738344 0.547814 -0.152870
C115  C     C_R   0.474454 0.928336 0.551967 -0.055534
C116  C     C_R   0.440680 0.982158 0.411623 -0.101039
C117  C     C_R   0.974775 0.428318 0.552183 -0.054687
C118  C     C_R   0.940711 0.482254 0.411899 -0.101779
C119  C     C_R   0.953107 0.338277 0.505051 -0.150714
C120  C     C_3   0.957716 0.730307 0.031579 0.409998
C121  C     C_R   0.935088 0.365653 0.435034 -0.105159
C122  C     C_R   0.453041 0.838218 0.504770 -0.150294
C123  C     C_R   0.435202 0.865511 0.434699 -0.103633
C124  C     C_R   0.756495 0.913007 0.571998 0.021118
C125  C     C_R   0.255592 0.936383 0.418652 0.008180
C126  C     C_R   0.256499 0.413022 0.572001 0.020440
C127  C     C_R   0.755570 0.436364 0.418661 0.009411
C128  C     C_R   0.815775 0.929015 0.528013 -0.051149
C129  C     C_R   0.229231 0.048573 0.439865 -0.026418
C130  C     C_R   0.315777 0.428995 0.528011 -0.051052
C131  C     C_3   0.939836 0.622181 0.984568 0.396937
C132  C     C_R   0.729235 0.548580 0.439860 -0.025926
C133  C     C_R   0.809002 0.998262 0.468184 0.090216
C134  C     C_R   0.223922 0.072484 0.513305 -0.016258
C135  C     C_R   0.309018 0.498233 0.468176 0.089731
C136  C     C_R   0.723920 0.572507 0.513298 -0.016380
C137  C     C_R   0.679933 0.992598 0.480596 -0.115316
C138  C     C_R   0.291097 0.891602 0.538551 -0.084464
C139  C     C_R   0.179950 0.492652 0.480603 -0.115551
C140  C     C_R   0.791029 0.391566 0.538566 -0.083614
C141  C     C_R   0.741918 0.968469 0.148541 0.611942
C142  C     C_R   0.747429 0.909950 0.925719 -0.039292
C143  C     C_R   0.257528 0.967829 0.850604 0.579233
C144  C     C_R   0.242461 0.467074 0.149414 0.575267
C145  C     C_R   0.758053 0.469247 0.851496 0.615729
C146  C     C_R   0.689549 0.953068 0.549981 0.329722
C147  C     C_R   0.282022 0.857804 0.469459 0.326637
C148  C     C_R   0.189566 0.453135 0.549991 0.328773
C149  C     C_R   0.781920 0.357747 0.469484 0.326153
C150  C     C_R   0.883644 0.886698 0.545835 -0.075867
C151  C     C_R   0.198577 0.128502 0.390138 -0.078154
C152  C     C_R   0.383634 0.386654 0.545843 -0.076118
Cr1   Cr    Cr6+3 0.772820 0.169820 0.252640 1.026429
Cr2   Cr    Cr6+3 0.383280 0.011130 0.749340 0.966091
Cr3   Cr    Cr6+3 0.116720 0.511130 0.250660 0.958316
Cr4   Cr    Cr6+3 0.883280 0.511130 0.749340 0.984879
Cr5   Cr    Cr6+3 0.227180 0.169820 0.747360 1.012033
Cr6   Cr    Cr6+3 0.272820 0.669820 0.252640 1.006620
Cr7   Cr    Cr6+3 0.727180 0.669820 0.747360 1.030303
Cr8   Cr    Cr6+3 0.615040 0.323610 0.249150 1.027598
Cr9   Cr    Cr6+3 0.384960 0.323610 0.750850 1.033070
Cr10  Cr    Cr6+3 0.115040 0.823610 0.249150 1.032532
Cr11  Cr    Cr6+3 0.884960 0.823610 0.750850 1.028307
Cr12  Cr    Cr6+3 0.616720 0.011130 0.250660 0.976465
F1    F     F_    0.633653 0.947000 0.593803 -0.672980
F2    F     F_    0.130143 0.994794 0.925813 -0.664724
F3    F     F_    0.370763 0.491655 0.075699 -0.668148
F4    F     F_    0.638379 0.521597 0.932014 -0.607910
F5    F     F_    0.292451 0.742762 0.454062 -0.691002
F6    F     F_    0.133686 0.447141 0.593830 -0.673978
F7    F     F_    0.792238 0.242669 0.454108 -0.691484
F8    F     F_    0.629546 0.088844 0.029575 -0.640669
F9    F     F_    0.590052 0.300530 0.933891 -0.589668
F10   F     F_    0.908853 0.793948 0.069499 -0.590812
F11   F     F_    0.871272 0.584875 0.969384 -0.643533
F12   F     F_    0.863924 0.014941 0.070344 -0.608851
H1    H     H_    0.485051 0.368900 0.047388 0.188603
H2    H     H_    0.425209 0.001226 0.357077 0.113205
H3    H     H_    0.992232 0.399058 0.604228 0.181235
H4    H     H_    0.925038 0.501482 0.357433 0.116492
H5    H     H_    0.949280 0.248000 0.523948 0.130676
H6    H     H_    0.916800 0.297536 0.398126 0.134298
H7    H     H_    0.449331 0.747922 0.523652 0.130869
H8    H     H_    0.417248 0.797290 0.397674 0.133982
H9    H     H_    0.626889 0.009184 0.459799 0.146148
H10   H     H_    0.314402 0.827200 0.574920 0.170413
H11   H     H_    0.126910 0.509255 0.459809 0.145726
H12   H     H_    0.509689 0.955757 0.961393 0.131558
H13   H     H_    0.814294 0.327139 0.574944 0.170799
H14   H     H_    0.888174 0.809815 0.577826 0.155077
H15   H     H_    0.207956 0.119879 0.333763 0.122583
H16   H     H_    0.388140 0.309780 0.577841 0.153932
H17   H     H_    0.707981 0.619857 0.333753 0.124482
H18   H     H_    0.993013 0.943374 0.556113 0.123358
H19   H     H_    0.120488 0.265399 0.373173 0.133896
H20   H     H_    0.493004 0.443315 0.556159 0.123859
H21   H     H_    0.620423 0.765272 0.373097 0.133576
H22   H     H_    0.985189 0.077414 0.455280 0.106465
H23   H     H_    0.992606 0.453731 0.034596 0.130825
H24   H     H_    0.093413 0.282955 0.500058 0.162303
H25   H     H_    0.485231 0.577232 0.455263 0.106098
H26   H     H_    0.593364 0.782901 0.500015 0.162144
H27   H     H_    0.874206 0.116470 0.400174 0.189195
H28   H     H_    0.161293 0.176627 0.588465 0.187972
H29   H     H_    0.374261 0.616357 0.400148 0.189773
H30   H     H_    0.661277 0.676646 0.588446 0.187312
H31   H     H_    0.375003 0.231000 0.975368 0.142756
H32   H     H_    0.410067 0.035380 0.061764 0.136263
H33   H     H_    0.091288 0.540440 0.935608 0.137342
H34   H     H_    0.013321 0.870596 0.957130 0.184836
H35   H     H_    0.124608 0.734434 0.025983 0.144820
H36   H     H_    0.849683 0.997367 0.939643 0.159089
H37   H     H_    0.144317 0.980618 0.057522 0.173680
H38   H     H_    0.357229 0.477430 0.943893 0.173530
H39   H     H_    0.654052 0.505277 0.062954 0.157441
H40   H     H_    0.046370 0.164989 0.953053 0.153435
H41   H     H_    0.957072 0.173116 0.043896 0.152778
H42   H     H_    0.540366 0.678154 0.951222 0.150283
H43   H     H_    0.451431 0.661512 0.042628 0.155961
H44   H     H_    0.073302 0.141573 0.077494 0.106853
H45   H     H_    0.578606 0.318595 0.453480 0.156017
H46   H     H_    0.927280 0.147732 0.920544 0.099438
H47   H     H_    0.570138 0.648781 0.073714 0.099940
H48   H     H_    0.424715 0.641303 0.917454 0.108724
H49   H     H_    0.663902 0.759812 0.133639 0.119392
H50   H     H_    0.333232 0.757302 0.860109 0.138603
H51   H     H_    0.165278 0.256615 0.137221 0.130001
H52   H     H_    0.833650 0.259722 0.863410 0.128060
H53   H     H_    0.527913 0.911484 0.741885 0.214358
H54   H     H_    0.534528 0.754775 0.720361 0.129227
H55   H     H_    0.449650 0.817166 0.742426 0.159548
H56   H     H_    0.565799 0.302195 0.583162 0.131090
H57   H     H_    0.506604 0.699280 0.839918 0.153808
H58   H     H_    0.488295 0.850115 0.866351 0.195553
H59   H     H_    0.619566 0.897547 0.830708 0.162393
H60   H     H_    0.623628 0.733067 0.823895 0.225728
H61   H     H_    0.471995 0.917487 0.248528 0.183797
H62   H     H_    0.469731 0.760709 0.269044 0.103016
H63   H     H_    0.551913 0.828270 0.243439 0.170207
H64   H     H_    0.493893 0.706838 0.148453 0.148968
H65   H     H_    0.504286 0.860170 0.120070 0.210384
H66   H     H_    0.376880 0.892452 0.163077 0.138722
H67   H     H_    0.078671 0.818715 0.453515 0.155574
H68   H     H_    0.376590 0.727864 0.171294 0.227218
H69   H     H_    0.029639 0.419679 0.749405 0.207900
H70   H     H_    0.030749 0.262710 0.727776 0.123690
H71   H     H_    0.948877 0.331342 0.753142 0.169277
H72   H     H_    0.005034 0.209707 0.847607 0.146803
H73   H     H_    0.995330 0.362648 0.877566 0.211133
H74   H     H_    0.123512 0.394643 0.835725 0.151650
H75   H     H_    0.122726 0.230049 0.825947 0.226499
H76   H     H_    0.974932 0.408870 0.254911 0.190921
H77   H     H_    0.967204 0.252284 0.275229 0.107080
H78   H     H_    0.065870 0.802422 0.583230 0.128568
H79   H     H_    0.052152 0.313514 0.252128 0.159952
H80   H     H_    0.992714 0.196530 0.154643 0.157216
H81   H     H_    0.010933 0.348080 0.129541 0.195347
H82   H     H_    0.880999 0.394648 0.167635 0.147870
H83   H     H_    0.875938 0.230329 0.173184 0.225910
H84   H     H_    0.491852 0.899074 0.603987 0.180141
O1    O     O_R   0.788190 0.043000 0.172520 -0.446928
O2    O     O_R   0.454170 0.051610 0.669840 -0.551510
O3    O     O_R   0.045830 0.551610 0.330160 -0.553866
O4    O     O_R   0.954170 0.551610 0.669840 -0.556281
O5    O     O_R   0.681920 0.959720 0.327070 -0.533875
O6    O     O_R   0.318080 0.959720 0.672930 -0.513470
O7    O     O_R   0.181920 0.459720 0.327070 -0.529692
O8    O     O_R   0.818080 0.459720 0.672930 -0.517857
O9    O     O_3   0.668190 0.168190 0.250820 -0.268337
O10   O     O_3   0.331810 0.168190 0.749180 -0.286447
O11   O     O_3   0.168190 0.668190 0.250820 -0.278804
O12   O     O_R   0.211810 0.043000 0.827480 -0.448491
O13   O     O_3   0.831810 0.668190 0.749180 -0.276641
O14   O     O_R   0.766240 0.292300 0.176860 -0.529990
O15   O     O_R   0.233760 0.292300 0.823140 -0.522666
O16   O     O_R   0.266240 0.792300 0.176860 -0.532516
O17   O     O_R   0.733760 0.792300 0.823140 -0.520584
O18   O     O_R   0.670310 0.409160 0.168720 -0.526529
O19   O     O_R   0.329690 0.409160 0.831280 -0.521583
O20   O     O_R   0.170310 0.909160 0.168720 -0.530621
O21   O     O_R   0.829690 0.909160 0.831280 -0.519473
O22   O     O_R   0.556160 0.251900 0.173380 -0.485926
O23   O     O_R   0.288190 0.543000 0.172520 -0.452069
O24   O     O_R   0.443840 0.251900 0.826620 -0.466814
O25   O     O_R   0.056160 0.751900 0.173380 -0.467806
O26   O     O_R   0.943840 0.751900 0.826620 -0.485075
O27   O     O_R   0.545410 0.050140 0.168240 -0.519262
O28   O     O_R   0.454590 0.050140 0.831760 -0.542717
O29   O     O_R   0.045410 0.550140 0.168240 -0.543424
O30   O     O_R   0.954590 0.550140 0.831760 -0.518307
O31   O     O_R   0.681530 0.958350 0.176970 -0.506979
O32   O     O_R   0.318470 0.958350 0.823030 -0.524043
O33   O     O_R   0.181530 0.458350 0.176970 -0.525366
O34   O     O_R   0.711810 0.543000 0.827480 -0.443531
O35   O     O_R   0.818470 0.458350 0.823030 -0.503730
O36   O     O_R   0.788610 0.044480 0.334450 -0.531784
O37   O     O_R   0.211390 0.044480 0.665550 -0.532579
O38   O     O_R   0.288610 0.544480 0.334450 -0.531958
O39   O     O_R   0.711390 0.544480 0.665550 -0.532913
O40   O     O_R   0.766630 0.293670 0.326970 -0.483127
O41   O     O_R   0.233370 0.293670 0.673030 -0.509953
O42   O     O_R   0.266630 0.793670 0.326970 -0.479312
O43   O     O_R   0.733370 0.793670 0.673030 -0.513822
O44   O     O_R   0.670730 0.410640 0.330640 -0.536968
O45   O     O_R   0.556550 0.253260 0.323480 -0.499254
O46   O     O_R   0.329270 0.410640 0.669360 -0.528554
O47   O     O_R   0.170730 0.910640 0.330640 -0.534827
O48   O     O_R   0.829270 0.910640 0.669360 -0.530009
O49   O     O_R   0.443450 0.253260 0.676520 -0.518516
O50   O     O_R   0.056550 0.753260 0.323480 -0.491705
O51   O     O_R   0.943450 0.753260 0.676520 -0.525017
O52   O     O_R   0.545830 0.051610 0.330160 -0.558360

loop_
_geom_bond_atom_site_label_1
_geom_bond_atom_site_label_2
_ccdc_geom_bond_type
C105  C110  A    
C24   C61   A    
C116  H2    S    
C21   O40   A    
C51   H68   S    
C110  C118  A    
C6    H20   S    
C80   H40   S    
C4    H18   S    
Cr8   O22   S    
C99   C143  S    
C96   O30   A    
C117  C119  A    
C40   C98   S    
C109  F9    S    
C106  C107  A    
C50   H53   S    
C12   H27   S    
C38   C45   S    
C80   C86   A    
C31   O37   A    
C102  C112  A    
Cr11  O21   S    
C113  H67   S    
C70   C74   A    
C54   H75   S    
C55   H73   S    
C9    H24   S    
Cr3   O3    S    
C72   H37   S    
C59   C60   S    
C98   C109  S    
Cr3   O29   S    
C31   O6    A    
C17   C30   S    
C19   C32   S    
C141  O31   A    
Cr10  O11   S    
C76   O20   A    
C51   C52   S    
Cr7   O13   S    
C137  C146  A    
Cr8   O18   S    
C100  C144  S    
C41   C131  S    
Cr5   O12   S    
Cr6   O11   S    
C47   C131  S    
C7    H21   S    
C6    C10   A    
C37   C38   S    
C150  H14   S    
C67   F12   S    
C68   C72   A    
C86   H44   S    
C58   C79   S    
C20   C33   S    
C45   C120  S    
C128  C150  A    
C13   C73   A    
C82   C84   A    
C130  C152  A    
Cr9   O10   S    
C88   H46   S    
C73   H38   S    
C51   H66   S    
Cr12  O27   S    
Cr9   O46   S    
C141  O1    A    
C57   C78   A    
C90   H50   S    
C84   H47   S    
C46   C77   A    
C85   C90   A    
C34   H31   S    
C4    C150  A    
C5    C151  A    
C22   O46   A    
C106  C115  A    
C86   C91   A    
C152  H16   S    
C52   H65   S    
Cr10  O50   S    
C85   H48   S    
C81   C88   A    
C44   C94   S    
C33   O39   A    
C69   C100  A    
C125  C129  A    
C39   C109  S    
C19   C139  A    
C41   C45   S    
C17   C137  A    
C18   C31   S    
C64   C91   A    
Cr5   O37   S    
Cr2   O10   S    
Cr6   O42   S    
C117  H3    S    
C121  H6    S    
C118  H4    S    
Cr12  O9    S    
C116  C123  A    
C8    H22   S    
C111  C112  A    
C70   C101  A    
C101  C145  S    
C3    H17   S    
C58   H82   S    
C105  C113  A    
C78   C80   A    
C13   C57   A    
C36   H32   S    
Cr2   O32   S    
C63   C99   A    
Cr4   O4    S    
C14   H28   S    
Cr2   O28   S    
C37   C47   S    
Cr1   O1    S    
C132  C136  A    
C98   F8    S    
Cr11  O26   S    
C140  H13   S    
C66   C101  A    
Cr10  O47   S    
Cr7   O39   S    
C93   O22   A    
C119  C121  A    
C139  C148  A    
C33   O8    A    
C34   C39   S    
C53   H61   S    
C32   O38   A    
C66   C92   A    
C27   O2    A    
C124  C146  A    
C29   C104  S    
C11   H26   S    
C5    C9    A    
C49   H58   S    
C62   C97   A    
C83   H43   S    
Cr4   O8    S    
C8    C12   A    
C81   H41   S    
C144  O23   A    
C27   O49   A    
Cr4   O30   S    
C30   O5    A    
C20   C136  A    
C1    O14   A    
C120  F10   S    
C122  H7    S    
C146  F1    S    
C55   H72   S    
Cr7   O17   S    
C45   C95   S    
C52   C53   S    
C54   C55   S    
Cr4   O35   S    
C149  F7    S    
C108  C117  A    
C103  C107  A    
C75   C82   A    
C40   H12   S    
C28   O3    A    
C56   H69   S    
C27   C102  S    
C46   C63   A    
C127  C149  A    
C42   C120  S    
C61   C79   A    
C108  C110  A    
C50   H54   S    
C34   C36   S    
C95   O29   A    
C37   C41   S    
C107  C116  A    
C48   H59   S    
C52   H64   S    
C35   C142  A    
C143  O32   A    
C40   C44   S    
C1    C24   S    
C49   C50   S    
C28   O50   A    
C140  C149  A    
C68   F2    S    
C16   C136  A    
C55   C56   S    
C74   H39   S    
C65   O15   A    
C120  C131  S    
C23   O47   A    
C130  C135  A    
C41   H23   S    
C53   H63   S    
C30   O36   A    
Cr8   O9    S    
C138  H10   S    
C129  C151  A    
C3    C7    A    
C145  O34   A    
Cr8   O45   S    
C126  C130  A    
C19   C135  A    
C62   C89   A    
C29   O4    A    
C32   O7    A    
C103  C111  A    
C119  H5    S    
Cr11  O48   S    
C18   C138  A    
Cr6   O38   S    
C26   O52   A    
C96   O26   A    
C47   C96   S    
C43   C98   S    
C69   C73   A    
C42   H34   S    
C124  C128  A    
C6    C152  A    
C44   C109  S    
C2    C72   A    
C39   H1    S    
C137  H9    S    
Cr1   O36   S    
C56   H71   S    
Cr9   O24   S    
C3    C132  A    
Cr9   O19   S    
C93   O27   A    
Cr10  O20   S    
C94   O28   A    
C58   C59   S    
C95   O25   A    
C9    C14   A    
C69   F3    S    
C123  H8    S    
Cr2   O2    S    
C70   F4    S    
C26   C103  S    
C11   C16   A    
C28   C105  S    
C54   H74   S    
Cr7   O43   S    
Cr8   O44   S    
C97   C141  S    
Cr4   O13   S    
C15   H29   S    
Cr12  O52   S    
C48   C49   S    
C83   C85   A    
C145  O35   A    
Cr11  O51   S    
C104  C108  A    
C114  H78   S    
C2    C76   S    
C113  C114  A    
Cr11  O13   S    
C126  C148  A    
C91   H51   S    
C59   H80   S    
C89   H49   S    
Cr5   O15   S    
Cr3   O11   S    
Cr6   O16   S    
C112  H56   S    
C58   H83   S    
C10   C15   A    
C21   O44   A    
C20   C140  A    
C1    O18   A    
C23   O42   A    
C131  F11   S    
C60   H77   S    
C43   C93   S    
C67   C71   A    
C87   C142  S    
C10   H25   S    
C67   C97   A    
C129  C134  A    
Cr10  O25   S    
C64   C100  A    
C92   H52   S    
C71   H36   S    
C59   H81   S    
C36   C43   S    
C29   O51   A    
C54   C78   S    
Cr7   O34   S    
C4    C8    A    
C51   C77   S    
C13   C65   S    
C2    C46   A    
C7    C11   A    
C35   C75   A    
Cr3   O33   S    
C38   C42   S    
C16   H30   S    
C115  H84   S    
C111  H45   S    
C22   C126  S    
C15   C135  A    
C77   C83   A    
C76   O16   A    
C87   O17   A    
C127  C132  A    
C49   H57   S    
C61   C66   A    
C88   C92   A    
C65   O19   A    
C148  F6    S    
C18   C134  A    
Cr1   O14   S    
C38   H35   S    
C21   C127  S    
C144  O33   A    
C23   C125  S    
C151  H15   S    
C25   O48   A    
C115  C122  A    
C48   C75   S    
C139  H11   S    
C143  O12   A    
C36   C40   S    
C22   O41   A    
C34   C44   S    
C79   C81   A    
C39   C43   S    
C14   C134  A    
C56   H70   S    
C60   H79   S    
C118  C121  A    
C87   O21   A    
C125  C147  A    
C82   H42   S    
C138  C147  A    
C50   H55   S    
C37   H33   S    
C48   H60   S    
C71   C142  A    
C104  C114  A    
Cr1   O40   S    
C12   C133  A    
Cr9   O49   S    
C84   C89   A    
C57   C64   A    
C94   O24   A    
Cr6   O23   S    
Cr1   O9    S    
Cr5   O41   S    
Cr2   O6    S    
C53   H62   S    
Cr12  O31   S    
Cr12  O5    S    
C25   O43   A    
C5    H19   S    
C68   C99   A    
C128  C133  A    
C17   C133  A    
C24   C74   A    
Cr5   O10   S    
C63   C90   A    
C102  C106  A    
C35   C62   A    
C42   C47   S    
C25   C124  S    
C26   O45   A    
C60   H76   S    
C122  C123  A    
Cr3   O7    S    
C147  F5    S    
