data_mof_unit_60915.cif
_audit_creation_date              2013-03-05T16:34:41-0500
_audit_creation_method            fapswitch 2.2
_symmetry_space_group_name_H-M    P1
_symmetry_Int_Tables_number       1
_space_group_crystal_system       triclinic
_cell_length_a                    35.544572
_cell_length_b                    35.547785
_cell_length_c                    23.534107
_cell_angle_alpha                 90.09111
_cell_angle_beta                  90.047335
_cell_angle_gamma                 89.966085
_cell_volume                      29736.0161943

loop_
_atom_site_label
_atom_site_type_symbol
_atom_site_description
_atom_site_fract_x
_atom_site_fract_y
_atom_site_fract_z
_atom_type_partial_charge
O1    O     O_R   0.031300 0.444560 0.499980 -0.571121
O2    O     O_R   0.444560 0.968700 0.499980 -0.570948
O3    O     O_R   0.968700 0.555440 0.499980 -0.591280
O4    O     O_R   0.555440 0.031300 0.499980 -0.569961
O5    O     O_R   0.968700 0.444560 0.500020 -0.621023
O6    O     O_R   0.555440 0.968700 0.500020 -0.621391
O7    O     O_R   0.031300 0.555440 0.500020 -0.593167
O8    O     O_R   0.444560 0.031300 0.500020 -0.616393
O9    O     O_R   0.531300 0.944560 0.999980 -0.596541
O10   O     O_R   0.944560 0.468700 0.999980 -0.587849
O11   O     O_R   0.468700 0.055440 0.999980 -0.620247
O12   O     O_R   0.055440 0.531300 0.999980 -0.590211
O13   O     O_R   0.468700 0.944560 0.000020 -0.594742
O14   O     O_R   0.055440 0.468700 0.000020 -0.595624
O15   O     O_R   0.531300 0.055440 0.000020 -0.571716
O16   O     O_R   0.944560 0.531300 0.000020 -0.598068
C1    C     C_R   0.000007 0.426823 0.500739 1.015292
C2    C     C_R   0.426798 0.999992 0.500816 1.001614
C3    C     C_R   0.999988 0.573285 0.499942 0.994969
C4    C     C_R   0.573212 0.999991 0.500760 1.013486
C5    C     C_R   0.500011 0.926823 0.000013 1.018633
C6    C     C_R   0.926705 0.500035 0.000128 1.003415
C7    C     C_R   0.499990 0.073188 0.999195 1.010312
C8    C     C_R   0.073277 0.499985 0.000140 1.004139
O17   O     O_R   0.031300 0.500000 0.582760 -0.603836
O18   O     O_R   0.500000 0.968700 0.582760 -0.598848
O19   O     O_R   0.968700 0.500000 0.582760 -0.597214
O20   O     O_R   0.500000 0.031300 0.582760 -0.601164
O21   O     O_R   0.968700 0.500000 0.417240 -0.620494
O22   O     O_R   0.500000 0.968700 0.417240 -0.609857
O23   O     O_R   0.031300 0.500000 0.417240 -0.586398
O24   O     O_R   0.500000 0.031300 0.417240 -0.598183
O25   O     O_R   0.531300 0.000000 0.082760 -0.592963
O26   O     O_R   0.000000 0.468700 0.082760 -0.597493
O27   O     O_R   0.468700 0.000000 0.082760 -0.613418
O28   O     O_R   0.000000 0.531300 0.082760 -0.601989
O29   O     O_R   0.468700 0.000000 0.917240 -0.603163
O30   O     O_R   0.000000 0.468700 0.917240 -0.597970
O31   O     O_R   0.531300 0.000000 0.917240 -0.598580
O32   O     O_R   0.000000 0.531300 0.917240 -0.602167
C9    C     C_R   0.000013 0.499957 0.609436 0.943733
C10   C     C_R   0.499987 0.000026 0.609436 0.931174
C11   C     C_R   0.999985 0.500135 0.390565 0.967318
C12   C     C_R   0.500025 0.999970 0.390565 0.989230
C13   C     C_R   0.500011 0.999892 0.109435 0.979560
C14   C     C_R   0.000002 0.500027 0.109435 0.952457
C15   C     C_R   0.499990 0.000088 0.890563 0.952250
C16   C     C_R   0.999995 0.499972 0.890565 0.955797
Zn1   Zn    Zn3+2 0.041800 0.500000 0.500000 1.115193
Zn2   Zn    Zn3+2 0.500000 0.958200 0.500000 1.099923
Zn3   Zn    Zn3+2 0.958200 0.500000 0.500000 1.087605
Zn4   Zn    Zn3+2 0.500000 0.041800 0.500000 1.103073
Zn5   Zn    Zn3+2 0.541800 0.000000 0.000000 1.110671
Zn6   Zn    Zn3+2 0.000000 0.458200 0.000000 1.116737
Zn7   Zn    Zn3+2 0.458200 0.000000 0.000000 1.083841
Zn8   Zn    Zn3+2 0.000000 0.541800 0.000000 1.108377
C17   C     C_1   0.000039 0.499891 0.669615 -0.076094
C18   C     C_1   0.499986 0.000082 0.669616 -0.070565
C19   C     C_1   0.999958 0.500161 0.330382 -0.067373
C20   C     C_1   0.500048 0.999899 0.330378 -0.043647
C21   C     C_1   0.500037 0.999829 0.169618 -0.048365
C22   C     C_1   0.999985 0.500086 0.169617 -0.077950
C23   C     C_1   0.499972 0.000116 0.830383 -0.061178
C24   C     C_1   0.000013 0.499906 0.830382 -0.072520
C25   C     C_1   0.000042 0.499859 0.720376 0.067182
C26   C     C_1   0.499981 0.000110 0.720378 0.079705
C27   C     C_1   0.999957 0.500152 0.279622 0.063179
C28   C     C_1   0.500058 0.999848 0.279619 0.078979
C29   C     C_1   0.500053 0.999816 0.220377 0.079021
C30   C     C_1   0.999970 0.500123 0.220378 0.058957
C31   C     C_1   0.499973 0.000122 0.779622 0.080610
C32   C     C_1   0.000030 0.499867 0.779620 0.065096
C33   C     C_R   0.974879 0.173462 0.460972 0.127461
C34   C     C_R   0.173247 0.026584 0.463826 0.127678
C35   C     C_R   0.021151 0.826422 0.458271 0.127919
C36   C     C_R   0.827492 0.965109 0.478973 0.133719
C37   C     C_R   0.017465 0.174419 0.542758 0.126446
C38   C     C_R   0.825419 0.027374 0.523521 0.132260
C39   C     C_R   0.979274 0.826252 0.540951 0.128374
C40   C     C_R   0.174068 0.976416 0.535034 0.131224
C41   C     C_R   0.477384 0.673864 0.961052 0.124812
C42   C     C_R   0.673458 0.526305 0.966162 0.128727
C43   C     C_R   0.518839 0.325640 0.958637 0.127143
C44   C     C_R   0.326376 0.479567 0.957927 0.114779
C45   C     C_R   0.522836 0.673803 0.039299 0.126042
C46   C     C_R   0.326253 0.521683 0.040421 0.124286
C47   C     C_R   0.473987 0.326665 0.037532 0.126984
C48   C     C_R   0.673691 0.479406 0.042260 0.125527
C49   C     C_R   0.976717 0.134043 0.459637 0.260757
C50   C     C_R   0.133746 0.026090 0.463931 0.259595
C51   C     C_R   0.021274 0.865852 0.458667 0.260913
C52   C     C_R   0.866953 0.966645 0.478059 0.258721
C53   C     C_R   0.019137 0.134981 0.541910 0.261132
C54   C     C_R   0.864885 0.029065 0.522551 0.257134
C55   C     C_R   0.979477 0.865669 0.541627 0.266701
C56   C     C_R   0.134669 0.976124 0.535516 0.258961
C57   C     C_R   0.477098 0.634401 0.961138 0.259749
C58   C     C_R   0.634182 0.524305 0.963485 0.262863
C59   C     C_R   0.520426 0.365085 0.959509 0.256833
C60   C     C_R   0.365786 0.478804 0.958832 0.257004
C61   C     C_R   0.523155 0.634333 0.038877 0.257044
C62   C     C_R   0.365687 0.522075 0.040227 0.259219
C63   C     C_R   0.475683 0.366092 0.038800 0.258635
C64   C     C_R   0.634283 0.477457 0.039802 0.259681
C65   C     C_R   0.998726 0.114694 0.500324 -0.339661
C66   C     C_R   0.114474 0.001099 0.500341 -0.340317
C67   C     C_R   0.000193 0.885506 0.500072 -0.342947
C68   C     C_R   0.885612 0.998619 0.499980 -0.343086
C69   C     C_R   0.500056 0.614598 0.000041 -0.341722
C70   C     C_R   0.614518 0.499926 0.000231 -0.336935
C71   C     C_R   0.498834 0.385368 0.999647 -0.337568
C72   C     C_R   0.385475 0.500326 0.999735 -0.336767
C73   C     C_R   0.995225 0.193459 0.502493 -0.084153
C74   C     C_R   0.193224 0.001723 0.499340 -0.088317
C75   C     C_R   0.000040 0.806853 0.499261 -0.086190
C76   C     C_R   0.806900 0.995410 0.501782 -0.091968
C77   C     C_R   0.500073 0.693326 0.000289 -0.084596
C78   C     C_R   0.693038 0.503889 0.005533 -0.087067
C79   C     C_R   0.495526 0.306627 0.997460 -0.085000
C80   C     C_R   0.306847 0.500224 0.999572 -0.081506
C81   C     C_1   0.993810 0.233698 0.503253 -0.017217
C82   C     C_1   0.233455 0.003172 0.500890 -0.016405
C83   C     C_1   0.999943 0.766692 0.498902 -0.019098
C84   C     C_1   0.766613 0.993957 0.502364 -0.018083
C85   C     C_1   0.500077 0.733531 0.000385 -0.017038
C86   C     C_1   0.733223 0.503976 0.005398 -0.018141
C87   C     C_1   0.494132 0.266384 0.996627 -0.017217
C88   C     C_1   0.266695 0.500110 0.999540 -0.017427
C89   C     C_1   0.993224 0.267348 0.503679 -0.018815
C90   C     C_1   0.267096 0.004054 0.502094 -0.017860
C91   C     C_1   0.999879 0.733099 0.498833 -0.014576
C92   C     C_1   0.732933 0.993383 0.502748 -0.019823
C93   C     C_1   0.500070 0.767148 0.000369 -0.022941
C94   C     C_1   0.766825 0.503476 0.004696 -0.016810
C95   C     C_1   0.493520 0.232732 0.996126 -0.018555
C96   C     C_1   0.233107 0.500048 0.999605 -0.019449
C97   C     C_R   0.984114 0.327177 0.453661 0.120975
C98   C     C_R   0.327144 0.019255 0.456212 0.119709
C99   C     C_R   0.027634 0.673319 0.468310 0.115344
C100  C     C_R   0.672810 0.984027 0.453187 0.121743
C101  C     C_R   0.004977 0.327082 0.552995 0.137664
C102  C     C_R   0.673329 0.005509 0.552232 0.138027
C103  C     C_R   0.972084 0.673565 0.529921 0.115464
C104  C     C_R   0.326686 0.988426 0.549323 0.137055
C105  C     C_R   0.496193 0.826759 0.948465 0.134813
C106  C     C_R   0.826580 0.527113 0.967244 0.116350
C107  C     C_R   0.506606 0.173001 0.947550 0.138233
C108  C     C_R   0.173411 0.474772 0.964359 0.116753
C109  C     C_R   0.503919 0.826968 0.051991 0.135042
C110  C     C_R   0.173560 0.524573 0.036502 0.122858
C111  C     C_R   0.482785 0.172872 0.045291 0.120471
C112  C     C_R   0.826385 0.477160 0.038881 0.123361
C113  C     C_R   0.988142 0.366433 0.451870 0.244375
C114  C     C_R   0.366495 0.016259 0.454427 0.248761
C115  C     C_R   0.026661 0.633942 0.466521 0.246478
C116  C     C_R   0.633509 0.987985 0.451652 0.245528
C117  C     C_R   0.007704 0.366462 0.551853 0.232789
C118  C     C_R   0.633893 0.008008 0.551415 0.232747
C119  C     C_R   0.973155 0.634211 0.532366 0.245879
C120  C     C_R   0.366106 0.986723 0.548514 0.235726
C121  C     C_R   0.496369 0.866241 0.948307 0.239334
C122  C     C_R   0.865953 0.525327 0.964644 0.245294
C123  C     C_R   0.509216 0.133615 0.948782 0.233292
C124  C     C_R   0.133986 0.475376 0.963458 0.244295
C125  C     C_R   0.503731 0.866448 0.051961 0.240153
C126  C     C_R   0.134122 0.524255 0.037247 0.244680
C127  C     C_R   0.486651 0.133596 0.047251 0.245838
C128  C     C_R   0.865829 0.476425 0.038147 0.243712
C129  C     C_R   0.999826 0.385879 0.501036 -0.352697
C130  C     C_R   0.385812 0.000086 0.500688 -0.356228
C131  C     C_R   0.999951 0.614409 0.499640 -0.372665
C132  C     C_R   0.614222 0.999795 0.500855 -0.351410
C133  C     C_R   0.500037 0.885896 0.000091 -0.355880
C134  C     C_R   0.885558 0.500372 0.000767 -0.369897
C135  C     C_R   0.499774 0.114152 0.998924 -0.352728
C136  C     C_R   0.114393 0.499883 0.000327 -0.369977
C137  C     C_R   0.993455 0.307615 0.503779 -0.090722
C138  C     C_R   0.307364 0.004447 0.502991 -0.090380
C139  C     C_R   0.999837 0.692937 0.498961 -0.082676
C140  C     C_R   0.692618 0.993680 0.503040 -0.091418
C141  C     C_R   0.500058 0.807352 0.000276 -0.094888
C142  C     C_R   0.806994 0.502456 0.003414 -0.084947
C143  C     C_R   0.493678 0.192460 0.995952 -0.090861
C144  C     C_R   0.192954 0.500012 0.999822 -0.084724
O33   O     O_R   0.944690 0.999980 0.546690 -0.576472
O34   O     O_R   0.999980 0.055310 0.546690 -0.581842
O35   O     O_R   0.055310 0.000020 0.546690 -0.572853
O36   O     O_R   0.000020 0.944690 0.546690 -0.585452
O37   O     O_R   0.055310 0.999980 0.453310 -0.582043
O38   O     O_R   0.000020 0.055310 0.453310 -0.577285
O39   O     O_R   0.944690 0.000020 0.453310 -0.574678
O40   O     O_R   0.999980 0.944690 0.453310 -0.577616
O41   O     O_R   0.444690 0.499980 0.046690 -0.579067
O42   O     O_R   0.499980 0.555310 0.046690 -0.580165
O43   O     O_R   0.555310 0.500020 0.046690 -0.583297
O44   O     O_R   0.500020 0.444690 0.046690 -0.580854
O45   O     O_R   0.555310 0.499980 0.953310 -0.573694
O46   O     O_R   0.500020 0.555310 0.953310 -0.589862
O47   O     O_R   0.444690 0.500020 0.953310 -0.584165
O48   O     O_R   0.499980 0.444690 0.953310 -0.581627
C145  C     C_R   0.926701 0.999907 0.499972 1.011081
C146  C     C_R   0.999829 0.073400 0.500057 1.029727
C147  C     C_R   0.073326 0.999986 0.500064 1.013472
C148  C     C_R   0.000013 0.926673 0.500007 1.002993
C149  C     C_R   0.426665 0.500093 0.999964 1.037009
C150  C     C_R   0.500001 0.573360 0.000021 1.018673
C151  C     C_R   0.573336 0.499924 0.000005 1.014774
C152  C     C_R   0.499879 0.426623 0.999940 1.037318
Zn9   Zn    Zn3+2 1.000000 0.000000 0.562390 1.195505
Zn10  Zn    Zn3+2 0.000000 0.000000 0.437610 1.194036
Zn11  Zn    Zn3+2 0.500000 0.500000 0.062390 1.195836
Zn12  Zn    Zn3+2 0.500000 0.500000 0.937610 1.198124
N1    N     N_2   0.951771 0.192643 0.420807 -0.261890
H1    H     H_    0.962627 0.217681 0.406128 0.233169
C153  C     C_3   0.912653 0.195494 0.437148 -0.640251
H2    H     H_    0.909856 0.212585 0.476506 0.218830
H3    H     H_    0.900539 0.167117 0.444469 0.289374
H4    H     H_    0.896450 0.209260 0.402589 0.235038
N2    N     N_2   0.192557 0.052953 0.428790 -0.255792
H5    H     H_    0.217506 0.043361 0.411816 0.234772
C154  C     C_3   0.195649 0.090232 0.453085 -0.669511
H6    H     H_    0.212551 0.089327 0.492812 0.218139
H7    H     H_    0.167351 0.101892 0.462620 0.276305
H8    H     H_    0.209714 0.109225 0.422312 0.237712
N3    N     N_2   0.043018 0.806735 0.417008 -0.257701
H9    H     H_    0.031355 0.781963 0.402572 0.231289
C155  C     C_3   0.082434 0.803126 0.431366 -0.646251
H10   H     H_    0.085732 0.787628 0.471974 0.216562
H11   H     H_    0.095681 0.831259 0.435625 0.283612
H12   H     H_    0.097272 0.787491 0.397190 0.236922
N4    N     N_2   0.808828 0.932918 0.456314 -0.255587
H13   H     H_    0.785053 0.924823 0.478146 0.232740
C156  C     C_3   0.803286 0.934037 0.395458 -0.669612
H14   H     H_    0.784439 0.957785 0.383914 0.219804
H15   H     H_    0.790206 0.907312 0.381065 0.237637
H16   H     H_    0.830640 0.937319 0.373235 0.278714
N5    N     N_2   0.039030 0.194671 0.583751 -0.255144
H17   H     H_    0.026124 0.218374 0.599811 0.234651
C157  C     C_3   0.077649 0.201270 0.567244 -0.668712
H18   H     H_    0.078700 0.219642 0.529109 0.219600
H19   H     H_    0.092095 0.174256 0.557827 0.274068
H20   H     H_    0.092854 0.215355 0.602583 0.238198
N6    N     N_2   0.804661 0.058010 0.547018 -0.256052
H21   H     H_    0.779665 0.063948 0.526666 0.234597
C158  C     C_3   0.800906 0.056802 0.608167 -0.666855
H22   H     H_    0.784336 0.031724 0.621019 0.219330
H23   H     H_    0.786148 0.082503 0.623133 0.237981
H24   H     H_    0.829019 0.055796 0.628750 0.277862
N7    N     N_2   0.957513 0.806422 0.582058 -0.259786
H25   H     H_    0.969008 0.781406 0.595732 0.230837
C159  C     C_3   0.917946 0.803482 0.568333 -0.638381
H26   H     H_    0.914131 0.788278 0.527499 0.217173
H27   H     H_    0.905061 0.831843 0.564841 0.288562
H28   H     H_    0.903162 0.787852 0.602474 0.235044
N8    N     N_2   0.194106 0.950951 0.570726 -0.262713
H29   H     H_    0.218490 0.940346 0.553276 0.233835
C160  C     C_3   0.199148 0.964042 0.628451 -0.656271
H30   H     H_    0.215847 0.990443 0.628994 0.214727
H31   H     H_    0.214256 0.942310 0.653482 0.236519
H32   H     H_    0.171510 0.969266 0.648900 0.283821
N9    N     N_2   0.454166 0.693719 0.921790 -0.255802
H33   H     H_    0.466448 0.717305 0.904396 0.234621
C161  C     C_3   0.416309 0.700592 0.941731 -0.664249
H34   H     H_    0.416789 0.719631 0.979234 0.221534
H35   H     H_    0.402388 0.673712 0.953366 0.272026
H36   H     H_    0.399639 0.714108 0.907455 0.238410
N10   N     N_2   0.692928 0.551192 0.928969 -0.263524
H37   H     H_    0.715528 0.564749 0.947233 0.232661
C162  C     C_3   0.701807 0.535176 0.874067 -0.656883
H38   H     H_    0.721458 0.511069 0.878976 0.216313
H39   H     H_    0.715393 0.556858 0.847090 0.242108
H40   H     H_    0.675818 0.525467 0.852350 0.282105
N11   N     N_2   0.541548 0.305355 0.919147 -0.255585
H41   H     H_    0.529137 0.281628 0.902315 0.234273
C163  C     C_3   0.579687 0.298799 0.938182 -0.665527
H42   H     H_    0.579716 0.280472 0.976402 0.219782
H43   H     H_    0.593815 0.325835 0.948455 0.274831
H44   H     H_    0.595875 0.284679 0.903908 0.237831
N12   N     N_2   0.306658 0.457909 0.916525 -0.262691
H45   H     H_    0.285506 0.441489 0.933237 0.229064
C164  C     C_3   0.294399 0.479134 0.867439 -0.638872
H46   H     H_    0.272785 0.500192 0.879758 0.209889
H47   H     H_    0.281988 0.459676 0.835604 0.240886
H48   H     H_    0.318510 0.493933 0.847513 0.278960
N13   N     N_2   0.546142 0.693605 0.078566 -0.257978
H49   H     H_    0.533866 0.717162 0.096220 0.233676
C165  C     C_3   0.583918 0.700552 0.058402 -0.652294
H50   H     H_    0.583276 0.719659 0.021075 0.221315
H51   H     H_    0.597859 0.673709 0.046417 0.277635
H52   H     H_    0.600672 0.714021 0.092674 0.236551
N14   N     N_2   0.306377 0.543791 0.081151 -0.257896
H53   H     H_    0.282384 0.531387 0.096983 0.234156
C166  C     C_3   0.300497 0.582472 0.064360 -0.661809
H54   H     H_    0.282585 0.583763 0.025682 0.215923
H55   H     H_    0.327830 0.596464 0.055714 0.274609
H56   H     H_    0.286201 0.597939 0.099229 0.241859
N15   N     N_2   0.449833 0.307515 0.076213 -0.257940
H57   H     H_    0.460338 0.282514 0.091671 0.233987
C167  C     C_3   0.411212 0.304564 0.057324 -0.660257
H58   H     H_    0.409563 0.287448 0.017840 0.219224
H59   H     H_    0.399216 0.332906 0.049176 0.278912
H60   H     H_    0.394114 0.290781 0.090809 0.236965
N16   N     N_2   0.693658 0.455881 0.080984 -0.257810
H61   H     H_    0.717221 0.467997 0.098827 0.234288
C168  C     C_3   0.700493 0.418177 0.060209 -0.663021
H62   H     H_    0.718731 0.419007 0.021896 0.216628
H63   H     H_    0.673548 0.404041 0.049451 0.274698
H64   H     H_    0.714839 0.401465 0.093652 0.241801
N17   N     N_R   0.955427 0.113897 0.417467 0.235172
O49   O     O_R   0.958228 0.122886 0.364065 -0.319472
O50   O     O_R   0.930728 0.088899 0.432748 -0.364830
N18   N     N_R   0.113431 0.051319 0.427302 0.231273
O51   O     O_R   0.122317 0.053994 0.373838 -0.320177
O52   O     O_R   0.087896 0.073663 0.448061 -0.379711
N19   N     N_R   0.043909 0.885748 0.418005 0.232168
O53   O     O_R   0.041120 0.878085 0.364086 -0.317604
O54   O     O_R   0.069710 0.909104 0.435227 -0.379729
N20   N     N_R   0.887848 0.934995 0.456636 0.221418
O55   O     O_R   0.909557 0.938887 0.412584 -0.364978
O56   O     O_R   0.880447 0.901279 0.474931 -0.338094
N21   N     N_R   0.042277 0.115815 0.582839 0.233870
O57   O     O_R   0.039242 0.123636 0.636671 -0.321695
O58   O     O_R   0.068556 0.092861 0.566073 -0.367460
N22   N     N_R   0.883567 0.062478 0.542439 0.223816
O59   O     O_R   0.907102 0.060697 0.584688 -0.367578
O60   O     O_R   0.873025 0.095326 0.523986 -0.335028
N23   N     N_R   0.958270 0.885273 0.584475 0.234455
O61   O     O_R   0.962452 0.876678 0.637831 -0.320849
O62   O     O_R   0.932574 0.909527 0.570051 -0.363058
N24   N     N_R   0.115364 0.948576 0.569085 0.224432
O63   O     O_R   0.099528 0.958368 0.616675 -0.349256
O64   O     O_R   0.118954 0.913043 0.556952 -0.339045
N25   N     N_R   0.452771 0.614655 0.922414 0.233524
O65   O     O_R   0.452818 0.622951 0.868585 -0.322173
O66   O     O_R   0.428402 0.590487 0.941498 -0.378600
N26   N     N_R   0.614333 0.548895 0.925630 0.229248
O67   O     O_R   0.601334 0.535982 0.877743 -0.344518
O68   O     O_R   0.614957 0.585030 0.934372 -0.338253
N27   N     N_R   0.544630 0.384287 0.920124 0.233003
O69   O     O_R   0.543402 0.376185 0.866218 -0.319336
O70   O     O_R   0.569949 0.407758 0.938525 -0.368798
N28   N     N_R   0.385597 0.454123 0.920702 0.241336
O71   O     O_R   0.380108 0.456122 0.866148 -0.337220
O72   O     O_R   0.408048 0.428426 0.940707 -0.366585
N29   N     N_R   0.547886 0.614485 0.076824 0.233733
O73   O     O_R   0.548450 0.622679 0.130721 -0.319447
O74   O     O_R   0.572025 0.590315 0.056872 -0.384824
N30   N     N_R   0.385413 0.545167 0.080660 0.233192
O75   O     O_R   0.377283 0.543230 0.134472 -0.318830
O76   O     O_R   0.409280 0.570387 0.063302 -0.373805
N31   N     N_R   0.452998 0.386361 0.079101 0.233105
O77   O     O_R   0.454075 0.377585 0.132731 -0.319210
O78   O     O_R   0.428667 0.411153 0.061663 -0.373181
N32   N     N_R   0.614575 0.452262 0.077160 0.232097
O79   O     O_R   0.622347 0.451677 0.131191 -0.320630
O80   O     O_R   0.590563 0.428148 0.056765 -0.374449
N33   N     N_2   0.972370 0.307471 0.403962 -0.251834
H65   H     H_    0.989325 0.284928 0.393627 0.231174
C169  C     C_3   0.932812 0.297834 0.403400 -0.652566
H66   H     H_    0.926234 0.277947 0.438312 0.211395
H67   H     H_    0.925576 0.284350 0.362236 0.243938
H68   H     H_    0.915194 0.323413 0.408562 0.275618
N34   N     N_2   0.307616 0.035572 0.409447 -0.251910
H69   H     H_    0.285399 0.019582 0.394887 0.232188
C170  C     C_3   0.297406 0.074603 0.417883 -0.658355
H70   H     H_    0.277365 0.077376 0.453777 0.212399
H71   H     H_    0.283912 0.085662 0.378756 0.242893
H72   H     H_    0.322709 0.091839 0.427232 0.276108
N35   N     N_2   0.055793 0.692929 0.437151 -0.254526
H73   H     H_    0.045602 0.715028 0.413369 0.229322
C171  C     C_3   0.088349 0.703268 0.470671 -0.647549
H74   H     H_    0.080326 0.723573 0.504471 0.213316
H75   H     H_    0.109783 0.716458 0.442809 0.238263
H76   H     H_    0.101045 0.678065 0.490870 0.273805
N36   N     N_2   0.692286 0.972021 0.403464 -0.252744
H77   H     H_    0.715022 0.988650 0.393071 0.233240
C172  C     C_3   0.701453 0.932347 0.402859 -0.652418
H78   H     H_    0.721856 0.925659 0.437103 0.210713
H79   H     H_    0.714135 0.924808 0.361276 0.238922
H80   H     H_    0.675790 0.915042 0.409039 0.275115
N37   N     N_2   0.014321 0.307312 0.603781 -0.251773
H81   H     H_    0.998665 0.283403 0.611095 0.232703
C173  C     C_3   0.054225 0.301500 0.612048 -0.662849
H82   H     H_    0.065908 0.284254 0.576840 0.214288
H83   H     H_    0.059044 0.286573 0.652821 0.243736
H84   H     H_    0.069226 0.328872 0.613781 0.277813
N38   N     N_2   0.693317 0.015372 0.602693 -0.252721
H85   H     H_    0.717568 0.000170 0.609869 0.235344
C174  C     C_3   0.698483 0.055390 0.610667 -0.662786
H86   H     H_    0.715929 0.067113 0.575792 0.214557
H87   H     H_    0.712931 0.060591 0.651778 0.239073
H88   H     H_    0.670907 0.070076 0.611584 0.277638
N39   N     N_2   0.943938 0.693413 0.560899 -0.254092
H89   H     H_    0.954167 0.715534 0.584661 0.229155
C175  C     C_3   0.911442 0.703753 0.527274 -0.648803
H90   H     H_    0.919521 0.724007 0.493544 0.213501
H91   H     H_    0.889974 0.717022 0.555083 0.238434
H92   H     H_    0.898767 0.678528 0.507022 0.273027
N40   N     N_2   0.306789 0.973743 0.596975 -0.256964
H93   H     H_    0.282406 0.987901 0.607153 0.232350
C176  C     C_3   0.302081 0.933332 0.596200 -0.654917
H94   H     H_    0.285328 0.924665 0.558527 0.213211
H95   H     H_    0.287151 0.924268 0.635267 0.236665
H96   H     H_    0.329852 0.919040 0.595002 0.278629
N41   N     N_2   0.491449 0.806859 0.896275 -0.252010
H97   H     H_    0.506720 0.782279 0.893025 0.235611
C177  C     C_3   0.452652 0.802307 0.879034 -0.663312
H98   H     H_    0.437178 0.785079 0.910694 0.214006
H99   H     H_    0.451515 0.787865 0.837202 0.245325
H100  H     H_    0.438731 0.830146 0.874763 0.275027
N42   N     N_2   0.806865 0.552642 0.931311 -0.257066
H101  H     H_    0.784722 0.540586 0.909621 0.230808
C178  C     C_3   0.796465 0.587653 0.958607 -0.647548
H102  H     H_    0.775803 0.582517 0.993107 0.209214
H103  H     H_    0.783566 0.606779 0.926824 0.242500
H104  H     H_    0.821598 0.601718 0.976916 0.273882
N43   N     N_2   0.517450 0.192778 0.897490 -0.252085
H105  H     H_    0.502037 0.216716 0.889124 0.232330
C179  C     C_3   0.557560 0.198534 0.892030 -0.665589
H106  H     H_    0.568193 0.215762 0.928023 0.215244
H107  H     H_    0.563588 0.213455 0.851638 0.242638
H108  H     H_    0.572588 0.171141 0.891347 0.277952
N44   N     N_2   0.193127 0.449928 0.927278 -0.258192
H109  H     H_    0.214257 0.462754 0.904452 0.229370
C180  C     C_3   0.205431 0.415308 0.953746 -0.648284
H110  H     H_    0.227033 0.421135 0.986729 0.210209
H111  H     H_    0.217873 0.396517 0.921047 0.241352
H112  H     H_    0.181334 0.400526 0.973744 0.274062
N45   N     N_2   0.508662 0.807280 0.104274 -0.252049
H113  H     H_    0.493348 0.782759 0.107656 0.235206
C181  C     C_3   0.547463 0.802670 0.121462 -0.663857
H114  H     H_    0.562861 0.785217 0.089893 0.214081
H115  H     H_    0.548600 0.788440 0.163392 0.244750
H116  H     H_    0.561459 0.830479 0.125509 0.275039
N46   N     N_2   0.193459 0.549096 0.073937 -0.259022
H117  H     H_    0.217397 0.560887 0.056889 0.232519
C182  C     C_3   0.199480 0.533968 0.130228 -0.654145
H118  H     H_    0.217399 0.508377 0.128008 0.214663
H119  H     H_    0.172198 0.526783 0.150460 0.274410
H120  H     H_    0.213828 0.555311 0.157063 0.243716
N47   N     N_2   0.469616 0.192562 0.094165 -0.251713
H121  H     H_    0.486283 0.215046 0.105733 0.231446
C183  C     C_3   0.430098 0.202311 0.091977 -0.655038
H122  H     H_    0.424595 0.222228 0.056661 0.211907
H123  H     H_    0.421677 0.215798 0.132608 0.243238
H124  H     H_    0.412607 0.176786 0.085559 0.275803
N48   N     N_2   0.806518 0.452933 0.076604 -0.257839
H125  H     H_    0.782250 0.441528 0.059926 0.232666
C184  C     C_3   0.801220 0.468164 0.133050 -0.661460
H126  H     H_    0.783343 0.493800 0.131304 0.215883
H127  H     H_    0.828770 0.475277 0.152612 0.272394
H128  H     H_    0.787118 0.446906 0.160192 0.243766
N49   N     N_R   0.982072 0.386420 0.399510 0.226712
O81   O     O_R   0.951859 0.380753 0.369498 -0.346283
O82   O     O_R   0.007445 0.409638 0.380740 -0.406103
N50   N     N_R   0.386700 0.027668 0.404376 0.233176
O83   O     O_R   0.380991 0.060546 0.381789 -0.342227
O84   O     O_R   0.410082 0.004555 0.380036 -0.410075
N51   N     N_R   0.051009 0.613990 0.428066 0.244055
O85   O     O_R   0.087180 0.619443 0.429001 -0.343121
O86   O     O_R   0.036776 0.591331 0.390271 -0.394338
N52   N     N_R   0.613310 0.981821 0.399437 0.226093
O87   O     O_R   0.618642 0.951414 0.369716 -0.349873
O88   O     O_R   0.590218 0.007304 0.380510 -0.408388
N53   N     N_R   0.017180 0.386631 0.602935 0.203820
O89   O     O_R   0.045158 0.410196 0.603433 -0.381344
O90   O     O_R   0.999838 0.379194 0.650270 -0.343591
N54   N     N_R   0.613945 0.017583 0.602603 0.204081
O91   O     O_R   0.590140 0.045384 0.603075 -0.379368
O92   O     O_R   0.621819 0.000529 0.650030 -0.342527
N55   N     N_R   0.948767 0.614584 0.571020 0.244533
O93   O     O_R   0.912605 0.620138 0.570000 -0.342321
O94   O     O_R   0.962948 0.592141 0.609069 -0.388901
N56   N     N_R   0.385977 0.973001 0.597507 0.205117
O95   O     O_R   0.407603 0.943594 0.593464 -0.368219
O96   O     O_R   0.378999 0.987102 0.647451 -0.351171
N57   N     N_R   0.493472 0.886204 0.895357 0.207652
O97   O     O_R   0.467837 0.911922 0.888424 -0.396990
O98   O     O_R   0.514521 0.876704 0.852457 -0.337467
N58   N     N_R   0.885806 0.546876 0.922540 0.242524
O99   O     O_R   0.880225 0.582889 0.917709 -0.341138
O100  O     O_R   0.908612 0.530176 0.887378 -0.395964
N59   N     N_R   0.520055 0.113494 0.898308 0.203343
O101  O     O_R   0.548497 0.090466 0.899277 -0.377137
O102  O     O_R   0.503706 0.120739 0.850060 -0.347301
N60   N     N_R   0.113998 0.453149 0.922188 0.242286
O103  O     O_R   0.120210 0.417209 0.917696 -0.340686
O104  O     O_R   0.090639 0.469188 0.887178 -0.398001
N61   N     N_R   0.506674 0.886625 0.104807 0.206455
O105  O     O_R   0.532440 0.912205 0.111650 -0.400932
O106  O     O_R   0.485590 0.877394 0.147744 -0.340424
N62   N     N_R   0.114273 0.548192 0.076394 0.233355
O107  O     O_R   0.122668 0.583727 0.080270 -0.324883
O108  O     O_R   0.089735 0.533952 0.111256 -0.407253
N63   N     N_R   0.479019 0.113594 0.099102 0.228959
O109  O     O_R   0.447929 0.119264 0.126929 -0.343366
O110  O     O_R   0.503817 0.090359 0.119642 -0.407369
N64   N     N_R   0.885688 0.451957 0.076435 0.234199
O111  O     O_R   0.876650 0.416576 0.080015 -0.323443
O112  O     O_R   0.910714 0.465632 0.111147 -0.408514

loop_
_geom_bond_atom_site_label_1
_geom_bond_atom_site_label_2
_geom_bond_distance
_ccdc_geom_bond_type
N51   O85   1.300487 A    
N8    C160  1.446334 S    
C56   N24   1.434596 S    
N33   H65   1.031279 S    
N42   C178  1.447598 S    
O25   C13   1.277584 A    
C180  H110  1.110706 S    
N63   O109  1.300482 A    
N58   O99   1.300503 A    
C10   C18   1.416286 S    
N16   C168  1.446418 S    
C182  H118  1.111390 S    
O37   C147  1.272649 A    
C164  H48   1.110448 S    
C14   C22   1.416328 S    
C55   N23   1.438436 S    
O18   Zn2   1.982539 S    
C99   N35   1.424471 S    
N52   O88   1.300939 A    
O41   Zn11  2.000090 S    
O46   C150  1.271970 A    
C34   C74   1.408687 A    
C44   N12   1.424973 S    
C41   C77   1.406799 A    
O47   C149  1.271685 A    
C104  N40   1.426148 S    
C114  C130  1.409810 A    
C97   N33   1.424734 S    
C177  H100  1.110831 S    
C43   C79   1.407873 A    
O24   Zn4   1.982541 S    
C172  H80   1.110299 S    
N43   C179  1.446250 S    
N14   H53   1.030552 S    
N22   O59   1.300463 A    
C184  H127  1.110864 S    
C165  H51   1.111055 S    
O3    C3    1.280658 A    
C42   N10   1.425445 S    
C104  C120  1.402567 A    
C118  C132  1.409876 A    
C98   C114  1.403368 A    
N36   C172  1.447335 S    
C178  H103  1.110233 S    
C158  H22   1.111240 S    
C42   C58   1.399256 A    
C102  C118  1.404616 A    
C37   C73   1.407517 A    
C50   N18   1.438559 S    
C2    C130  1.456825 S    
C75   C83   1.427652 S    
N24   O63   1.300752 A    
C47   N15   1.425880 S    
C51   C67   1.413334 A    
C161  H34   1.111479 S    
C179  H108  1.110474 S    
O17   C9    1.277492 A    
N28   O71   1.300502 A    
N25   O65   1.301140 A    
C153  H2    1.111424 S    
N48   C184  1.446107 S    
N16   H61   1.030807 S    
N31   O78   1.301027 A    
N64   O111  1.301149 A    
O40   C148  1.272860 A    
O13   C5    1.278817 A    
C45   C77   1.406868 A    
O40   Zn10  2.001142 S    
C119  C131  1.412260 A    
C100  C116  1.404373 A    
C47   C63   1.403143 A    
C101  C117  1.403581 A    
C4    C132  1.457720 S    
C23   C31   1.194606 T    
O26   Zn6   1.982539 S    
O7    C3    1.280738 A    
C162  H39   1.110313 S    
N37   H81   1.030943 S    
C180  H112  1.110491 S    
O33   Zn9   2.000090 S    
C153  H4    1.110314 S    
C35   C75   1.407683 A    
C42   C78   1.406590 A    
C173  H82   1.110635 S    
C8    C136  1.461445 S    
O31   C15   1.277333 A    
C182  H120  1.110356 S    
N40   C176  1.446395 S    
C97   C113  1.403578 A    
C91   C139  1.427655 S    
C106  N42   1.424940 S    
N26   O67   1.300773 A    
N36   H77   1.031358 S    
C166  H56   1.110343 S    
C100  N36   1.424808 S    
N39   H89   1.030491 S    
C85   C93   1.195014 T    
C38   N6    1.426179 S    
C21   C29   1.194568 T    
C34   C50   1.404199 A    
O38   Zn10  1.999984 S    
N13   C165  1.446018 S    
N41   H97   1.031138 S    
C64   C70   1.414007 A    
O9    C5    1.278779 A    
N56   O95   1.300592 A    
C105  C121  1.403533 A    
C38   C54   1.404316 A    
C54   N22   1.438558 S    
O11   C7    1.279157 A    
N30   O75   1.301146 A    
C100  C140  1.409825 A    
O36   C148  1.270802 A    
N12   C164  1.447469 S    
C171  H75   1.110163 S    
N60   O103  1.300532 A    
C183  H123  1.110251 S    
C99   C139  1.407697 A    
C167  H60   1.110323 S    
C33   C49   1.403049 A    
O4    C4    1.279567 A    
C7    C135  1.456226 S    
C86   C94   1.194610 T    
N57   O98   1.301160 A    
N21   O57   1.301158 A    
O34   Zn9   2.001138 S    
C169  H66   1.109895 S    
O5    Zn3   2.005580 S    
O39   C145  1.271211 A    
C63   N31   1.437826 S    
C170  H70   1.109663 S    
C53   N21   1.438257 S    
N6    H21   1.030901 S    
N46   C182  1.446244 S    
C41   N9    1.425877 S    
C39   C75   1.407627 A    
C179  H106  1.110660 S    
C95   C143  1.431602 S    
C123  C135  1.409733 A    
C176  H94   1.110862 S    
C181  H115  1.110290 S    
N45   H113  1.031151 S    
C128  C134  1.412246 A    
N51   O86   1.301293 A    
O34   C146  1.272880 A    
N7    H25   1.030306 S    
C68   C145  1.461225 S    
O23   C11   1.277468 A    
N14   C166  1.446275 S    
C122  N58   1.439044 S    
C72   C149  1.464091 S    
C102  N38   1.426727 S    
N55   O94   1.301326 A    
N9    H33   1.030983 S    
C111  C127  1.403643 A    
N40   H93   1.030177 S    
C110  C126  1.402012 A    
C105  C141  1.408490 A    
N18   O51   1.301174 A    
C84   C92   1.197390 T    
C160  H30   1.110781 S    
O14   C8    1.280484 A    
C111  N47   1.424752 S    
N20   O56   1.301256 A    
O2    Zn2   2.005411 S    
C19   C27   1.194598 T    
C66   C147  1.463152 S    
C52   C68   1.412916 A    
C102  C140  1.409449 A    
C181  H114  1.111418 S    
N50   O83   1.300458 A    
C168  H63   1.110725 S    
C174  H88   1.110469 S    
O28   C14   1.277561 A    
C70   C151  1.463791 S    
O26   C14   1.277497 A    
C103  C139  1.407795 A    
O29   C15   1.277605 A    
O46   Zn12  1.999984 S    
C156  H14   1.111325 S    
O8    Zn4   2.005846 S    
O30   C16   1.277528 A    
C35   C51   1.401653 A    
C117  C129  1.409594 A    
N5    H17   1.030567 S    
N15   C167  1.446377 S    
C94   C142  1.428565 S    
C48   C64   1.403641 A    
O19   Zn3   1.982813 S    
N11   H41   1.030547 S    
C109  N45   1.426349 S    
N17   O50   1.300857 A    
O41   C149  1.272244 A    
C108  C124  1.401633 A    
C35   N3    1.426668 S    
C163  H44   1.110294 S    
C109  C125  1.403440 A    
N63   O110  1.300970 A    
C6    C134  1.462667 S    
C170  H72   1.110206 S    
N23   O62   1.300873 A    
O38   C146  1.273452 A    
C159  H28   1.110347 S    
C110  C144  1.407295 A    
C174  H87   1.110282 S    
C116  C132  1.409422 A    
C105  N41   1.426360 S    
O44   C152  1.273072 A    
O16   Zn8   2.005846 S    
C47   C79   1.407567 A    
C166  H54   1.111392 S    
C57   C69   1.414163 A    
N59   O101  1.300639 A    
C99   C115  1.400796 A    
N34   H69   1.031270 S    
C171  H76   1.110308 S    
C59   C71   1.414066 A    
C157  H19   1.110803 S    
O6    Zn2   2.005841 S    
N61   O106  1.301155 A    
C92   C140  1.433027 S    
C93   C141  1.429147 S    
C155  H11   1.109978 S    
C112  N48   1.425727 S    
C167  H59   1.110690 S    
C158  H24   1.110710 S    
C113  N49   1.439406 S    
C48   C78   1.407667 A    
C46   C62   1.401771 A    
C176  H96   1.110288 S    
O18   C10   1.277474 A    
C124  N60   1.438579 S    
O21   Zn3   1.983421 S    
C46   N14   1.426032 S    
O14   Zn6   2.005841 S    
C38   C76   1.408770 A    
N54   O92   1.301176 A    
N38   C174  1.446379 S    
N58   O100  1.301267 A    
N10   H37   1.030307 S    
C111  C143  1.409501 A    
C164  H47   1.110189 S    
C25   C32   1.394269 S    
C116  N52   1.439237 S    
O12   C8    1.280742 A    
O1    C1    1.279045 A    
C160  H32   1.109714 S    
C173  H84   1.110483 S    
C107  C123  1.403458 A    
C123  N59   1.438321 S    
N3    C155  1.446620 S    
C169  H68   1.110295 S    
C177  H99   1.110296 S    
C156  H16   1.110693 S    
C172  H79   1.110163 S    
O29   Zn7   1.983421 S    
C73   C81   1.431352 S    
N54   O91   1.300663 A    
O48   C152  1.272417 A    
C184  H126  1.111443 S    
C49   C65   1.414989 A    
C46   C80   1.406803 A    
N47   C183  1.447443 S    
C43   N11   1.426069 S    
C77   C85   1.429208 S    
N35   C171  1.447253 S    
C79   C87   1.431546 S    
C39   N7    1.426579 S    
N19   O54   1.301463 A    
C109  C141  1.408351 A    
N27   O69   1.301167 A    
C178  H102  1.110669 S    
C58   C70   1.411210 A    
C62   C72   1.413744 A    
C157  H18   1.111457 S    
C62   N30   1.438022 S    
C33   N1    1.425868 S    
C159  H26   1.110067 S    
N44   C180  1.447484 S    
N1    H1    1.030520 S    
O10   C6    1.281672 A    
C106  C122  1.402274 A    
C58   N26   1.433971 S    
N24   O64   1.300771 A    
C101  C137  1.408957 A    
O15   Zn5   2.005575 S    
C127  C135  1.409569 A    
C179  H107  1.110366 S    
C87   C95   1.196508 T    
C154  H8    1.110322 S    
C88   C96   1.193873 T    
C15   C23   1.416291 S    
C175  H92   1.110401 S    
N28   O72   1.301068 A    
C16   C24   1.416352 S    
O5    C1    1.278800 A    
C61   C69   1.413873 A    
C171  H74   1.110567 S    
O35   C147  1.270941 A    
C33   C73   1.407254 A    
N62   O107  1.301173 A    
C63   C71   1.414103 A    
O47   Zn12  2.000689 S    
O33   C145  1.271430 A    
N49   O82   1.300970 A    
C90   C138  1.431505 S    
C57   N25   1.438146 S    
N31   O77   1.301121 A    
C28   C29   1.394201 S    
O32   Zn8   1.982541 S    
N64   O112  1.301162 A    
N12   H45   1.030706 S    
N29   O74   1.301297 A    
C182  H119  1.110747 S    
O22   Zn2   1.983707 S    
N19   O53   1.301138 A    
N33   C169  1.447462 S    
C43   C59   1.403467 A    
C162  H38   1.111367 S    
O21   C11   1.277444 A    
C37   N5    1.426102 S    
C180  H111  1.110196 S    
O22   C12   1.277456 A    
O23   Zn1   1.982815 S    
C112  C128  1.402350 A    
N25   O66   1.301093 A    
C106  C142  1.407711 A    
N48   H125  1.030470 S    
C50   C66   1.413074 A    
N26   O68   1.300744 A    
N2    H5    1.030572 S    
C108  N44   1.424929 S    
O3    Zn3   2.006011 S    
N52   O87   1.300434 A    
C89   C137  1.431422 S    
O8    C2    1.280023 A    
C49   N17   1.437921 S    
C44   C60   1.401182 A    
N55   O93   1.300527 A    
C39   C55   1.401264 A    
N13   H49   1.031036 S    
O28   Zn8   1.983705 S    
C121  C133  1.409784 A    
O36   Zn9   1.999987 S    
N56   O96   1.301082 A    
C26   C31   1.394273 S    
O30   Zn6   1.983707 S    
C44   C80   1.407051 A    
C184  H128  1.110325 S    
C96   C144  1.427229 S    
N30   O76   1.301142 A    
C60   N28   1.438290 S    
C165  H52   1.110285 S    
N4    C156  1.446129 S    
N60   O104  1.301212 A    
C98   N34   1.424732 S    
C55   C67   1.414170 A    
N59   O102  1.301155 A    
C60   C72   1.413825 A    
C178  H104  1.110379 S    
C158  H23   1.110233 S    
O45   C151  1.271635 A    
O9    Zn5   2.006013 S    
C112  C142  1.407494 A    
O11   Zn7   2.006011 S    
O16   C6    1.280185 A    
C76   C84   1.433006 S    
C83   C91   1.194169 T    
C128  N64   1.437872 S    
C81   C89   1.196386 T    
C175  H90   1.110614 S    
C80   C88   1.427218 S    
C103  C119  1.400719 A    
O6    C4    1.279583 A    
O37   Zn10  2.000086 S    
C27   C30   1.394247 S    
C170  H71   1.110269 S    
C9    C17   1.416269 S    
N23   O61   1.301162 A    
O45   Zn12  2.000086 S    
C59   N27   1.438447 S    
N10   C162  1.446115 S    
O31   Zn5   1.982815 S    
C12   C20   1.416451 S    
C115  N51   1.438617 S    
C13   C21   1.416349 S    
N18   O52   1.300753 A    
C124  C136  1.412314 A    
C17   C25   1.194612 T    
C126  N62   1.438196 S    
O17   Zn1   1.983418 S    
C67   C148  1.463423 S    
C61   N29   1.438054 S    
O43   C151  1.272323 A    
C20   C28   1.194576 T    
N50   O84   1.300916 A    
C168  H62   1.111398 S    
C162  H40   1.110258 S    
C113  C129  1.409307 A    
N42   H101  1.030911 S    
N37   C173  1.446248 S    
O13   Zn7   2.005580 S    
C161  H36   1.110284 S    
C64   N32   1.438783 S    
C40   N8    1.425815 S    
O2    C2    1.278855 A    
O20   Zn4   1.983705 S    
N15   H57   1.030556 S    
C167  H58   1.111418 S    
N43   H105  1.030943 S    
C65   C146  1.468407 S    
N17   O49   1.301133 A    
C5    C133  1.454868 S    
C117  N53   1.438587 S    
N39   C175  1.447189 S    
C54   C68   1.412138 A    
O48   Zn12  2.001142 S    
C45   N13   1.425858 S    
O4    Zn4   2.005408 S    
C163  H43   1.110813 S    
C3    C131  1.461885 S    
C153  H3    1.110772 S    
C1    C129  1.455515 S    
C159  H27   1.110185 S    
N41   C177  1.446249 S    
C125  C133  1.409812 A    
C155  H10   1.109936 S    
O32   C16   1.277533 A    
C183  H124  1.110287 S    
N53   O90   1.301171 A    
O42   Zn11  2.001138 S    
O44   Zn11  1.999987 S    
C18   C26   1.194626 T    
C165  H50   1.111478 S    
N6    C158  1.446089 S    
C34   N2    1.426071 S    
C177  H98   1.111403 S    
N11   C163  1.446267 S    
C40   C56   1.400539 A    
N1    C153  1.446392 S    
N61   O105  1.300705 A    
C166  H55   1.110795 S    
C53   C65   1.414746 A    
O15   C7    1.279122 A    
N34   C170  1.447333 S    
C22   C30   1.194612 T    
C52   N20   1.438579 S    
C48   N16   1.426249 S    
C69   C150  1.465932 S    
C176  H95   1.110279 S    
C181  H116  1.110846 S    
N45   C181  1.446234 S    
O25   Zn5   1.983418 S    
O42   C150  1.272873 A    
N7    C159  1.446553 S    
O27   Zn7   1.982813 S    
O35   Zn9   2.000687 S    
O7    Zn1   2.005575 S    
N57   O97   1.300722 A    
N44   H109  1.030718 S    
N9    C161  1.445988 S    
C51   N19   1.437842 S    
N21   O58   1.301036 A    
C164  H46   1.110691 S    
C110  N46   1.426047 S    
C160  H31   1.110246 S    
C173  H83   1.110350 S    
O43   Zn11  2.000687 S    
N20   O55   1.300467 A    
N2    C154  1.446652 S    
C154  H6    1.111393 S    
O19   C9    1.277420 A    
C108  C144  1.407668 A    
C168  H64   1.110343 S    
C101  N37   1.426354 S    
C36   N4    1.425594 S    
N53   O89   1.300666 A    
O24   C12   1.277595 A    
C169  H67   1.110236 S    
C156  H15   1.110250 S    
C172  H78   1.109666 S    
O12   Zn8   2.005408 S    
C36   C52   1.403871 A    
N22   O60   1.301263 A    
N27   O70   1.301042 A    
C163  H42   1.111459 S    
C40   C74   1.408039 A    
N32   O79   1.301197 A    
N32   O80   1.300979 A    
N5    C157  1.446297 S    
N8    H29   1.030389 S    
C98   C138  1.409571 A    
C45   C61   1.403126 A    
C37   C53   1.403261 A    
N35   H73   1.030691 S    
C107  C143  1.408944 A    
C56   C66   1.410446 A    
N3    H9    1.030494 S    
C120  N56   1.437445 S    
C104  C138  1.409011 A    
C103  N39   1.424381 S    
C121  N57   1.438587 S    
C122  C134  1.412759 A    
C11   C19   1.416357 S    
C126  C136  1.412319 A    
C127  N63   1.439347 S    
N29   O73   1.301133 A    
C183  H122  1.109851 S    
C154  H7    1.110589 S    
C161  H35   1.111065 S    
C175  H91   1.110163 S    
N47   H121  1.031281 S    
C174  H86   1.110894 S    
C41   C57   1.402881 A    
O20   C10   1.277606 A    
C36   C76   1.407826 A    
N62   O108  1.301206 A    
C157  H20   1.110288 S    
C24   C32   1.194623 T    
C118  N54   1.438620 S    
N49   O81   1.300482 A    
O10   Zn6   2.005411 S    
C119  N55   1.438680 S    
O39   Zn10  2.000689 S    
N46   H117  1.030591 S    
C74   C82   1.431412 S    
C115  C131  1.412359 A    
C155  H12   1.110366 S    
C97   C137  1.409493 A    
C107  N43   1.426346 S    
N4    H13   1.030726 S    
C120  C130  1.409442 A    
C78   C86   1.428370 S    
C125  N61   1.438458 S    
O1    Zn1   2.006013 S    
C71   C152  1.466996 S    
C82   C90   1.196478 T    
C114  N50   1.439099 S    
N38   H85   1.031052 S    
O27   C13   1.277330 A    
