data_mof_unit_9462.cif
_audit_creation_date              2012-12-11T17:43:55-0500
_audit_creation_method            fapswitch 2.2
_symmetry_space_group_name_H-M    P1
_symmetry_Int_Tables_number       1
_space_group_crystal_system       triclinic
_cell_length_a                    20.179714
_cell_length_b                    22.742319
_cell_length_c                    6.944199
_cell_angle_alpha                 90.378699
_cell_angle_beta                  86.545906
_cell_angle_gamma                 90.002247
_cell_volume                      3181.0664146

loop_
_atom_site_label
_atom_site_type_symbol
_atom_type_description
_atom_site_fract_x
_atom_site_fract_y
_atom_site_fract_z
_atom_type_partial_charge
O1    O     O_R   0.751270 0.447300 0.600030 -0.495093
O2    O     O_R   0.248730 0.947300 0.399970 -0.498698
O3    O     O_R   0.613530 0.440160 0.952150 -0.539961
O4    O     O_R   0.386470 0.940160 0.047850 -0.542014
O5    O     O_R   0.613050 0.552700 0.122560 -0.539981
O6    O     O_R   0.386950 0.052700 0.877440 -0.544493
C1    C     C_R   0.591860 0.425000 0.786415 0.680816
C2    C     C_R   0.409404 0.926124 0.211337 0.702875
O7    O     O_R   0.750780 0.440350 0.929820 -0.537967
O8    O     O_R   0.249220 0.940350 0.070180 -0.536390
O9    O     O_R   0.751280 0.552900 0.100070 -0.543034
O10   O     O_R   0.248720 0.052900 0.899930 -0.543518
C3    C     C_R   0.773995 0.426055 0.756520 0.753902
C4    C     C_R   0.226430 0.925688 0.242693 0.755514
O11   O     O_R   0.613040 0.447100 0.622520 -0.541311
O12   O     O_R   0.386960 0.947100 0.377480 -0.539802
O13   O     O_3   0.682160 0.536920 0.777780 -0.380262
O14   O     O_3   0.317840 0.036920 0.222220 -0.379572
V1    V     V_3+5 0.682160 0.493150 0.052630 1.456273
V2    V     V_3+5 0.317840 0.993150 0.947370 1.458076
O15   O     O_R   0.750790 0.559840 0.429870 -0.541870
O16   O     O_R   0.249210 0.059840 0.570130 -0.545889
C5    C     C_R   0.773388 0.574556 0.257590 0.724675
C6    C     C_R   0.226701 0.074575 0.743080 0.700598
O17   O     O_R   0.613540 0.559650 0.452200 -0.542386
O18   O     O_R   0.386460 0.059650 0.547800 -0.540133
C7    C     C_R   0.591864 0.575039 0.288431 0.680857
C8    C     C_R   0.409175 0.073751 0.712860 0.677808
V3    V     V_3+5 0.682160 0.506850 0.552630 1.462688
V4    V     V_3+5 0.317840 0.006850 0.447370 1.458261
O19   O     O_3   0.682150 0.463080 0.277610 -0.349177
O20   O     O_3   0.317850 0.963080 0.722390 -0.342132
C9    C     C_R   0.578003 0.857294 0.089429 -0.190356
C10   C     C_R   0.418490 0.360167 0.806612 -0.192181
H1    H     H_    0.664863 0.770023 0.042043 0.122385
H2    H     H_    0.328001 0.276036 0.815094 0.121319
H3    H     H_    0.626207 0.869789 0.025012 0.110034
H4    H     H_    0.367406 0.375142 0.823540 0.114887
C11   C     C_R   0.465625 0.883978 0.202447 -0.071641
C12   C     C_R   0.536280 0.382473 0.784931 -0.062906
C13   C     C_R   0.477312 0.602488 0.395638 -0.191671
C14   C     C_R   0.528946 0.095194 0.674559 -0.216145
C15   C     C_R   0.424661 0.642248 0.423768 0.137508
C16   C     C_R   0.583324 0.133422 0.658970 0.129397
C17   C     C_R   0.432167 0.699803 0.356746 -0.187038
C18   C     C_R   0.573317 0.193995 0.685955 -0.184229
C19   C     C_R   0.493190 0.720283 0.272836 0.055407
C20   C     C_R   0.509325 0.217612 0.729721 0.057806
C21   C     C_R   0.546143 0.678743 0.240052 0.062836
C22   C     C_R   0.454111 0.177952 0.739304 0.068051
C23   C     C_R   0.503482 0.780994 0.223984 0.081241
C24   C     C_R   0.498093 0.279526 0.758113 0.082848
C25   C     C_R   0.566157 0.798376 0.140048 0.118435
C26   C     C_R   0.431801 0.299992 0.785864 0.116823
C27   C     C_R   0.616897 0.756871 0.106360 -0.197092
C28   C     C_R   0.378671 0.260430 0.792657 -0.198778
C29   C     C_R   0.607230 0.698151 0.155809 -0.192259
C30   C     C_R   0.389563 0.200426 0.771870 -0.187008
C31   C     C_R   0.454039 0.825260 0.256600 -0.247736
C32   C     C_R   0.549957 0.321992 0.760831 -0.245742
C33   C     C_R   0.528379 0.900232 0.117888 0.080231
C34   C     C_R   0.469767 0.401695 0.805777 0.074608
C35   C     C_R   0.537290 0.619138 0.298605 -0.113793
C36   C     C_R   0.464492 0.116607 0.712069 -0.105980
H5    H     H_    0.405145 0.815588 0.318959 0.114709
H6    H     H_    0.601570 0.309527 0.747208 0.101460
H7    H     H_    0.471391 0.557859 0.447950 0.105024
H8    H     H_    0.536597 0.048401 0.652457 0.102058
H9    H     H_    0.389215 0.727737 0.374494 0.117157
H10   H     H_    0.616318 0.221801 0.665357 0.111626
H11   H     H_    0.648420 0.668119 0.128869 0.114893
H12   H     H_    0.346640 0.171772 0.779157 0.107591
C37   C     C_R   0.172120 0.881117 0.260689 -0.181929
C38   C     C_R   0.829105 0.382095 0.736308 -0.185857
C39   C     C_R   0.134721 0.867522 0.101388 -0.273215
C40   C     C_R   0.852027 0.354222 0.900307 -0.282617
C41   C     C_R   0.083183 0.826144 0.116695 -0.142226
C42   C     C_R   0.904241 0.313483 0.883654 -0.138743
C43   C     C_R   0.067833 0.797018 0.292764 0.339961
C44   C     C_R   0.934543 0.299124 0.701107 0.342160
C45   C     C_R   0.105445 0.810157 0.450530 -0.271530
C46   C     C_R   0.911183 0.326068 0.537752 -0.268763
C47   C     C_R   0.156813 0.851618 0.436007 0.579791
C48   C     C_R   0.859767 0.367464 0.554110 0.586599
C49   C     C_R   0.885980 0.702974 0.381420 0.076460
C50   C     C_R   0.114807 0.202946 0.620825 0.076133
C51   C     C_R   0.836802 0.658501 0.395360 -0.214377
C52   C     C_R   0.164384 0.158800 0.608006 -0.217618
C53   C     C_R   0.928321 0.705990 0.209549 0.383084
C54   C     C_R   0.071002 0.205443 0.790544 0.380157
N1    N     N_2   0.016112 0.754230 0.318351 -0.297106
N2    N     N_2   0.987022 0.257195 0.673867 -0.304093
N3    N     N_2   0.979829 0.748708 0.179781 -0.320333
N4    N     N_2   0.018153 0.247123 0.820207 -0.314868
C55   C     C_R   0.826502 0.619991 0.240663 -0.078013
C56   C     C_R   0.173684 0.120070 0.760992 -0.075953
H13   H     H_    0.805040 0.654056 0.525200 0.128598
H14   H     H_    0.197221 0.154637 0.480086 0.130406
H15   H     H_    0.094711 0.788025 0.586536 0.148145
H16   H     H_    0.933745 0.315414 0.396303 0.143234
C57   C     C_R   0.866456 0.625836 0.069720 -0.206892
C58   C     C_R   0.132654 0.125551 0.930070 -0.212999
C59   C     C_R   0.916707 0.668081 0.055262 -0.191145
C60   C     C_R   0.082013 0.167488 0.943725 -0.196525
H17   H     H_    0.859426 0.597232 0.947303 0.140793
H18   H     H_    0.139008 0.096776 0.051257 0.136177
H19   H     H_    0.055702 0.817062 0.990664 0.155490
H20   H     H_    0.920160 0.292806 0.013057 0.155509
H21   H     H_    0.947300 0.671212 0.922138 0.135229
H22   H     H_    0.050460 0.170228 0.075293 0.132710
H23   H     H_    0.144861 0.889344 0.964684 0.212811
H24   H     H_    0.829343 0.363671 0.042084 0.232682
C61   C     C_3   0.542753 0.962651 0.051965 -0.375090
C62   C     C_3   0.548416 0.004963 0.223577 -0.322717
C63   C     C_3   0.544745 0.068802 0.159126 -0.737699
H25   H     H_    0.582948 0.077437 0.041835 0.227642
H26   H     H_    0.494850 0.078419 0.107952 0.241628
H27   H     H_    0.553664 0.098859 0.280750 0.222878
H28   H     H_    0.507966 0.997395 0.336037 0.194928
H29   H     H_    0.596450 0.997371 0.289782 0.185729
H30   H     H_    0.589948 0.964600 0.960782 0.163444
H31   H     H_    0.503265 0.977345 0.958513 0.183162
C64   C     C_3   0.450998 0.465886 0.827175 -0.367252
C65   C     C_3   0.424244 0.479384 0.034049 -0.297382
C66   C     C_3   0.393179 0.540279 0.047630 -0.777325
H32   H     H_    0.431436 0.574412 0.014334 0.239470
H33   H     H_    0.353291 0.543715 0.945429 0.233681
H34   H     H_    0.370695 0.547493 0.195285 0.218257
H35   H     H_    0.385663 0.446857 0.081835 0.194889
H36   H     H_    0.465379 0.476899 0.133313 0.193242
H37   H     H_    0.493459 0.495549 0.789740 0.164183
H38   H     H_    0.412556 0.475768 0.723681 0.166473
C67   C     C_3   0.892589 0.747918 0.543318 -0.325418
C68   C     C_3   0.832456 0.753049 0.689748 -0.358654
C69   C     C_3   0.840944 0.803953 0.830531 -0.751252
H39   H     H_    0.886871 0.798029 0.908702 0.243400
H40   H     H_    0.843716 0.846374 0.752107 0.226225
H41   H     H_    0.797810 0.805442 0.937613 0.213104
H42   H     H_    0.786508 0.760463 0.612577 0.201558
H43   H     H_    0.826866 0.712045 0.775027 0.203283
H44   H     H_    0.937177 0.736916 0.622335 0.190435
H45   H     H_    0.900352 0.791924 0.476739 0.199343
C70   C     C_3   0.109554 0.247883 0.459885 -0.325889
C71   C     C_3   0.169830 0.251860 0.313718 -0.360319
C72   C     C_3   0.162076 0.302328 0.172946 -0.740549
H46   H     H_    0.116256 0.296452 0.093976 0.243455
H47   H     H_    0.159561 0.345049 0.251497 0.227826
H48   H     H_    0.205402 0.303112 0.066481 0.213086
H49   H     H_    0.215829 0.259095 0.391117 0.201805
H50   H     H_    0.174849 0.210492 0.228257 0.205164
H51   H     H_    0.065026 0.237487 0.379363 0.192184
H52   H     H_    0.102716 0.292070 0.527798 0.201519
F1    F     F_    0.192042 0.861867 0.593243 -0.694184
F2    F     F_    0.840839 0.393440 0.391012 -0.702024
C73   C     C_3   0.359157 0.623446 0.521451 -0.381743
C74   C     C_3   0.343198 0.658005 0.709533 -0.294602
C75   C     C_3   0.273376 0.644215 0.794065 -0.742178
H53   H     H_    0.235845 0.660342 0.696314 0.236771
H54   H     H_    0.266622 0.596180 0.814159 0.220085
H55   H     H_    0.265020 0.666540 0.936168 0.223412
H56   H     H_    0.380023 0.646898 0.816033 0.200181
H57   H     H_    0.346174 0.706105 0.683850 0.203303
H58   H     H_    0.319391 0.630832 0.420120 0.180563
H59   H     H_    0.359770 0.575683 0.554812 0.164316
C76   C     C_3   0.651683 0.110165 0.598508 -0.370713
C77   C     C_3   0.701045 0.119368 0.755758 -0.308984
C78   C     C_3   0.770408 0.098477 0.687161 -0.751545
H60   H     H_    0.769631 0.050891 0.650187 0.224846
H61   H     H_    0.788927 0.123727 0.558497 0.231329
H62   H     H_    0.804983 0.105396 0.803727 0.221438
H63   H     H_    0.703832 0.166667 0.795578 0.195021
H64   H     H_    0.684642 0.094261 0.886500 0.192354
H65   H     H_    0.649362 0.062436 0.563507 0.169179
H66   H     H_    0.669878 0.133085 0.464573 0.176964

loop_
_geom_bond_atom_site_label_1
_geom_bond_atom_site_label_2
_ccdc_geom_bond_type
C69   H41   S    
V4    O20   S    
C52   C56   A    
C77   H64   S    
C76   C77   S    
C21   C35   A    
C54   N4    S    
C56   C58   A    
C64   H38   S    
C22   C36   A    
O4    C2    A    
V1    O19   S    
C62   C63   S    
C21   C29   A    
C69   H39   S    
C78   H61   S    
O18   C8    A    
O9    V1    S    
C67   H45   S    
C75   H53   S    
C38   C40   A    
C12   C32   A    
C74   C75   S    
C40   C42   A    
O3    C1    A    
C6    C56   S    
C68   H43   S    
C42   C44   A    
O12   V4    S    
C70   C71   S    
C10   C34   A    
C12   C34   A    
O17   V3    S    
C42   H20   S    
C17   C19   A    
O7    C3    A    
C71   H50   S    
C24   C32   A    
C45   C47   A    
O5    C7    A    
C48   F2    S    
O7    V1    S    
O6    C8    A    
C61   H31   S    
C16   C18   A    
C63   H26   S    
C51   C55   A    
C66   H34   S    
C1    C12   S    
O3    V1    S    
O14   V4    S    
C2    C11   S    
C28   C30   A    
C43   N1    S    
C62   H28   S    
C49   C51   A    
C32   H6    S    
C77   H63   S    
C75   H54   S    
C53   C59   A    
C14   H8    S    
C13   C15   A    
C77   C78   S    
C14   C16   A    
C15   C73   S    
O1    V3    S    
C34   C64   S    
C72   H47   S    
C24   C26   A    
C50   C70   S    
O11   V3    S    
C78   H62   S    
C18   C20   A    
C25   C27   A    
C9    C25   A    
C11   C33   A    
C26   C28   A    
C57   H17   S    
H1    C27   S    
C22   C30   A    
C4    C37   S    
C64   C65   S    
C13   H7    S    
C50   C54   A    
O8    V2    S    
C78   H60   S    
C43   C45   A    
C49   C53   A    
C19   C23   A    
C1    O11   A    
C45   H15   S    
C73   H58   S    
C76   H66   S    
C17   H9    S    
C9    H3    S    
C23   C25   A    
C44   N2    S    
C71   H49   S    
H2    C28   S    
N1    N3    D    
C39   C41   A    
C41   H19   S    
C40   H24   S    
C63   H27   S    
C11   C31   A    
O10   V2    S    
N2    N4    D    
C41   C43   A    
C65   H36   S    
C29   H11   S    
C58   C60   A    
C20   C22   A    
C15   C17   A    
C54   C60   A    
C7    C35   S    
O5    V1    S    
C8    C36   S    
C44   C46   A    
C70   H52   S    
C74   H56   S    
C10   C26   A    
C75   H55   S    
C46   C48   A    
O15   C5    A    
C33   C61   S    
C66   H32   S    
O16   C6    A    
C23   C31   A    
C37   C39   A    
C14   C36   A    
C72   H46   S    
C68   H42   S    
C72   H48   S    
C61   C62   S    
V2    O20   S    
C69   H40   S    
C70   H51   S    
O16   V4    S    
C64   H37   S    
C10   H4    S    
C46   H16   S    
C38   C48   A    
C71   C72   S    
O14   V2    S    
O18   V4    S    
C68   C69   S    
C47   F1    S    
C73   H59   S    
C19   C21   A    
C61   H30   S    
O6    V2    S    
O10   C6    A    
C39   H23   S    
C57   C59   A    
C59   H21   S    
O2    V4    S    
C27   C29   A    
V3    O19   S    
O13   V3    S    
C31   H5    S    
C60   H22   S    
C30   H12   S    
C63   H25   S    
C67   C68   S    
O15   V3    S    
C9    C33   A    
O9    C5    A    
O13   V1    S    
C5    C55   S    
C65   H35   S    
C58   H18   S    
C50   C52   A    
C16   C76   S    
C53   N3    S    
O2    C4    A    
C62   H29   S    
C18   H10   S    
C74   H57   S    
O4    V2    S    
C20   C24   A    
O1    C3    A    
C3    C38   S    
C2    O12   A    
C49   C67   S    
C73   C74   S    
C66   H33   S    
C13   C35   A    
C67   H44   S    
C76   H65   S    
C37   C47   A    
C52   H14   S    
C55   C57   A    
O8    C4    A    
C65   C66   S    
C51   H13   S    
O17   C7    A    
