data_mof_unit_64165.cif
_audit_creation_date              2012-12-10T20:07:42-0500
_audit_creation_method            fapswitch 2.2
_symmetry_space_group_name_H-M    P1
_symmetry_Int_Tables_number       1
_space_group_crystal_system       triclinic
_cell_length_a                    22.524592
_cell_length_b                    36.224064
_cell_length_c                    22.522977
_cell_angle_alpha                 90.002121
_cell_angle_beta                  90.000284
_cell_angle_gamma                 90.007038
_cell_volume                      18377.2234232

loop_
_atom_site_label
_atom_site_type_symbol
_atom_type_description
_atom_site_fract_x
_atom_site_fract_y
_atom_site_fract_z
_atom_type_partial_charge
C1    C     C_R   0.500026 0.849564 0.750014 0.828703
C2    C     C_R   0.500011 0.849560 0.249998 0.828638
C3    C     C_R   0.499995 0.150439 0.249993 0.824043
C4    C     C_R   0.500010 0.150437 0.750017 0.823040
C5    C     C_R   0.500023 0.349564 0.250010 0.827525
C6    C     C_R   0.500025 0.349564 0.749990 0.827787
C7    C     C_R   0.500008 0.650436 0.749986 0.822103
C8    C     C_R   0.500010 0.650436 0.250013 0.822022
C9    C     C_R   0.000026 0.849564 0.250015 0.828487
C10   C     C_R   0.000004 0.849561 0.750005 0.829930
C11   C     C_R   0.999985 0.150439 0.749999 0.824509
C12   C     C_R   0.000010 0.150437 0.250018 0.823083
C13   C     C_R   0.000009 0.349564 0.750009 0.820589
C14   C     C_R   0.000025 0.349564 0.249991 0.828218
C15   C     C_R   0.000010 0.650436 0.249986 0.821681
C16   C     C_R   0.000020 0.650436 0.750011 0.828922
C17   C     C_3   0.494863 0.536914 0.748971 -0.208500
C18   C     C_3   0.494868 0.536913 0.251035 -0.209274
C19   C     C_3   0.495997 0.463182 0.251317 -0.227454
C20   C     C_3   0.496000 0.463183 0.748692 -0.228405
C21   C     C_3   0.495757 0.036926 0.247307 -0.182407
C22   C     C_3   0.495229 0.036912 0.751718 -0.211165
C23   C     C_3   0.496368 0.963182 0.751886 -0.231322
C24   C     C_3   0.497146 0.963157 0.246782 -0.158960
C25   C     C_3   0.994769 0.536913 0.249196 -0.209431
C26   C     C_3   0.996028 0.536817 0.751365 -0.229007
C27   C     C_3   0.994897 0.463086 0.751097 -0.208126
C28   C     C_3   0.995898 0.463182 0.248882 -0.228270
C29   C     C_3   0.996604 0.036926 0.746270 -0.181549
C30   C     C_3   0.995304 0.036912 0.251877 -0.210455
C31   C     C_3   0.996443 0.963182 0.252021 -0.230650
C32   C     C_3   0.998031 0.963156 0.746019 -0.158450
C33   C     C_3   0.954678 0.978061 0.796726 0.519980
C34   C     C_3   0.969142 0.978158 0.191269 0.564612
C35   C     C_3   0.959507 0.021616 0.196027 0.560469
C36   C     C_3   0.946616 0.021514 0.789698 0.570027
C37   C     C_3   0.978835 0.478161 0.313264 0.565462
C38   C     C_3   0.965534 0.478375 0.691611 0.561161
C39   C     C_3   0.975649 0.521837 0.687952 0.565245
C40   C     C_3   0.968536 0.521621 0.310128 0.561592
C41   C     C_3   0.464548 0.978056 0.304994 0.521338
C42   C     C_3   0.470437 0.978158 0.690536 0.564968
C43   C     C_3   0.460696 0.021617 0.695078 0.561359
C44   C     C_3   0.455248 0.021509 0.299684 0.570390
C45   C     C_3   0.476621 0.478161 0.812416 0.565066
C46   C     C_3   0.476542 0.478157 0.187616 0.564932
C47   C     C_3   0.466375 0.521617 0.191127 0.561144
C48   C     C_3   0.466444 0.521621 0.808914 0.561396
C49   C     C_1   0.999598 0.922254 0.748248 0.197675
C50   C     C_1   0.998723 0.922266 0.250697 0.087469
C51   C     C_1   0.997915 0.077739 0.250596 0.233108
C52   C     C_1   0.998626 0.077749 0.748445 0.237172
C53   C     C_1   0.998396 0.422266 0.249785 0.086637
C54   C     C_1   0.997647 0.422259 0.750146 0.230385
C55   C     C_1   0.998464 0.577734 0.750337 0.086871
C56   C     C_1   0.997562 0.577740 0.249995 0.230912
C57   C     C_1   0.499142 0.922256 0.248638 0.197202
C58   C     C_1   0.498680 0.922265 0.750621 0.087239
C59   C     C_1   0.497867 0.077740 0.750505 0.233005
C60   C     C_1   0.498156 0.077749 0.249018 0.236687
C61   C     C_1   0.498457 0.422266 0.749688 0.086796
C62   C     C_1   0.498451 0.422266 0.250318 0.086760
C63   C     C_1   0.497630 0.577740 0.250123 0.230858
C64   C     C_1   0.497623 0.577741 0.749877 0.230338
C65   C     C_1   0.499984 0.749989 0.526627 -0.108068
C66   C     C_1   0.499986 0.749990 0.473373 -0.107968
C67   C     C_1   0.499984 0.250009 0.473373 -0.115180
C68   C     C_1   0.499985 0.250009 0.526627 -0.115174
C69   C     C_1   0.499985 0.249989 0.026627 -0.107794
C70   C     C_1   0.499986 0.249990 0.973373 -0.107657
C71   C     C_1   0.499984 0.750010 0.973373 -0.114717
C72   C     C_1   0.499985 0.750009 0.026627 -0.113606
C73   C     C_1   0.999984 0.749990 0.026627 -0.110949
C74   C     C_1   0.999985 0.749990 0.973373 -0.113531
C75   C     C_1   0.999984 0.250010 0.973373 -0.110107
C76   C     C_1   0.999985 0.250009 0.026627 -0.112826
C77   C     C_1   0.999985 0.249989 0.526627 -0.107764
C78   C     C_1   0.999986 0.249990 0.473373 -0.107692
C79   C     C_1   0.999985 0.750010 0.473373 -0.114794
C80   C     C_1   0.999986 0.750010 0.526627 -0.113918
C81   C     C_R   0.499993 0.750006 0.910134 0.848723
C82   C     C_R   0.499994 0.750006 0.089866 0.850808
C83   C     C_R   0.499994 0.249993 0.089864 0.848663
C84   C     C_R   0.499994 0.249994 0.910136 0.847939
C85   C     C_R   0.499993 0.250006 0.410134 0.847637
C86   C     C_R   0.499994 0.250005 0.589866 0.848076
C87   C     C_R   0.499993 0.749994 0.589864 0.847545
C88   C     C_R   0.499994 0.749994 0.410136 0.847228
C89   C     C_R   0.999993 0.750006 0.410134 0.847964
C90   C     C_R   0.999994 0.750006 0.589866 0.849348
C91   C     C_R   0.999994 0.249993 0.589864 0.849793
C92   C     C_R   0.999995 0.249994 0.410136 0.848217
C93   C     C_R   0.999993 0.250006 0.910134 0.847302
C94   C     C_R   0.999994 0.250006 0.089865 0.848395
C95   C     C_R   0.999993 0.749994 0.089864 0.847596
C96   C     C_R   0.999994 0.749994 0.910136 0.847931
C97   C     C_R   0.339863 0.749999 0.749999 0.852265
C98   C     C_R   0.339864 0.749999 0.250001 0.850734
C99   C     C_R   0.339863 0.249999 0.249999 0.851418
C100  C     C_R   0.339864 0.249999 0.750001 0.851423
C101  C     C_R   0.839863 0.749999 0.249999 0.852715
C102  C     C_R   0.839864 0.749999 0.750001 0.852457
C103  C     C_R   0.839863 0.250000 0.749998 0.850038
C104  C     C_R   0.839864 0.249999 0.250001 0.851031
C105  C     C_R   0.660134 0.750001 0.749999 0.843351
C106  C     C_R   0.660135 0.750001 0.250001 0.845519
C107  C     C_R   0.660134 0.250001 0.249999 0.843845
C108  C     C_R   0.660135 0.250001 0.750001 0.843947
C109  C     C_R   0.160134 0.750001 0.249999 0.843011
C110  C     C_R   0.160135 0.750001 0.750001 0.844866
C111  C     C_R   0.160134 0.250001 0.749999 0.844817
C112  C     C_R   0.160135 0.250001 0.250001 0.844262
C113  C     C_1   0.723372 0.750001 0.749999 -0.113110
C114  C     C_1   0.723373 0.750001 0.250001 -0.110930
C115  C     C_1   0.723372 0.250001 0.249999 -0.111332
C116  C     C_1   0.723373 0.250002 0.750001 -0.108296
C117  C     C_1   0.223373 0.750001 0.249999 -0.111441
C118  C     C_1   0.223373 0.750001 0.750002 -0.110339
C119  C     C_1   0.223372 0.250001 0.749998 -0.112963
C120  C     C_1   0.223373 0.250001 0.250001 -0.111160
C121  C     C_1   0.776625 0.749999 0.750002 -0.117022
C122  C     C_1   0.776626 0.749999 0.249998 -0.113064
C123  C     C_1   0.776626 0.249999 0.250002 -0.113176
C124  C     C_1   0.776625 0.250000 0.749998 -0.107620
C125  C     C_1   0.276626 0.749999 0.250002 -0.112772
C126  C     C_1   0.276625 0.749999 0.749999 -0.112622
C127  C     C_1   0.276626 0.249999 0.750001 -0.114506
C128  C     C_1   0.276625 0.249999 0.249998 -0.113230
C129  C     C_3   0.560563 0.521686 0.743604 0.119793
C130  C     C_3   0.560573 0.521683 0.256325 0.121342
C131  C     C_3   0.559244 0.479125 0.266864 0.218164
C132  C     C_3   0.559226 0.479127 0.733069 0.218407
C133  C     C_3   0.561117 0.021739 0.256033 0.099029
C134  C     C_3   0.561126 0.021680 0.750190 0.119529
C135  C     C_3   0.560885 0.979120 0.760812 0.216034
C136  C     C_3   0.562186 0.979208 0.245173 0.202716
C137  C     C_3   0.060232 0.521686 0.241458 0.120938
C138  C     C_3   0.059495 0.520885 0.765987 0.218566
C139  C     C_3   0.060672 0.478326 0.755429 0.119693
C140  C     C_3   0.058518 0.479127 0.230982 0.218162
C141  C     C_3   0.058982 0.021725 0.767627 0.098839
C142  C     C_3   0.061150 0.021678 0.248873 0.120869
C143  C     C_3   0.061145 0.979118 0.259500 0.217135
C144  C     C_3   0.062136 0.979195 0.757173 0.203225
C145  C     C_3   0.459039 0.522126 0.691426 -0.225698
C146  C     C_3   0.459111 0.522131 0.308622 -0.224520
C147  C     C_3   0.451122 0.477449 0.301927 -0.320043
C148  C     C_3   0.451061 0.477445 0.698137 -0.317230
C149  C     C_3   0.473045 0.022267 0.183362 -0.246682
C150  C     C_3   0.465614 0.022133 0.812697 -0.214351
C151  C     C_3   0.456969 0.977452 0.806864 -0.306650
C152  C     C_3   0.463930 0.977569 0.187773 -0.304431
C153  C     C_3   0.956889 0.522122 0.192985 -0.223825
C154  C     C_3   0.951894 0.522544 0.802620 -0.318992
C155  C     C_3   0.959982 0.477864 0.809200 -0.223947
C156  C     C_3   0.949161 0.477441 0.199983 -0.321379
C157  C     C_3   0.986843 0.022271 0.679114 -0.247333
C158  C     C_3   0.967064 0.022135 0.313505 -0.215194
C159  C     C_3   0.958288 0.977453 0.307870 -0.307848
C160  C     C_3   0.977010 0.977575 0.681654 -0.303840
C161  C     C_1   0.000114 0.889035 0.749487 -0.027302
C162  C     C_1   0.999732 0.889045 0.250097 -0.055772
C163  C     C_1   0.999428 0.110956 0.249969 0.008192
C164  C     C_1   0.999735 0.110963 0.749659 0.006981
C165  C     C_1   0.999567 0.389046 0.250113 -0.054852
C166  C     C_1   0.999287 0.389043 0.749772 0.006321
C167  C     C_1   0.999595 0.610954 0.749939 -0.054065
C168  C     C_1   0.999241 0.610957 0.250273 0.007167
C169  C     C_1   0.499930 0.889036 0.249660 -0.027026
C170  C     C_1   0.499710 0.889045 0.750063 -0.055389
C171  C     C_1   0.499402 0.110957 0.749930 0.008314
C172  C     C_1   0.499530 0.110964 0.249896 0.006576
C173  C     C_1   0.499599 0.389046 0.750073 -0.055128
C174  C     C_1   0.499594 0.389045 0.249930 -0.055818
C175  C     C_1   0.499278 0.610957 0.249771 0.008113
C176  C     C_1   0.499273 0.610957 0.750228 0.006916
H1    H     H_    0.088602 0.975078 0.716287 0.156763
H2    H     H_    0.074989 0.974730 0.306188 0.078817
H3    H     H_    0.087908 0.034357 0.284974 0.139978
H4    H     H_    0.094768 0.034529 0.740599 0.149770
H5    H     H_    0.064590 0.474733 0.182666 0.076499
H6    H     H_    0.083249 0.465653 0.794282 0.135702
H7    H     H_    0.068068 0.525277 0.813923 0.076890
H8    H     H_    0.080760 0.534361 0.201483 0.136006
H9    H     H_    0.580142 0.975089 0.199899 0.155481
H10   H     H_    0.573682 0.974731 0.807797 0.078752
H11   H     H_    0.587068 0.034358 0.786882 0.139674
H12   H     H_    0.590910 0.034544 0.222515 0.148772
H13   H     H_    0.567042 0.474735 0.685004 0.076093
H14   H     H_    0.567114 0.474734 0.314921 0.076202
H15   H     H_    0.582581 0.534361 0.295503 0.136834
H16   H     H_    0.582523 0.534363 0.704398 0.136115
O1    O     O_3   0.499990 0.750000 0.750000 -0.516605
O2    O     O_3   0.499990 0.750000 0.250000 -0.517716
O3    O     O_3   0.499990 0.250000 0.250000 -0.516842
O4    O     O_3   0.499990 0.250000 0.750000 -0.517065
O5    O     O_3   0.999990 0.750000 0.250000 -0.516452
O6    O     O_3   0.999990 0.750000 0.750000 -0.514271
O7    O     O_3   0.999990 0.250000 0.750000 -0.520188
O8    O     O_3   0.999990 0.250000 0.250000 -0.517109
O9    O     O_R   0.534620 0.832000 0.715360 -0.601846
O10   O     O_R   0.534620 0.832000 0.284640 -0.607638
O11   O     O_R   0.534620 0.168000 0.284640 -0.619845
O12   O     O_R   0.534620 0.168000 0.715360 -0.618821
O13   O     O_R   0.534620 0.332000 0.215360 -0.601997
O14   O     O_R   0.534620 0.332000 0.784640 -0.600687
O15   O     O_R   0.534620 0.668000 0.784640 -0.619910
O16   O     O_R   0.534620 0.668000 0.215360 -0.619116
O17   O     O_R   0.034620 0.832000 0.215360 -0.602535
O18   O     O_R   0.034620 0.832000 0.784640 -0.607541
O19   O     O_R   0.034620 0.168000 0.784640 -0.621840
O20   O     O_R   0.034620 0.168000 0.215360 -0.619465
O21   O     O_R   0.034620 0.332000 0.715360 -0.620631
O22   O     O_R   0.034620 0.332000 0.284640 -0.602026
O23   O     O_R   0.034620 0.668000 0.284640 -0.618078
O24   O     O_R   0.034620 0.668000 0.715360 -0.600726
O25   O     O_R   0.465390 0.771500 0.882020 -0.633429
O26   O     O_R   0.465390 0.771500 0.117980 -0.631317
O27   O     O_R   0.465390 0.228500 0.117980 -0.626684
O28   O     O_R   0.465390 0.228500 0.882020 -0.627116
O29   O     O_R   0.465390 0.271500 0.382020 -0.633089
O30   O     O_R   0.465390 0.271500 0.617980 -0.633087
O31   O     O_R   0.465390 0.728500 0.617980 -0.626320
O32   O     O_R   0.465390 0.728500 0.382020 -0.626339
O33   O     O_R   0.965390 0.771500 0.382020 -0.633811
O34   O     O_R   0.965390 0.771500 0.617980 -0.632382
O35   O     O_R   0.965390 0.228500 0.617980 -0.625949
O36   O     O_R   0.965390 0.228500 0.382020 -0.626714
O37   O     O_R   0.965390 0.271500 0.882020 -0.627809
O38   O     O_R   0.965390 0.271500 0.117980 -0.631109
O39   O     O_R   0.965390 0.728500 0.117980 -0.627940
O40   O     O_R   0.965390 0.728500 0.882020 -0.631293
O41   O     O_R   0.367970 0.771500 0.784600 -0.629862
O42   O     O_R   0.367970 0.771500 0.215400 -0.630450
O43   O     O_R   0.367970 0.228500 0.215400 -0.622870
O44   O     O_R   0.367970 0.228500 0.784600 -0.622897
O45   O     O_R   0.367970 0.271500 0.284600 -0.628921
O46   O     O_R   0.367970 0.271500 0.715400 -0.629540
O47   O     O_R   0.367970 0.728500 0.715400 -0.621482
O48   O     O_R   0.367970 0.728500 0.284600 -0.622374
O49   O     O_R   0.867970 0.771500 0.284600 -0.628958
O50   O     O_R   0.867970 0.771500 0.715400 -0.626791
O51   O     O_R   0.867970 0.228500 0.715400 -0.624802
O52   O     O_R   0.867970 0.228500 0.284600 -0.622732
O53   O     O_R   0.867970 0.271500 0.784600 -0.623538
O54   O     O_R   0.867970 0.271500 0.215400 -0.628988
O55   O     O_R   0.867970 0.728500 0.215400 -0.622409
O56   O     O_R   0.867970 0.728500 0.784600 -0.628243
O57   O     O_R   0.632030 0.771500 0.715390 -0.626366
O58   O     O_R   0.632030 0.771500 0.284610 -0.626714
O59   O     O_R   0.632030 0.228500 0.284610 -0.626522
O60   O     O_R   0.632030 0.228500 0.715390 -0.626837
O61   O     O_R   0.632030 0.271500 0.215390 -0.627072
O62   O     O_R   0.632030 0.271500 0.784610 -0.625214
O63   O     O_R   0.632030 0.728500 0.784610 -0.628387
O64   O     O_R   0.632030 0.728500 0.215390 -0.626291
O65   O     O_R   0.132030 0.771500 0.215390 -0.628054
O66   O     O_R   0.132030 0.771500 0.784610 -0.627956
O67   O     O_R   0.132030 0.228500 0.784610 -0.626526
O68   O     O_R   0.132030 0.228500 0.215390 -0.626453
O69   O     O_R   0.132030 0.271500 0.715390 -0.628204
O70   O     O_R   0.132030 0.271500 0.284610 -0.627077
O71   O     O_R   0.132030 0.728500 0.284610 -0.625971
O72   O     O_R   0.132030 0.728500 0.715390 -0.624806
O73   O     O_R   0.534610 0.728510 0.882040 -0.621028
O74   O     O_R   0.534610 0.728510 0.117960 -0.621494
O75   O     O_R   0.534610 0.271490 0.117960 -0.623475
O76   O     O_R   0.534610 0.271490 0.882040 -0.623372
O77   O     O_R   0.534610 0.228510 0.382040 -0.621090
O78   O     O_R   0.534610 0.228510 0.617960 -0.620742
O79   O     O_R   0.534610 0.771490 0.617960 -0.624080
O80   O     O_R   0.534610 0.771490 0.382040 -0.624708
O81   O     O_R   0.034610 0.728510 0.382040 -0.620587
O82   O     O_R   0.034610 0.728510 0.617960 -0.621294
O83   O     O_R   0.034610 0.271490 0.617960 -0.623559
O84   O     O_R   0.034610 0.271490 0.382040 -0.623894
O85   O     O_R   0.034610 0.228510 0.882040 -0.623751
O86   O     O_R   0.034610 0.228510 0.117960 -0.621863
O87   O     O_R   0.034610 0.771490 0.117960 -0.623546
O88   O     O_R   0.034610 0.771490 0.882040 -0.622766
O89   O     O_R   0.465400 0.832000 0.784590 -0.644019
O90   O     O_R   0.465400 0.832000 0.215410 -0.635470
O91   O     O_R   0.465400 0.168000 0.215410 -0.607305
O92   O     O_R   0.465400 0.168000 0.784590 -0.608088
O93   O     O_R   0.465400 0.332000 0.284590 -0.644169
O94   O     O_R   0.465400 0.332000 0.715410 -0.644957
O95   O     O_R   0.465400 0.668000 0.715410 -0.607414
O96   O     O_R   0.465400 0.668000 0.284590 -0.608047
O97   O     O_R   0.965400 0.832000 0.284590 -0.643546
O98   O     O_R   0.965400 0.832000 0.715410 -0.635601
O99   O     O_R   0.965400 0.168000 0.715410 -0.606865
O100  O     O_R   0.965400 0.168000 0.284590 -0.607640
O101  O     O_R   0.965400 0.332000 0.784590 -0.608286
O102  O     O_R   0.965400 0.332000 0.215410 -0.643554
O103  O     O_R   0.965400 0.668000 0.215410 -0.609100
O104  O     O_R   0.965400 0.668000 0.784590 -0.643769
Zn1   Zn    Zn3+2 0.549450 0.719300 0.799470 1.031084
Zn2   Zn    Zn3+2 0.549450 0.719300 0.200530 1.034876
Zn3   Zn    Zn3+2 0.549450 0.280700 0.200530 1.035124
Zn4   Zn    Zn3+2 0.549450 0.280700 0.799470 1.037364
Zn5   Zn    Zn3+2 0.549450 0.219300 0.299470 1.033064
Zn6   Zn    Zn3+2 0.549450 0.219300 0.700530 1.034140
Zn7   Zn    Zn3+2 0.549450 0.780700 0.700530 1.034894
Zn8   Zn    Zn3+2 0.549450 0.780700 0.299470 1.035513
Zn9   Zn    Zn3+2 0.049450 0.719300 0.299470 1.033639
Zn10  Zn    Zn3+2 0.049450 0.719300 0.700530 1.039239
Zn11  Zn    Zn3+2 0.049450 0.280700 0.700530 1.030822
Zn12  Zn    Zn3+2 0.049450 0.280700 0.299470 1.035048
Zn13  Zn    Zn3+2 0.049450 0.219300 0.799470 1.031018
Zn14  Zn    Zn3+2 0.049450 0.219300 0.200530 1.033338
Zn15  Zn    Zn3+2 0.049450 0.780700 0.200530 1.033448
Zn16  Zn    Zn3+2 0.049450 0.780700 0.799470 1.035474
Zn17  Zn    Zn3+2 0.450550 0.780720 0.799450 1.009247
Zn18  Zn    Zn3+2 0.450550 0.780720 0.200550 1.016754
Zn19  Zn    Zn3+2 0.450550 0.219280 0.200550 1.040461
Zn20  Zn    Zn3+2 0.450550 0.219280 0.799450 1.039094
Zn21  Zn    Zn3+2 0.450550 0.280720 0.299450 1.009198
Zn22  Zn    Zn3+2 0.450550 0.280720 0.700550 1.008562
Zn23  Zn    Zn3+2 0.450550 0.719280 0.700550 1.040984
Zn24  Zn    Zn3+2 0.450550 0.719280 0.299450 1.039463
Zn25  Zn    Zn3+2 0.950550 0.780720 0.299450 1.009620
Zn26  Zn    Zn3+2 0.950550 0.780720 0.700550 1.018178
Zn27  Zn    Zn3+2 0.950550 0.219280 0.700550 1.041050
Zn28  Zn    Zn3+2 0.950550 0.219280 0.299450 1.039875
Zn29  Zn    Zn3+2 0.950550 0.280720 0.799450 1.037482
Zn30  Zn    Zn3+2 0.950550 0.280720 0.200550 1.011458
Zn31  Zn    Zn3+2 0.950550 0.719280 0.200550 1.038233
Zn32  Zn    Zn3+2 0.950550 0.719280 0.799450 1.011533
C177  C     C_2   0.399631 0.541160 0.678630 0.756989
H17   H     H_    0.370462 0.529346 0.645257 0.114318
O105  O     O_2   0.385550 0.570632 0.700826 -0.508318
C178  C     C_2   0.399719 0.541166 0.321487 0.754732
H18   H     H_    0.370584 0.529352 0.354889 0.114276
O106  O     O_2   0.385618 0.570640 0.299313 -0.510552
C179  C     C_2   0.388602 0.463047 0.286879 0.612084
H19   H     H_    0.381637 0.433369 0.285402 0.087941
O107  O     O_2   0.345985 0.482730 0.276362 -0.474147
C180  C     C_2   0.388562 0.463043 0.713265 0.608668
H20   H     H_    0.381602 0.433366 0.714768 0.086343
O108  O     O_2   0.345952 0.482727 0.723814 -0.477704
C181  C     C_2   0.417762 0.041340 0.158202 0.746438
H21   H     H_    0.396496 0.029604 0.119246 0.064472
O109  O     O_2   0.399165 0.070740 0.177065 -0.499754
C182  C     C_2   0.407875 0.041172 0.831637 0.746738
H22   H     H_    0.382357 0.029362 0.867880 0.105216
O110  O     O_2   0.391554 0.070643 0.811033 -0.513011
C183  C     C_2   0.393227 0.963055 0.798358 0.606220
H23   H     H_    0.386138 0.933378 0.797608 0.087943
O111  O     O_2   0.349757 0.982743 0.792303 -0.486812
C184  C     C_2   0.399710 0.963217 0.189346 0.479375
H24   H     H_    0.392572 0.933538 0.189201 0.110477
O112  O     O_2   0.355834 0.982896 0.190807 -0.466885
C185  C     C_2   0.897056 0.541155 0.182344 0.755701
H25   H     H_    0.866697 0.529337 0.150052 0.115621
O113  O     O_2   0.883790 0.570630 0.205026 -0.511896
C186  C     C_2   0.889161 0.536933 0.788481 0.608650
H26   H     H_    0.882175 0.566609 0.787089 0.086888
O114  O     O_2   0.846393 0.517240 0.778604 -0.476843
C187  C     C_2   0.900786 0.458818 0.822930 0.758235
H27   H     H_    0.872147 0.470625 0.856763 0.115139
O115  O     O_2   0.886358 0.429345 0.800954 -0.508464
C188  C     C_2   0.887249 0.463038 0.217360 0.611699
H28   H     H_    0.880351 0.433360 0.219120 0.087612
O116  O     O_2   0.845045 0.482721 0.229438 -0.476294
C189  C     C_2   0.937578 0.041358 0.643608 0.744831
H29   H     H_    0.924359 0.029631 0.601231 0.064017
O117  O     O_2   0.915655 0.070759 0.658470 -0.498514
C190  C     C_2   0.909766 0.041176 0.333734 0.748295
H30   H     H_    0.885064 0.029367 0.370540 0.107018
O118  O     O_2   0.892991 0.070648 0.313504 -0.510537
C191  C     C_2   0.894371 0.963057 0.300797 0.609241
H31   H     H_    0.887267 0.933380 0.300205 0.088509
O119  O     O_2   0.850775 0.982745 0.295717 -0.479473
C192  C     C_2   0.913712 0.963241 0.670634 0.481388
H32   H     H_    0.906714 0.933564 0.669128 0.111004
O120  O     O_2   0.870421 0.982933 0.663444 -0.466174
C193  C     C_2   0.495577 0.532746 0.635930 0.381905
H33   H     H_    0.525114 0.513277 0.614495 0.103822
O121  O     O_2   0.495747 0.564397 0.616971 -0.525542
C194  C     C_2   0.495717 0.532756 0.364073 0.382727
H34   H     H_    0.525283 0.513288 0.385471 0.103645
O122  O     O_2   0.495909 0.564408 0.383029 -0.525185
C195  C     C_2   0.463393 0.458038 0.361124 0.296755
H35   H     H_    0.499541 0.438460 0.365776 0.104173
O123  O     O_2   0.432293 0.464170 0.404510 -0.501223
C196  C     C_2   0.463263 0.458030 0.638926 0.296621
H36   H     H_    0.499456 0.438489 0.634209 0.104398
O124  O     O_2   0.432068 0.464126 0.595595 -0.501359
C197  C     C_2   0.520589 0.033033 0.137014 0.285977
H37   H     H_    0.553848 0.013556 0.122014 0.126635
O125  O     O_2   0.524957 0.064773 0.118963 -0.515847
C198  C     C_2   0.507757 0.032756 0.864065 0.370203
H38   H     H_    0.539365 0.013285 0.882302 0.106710
O126  O     O_2   0.509918 0.064410 0.882893 -0.529177
C199  C     C_2   0.475292 0.958041 0.864475 0.287833
H39   H     H_    0.511763 0.938487 0.865377 0.109467
O127  O     O_2   0.448814 0.964152 0.910836 -0.538116
C200  C     C_2   0.486248 0.959190 0.130549 0.302048
H40   H     H_    0.466245 0.967158 0.088554 0.119537
O128  O     O_2   0.525449 0.935904 0.129984 -0.541482
C201  C     C_2   0.991396 0.532743 0.136204 0.383945
H41   H     H_    0.020132 0.513272 0.113709 0.103694
O129  O     O_2   0.990889 0.564395 0.117258 -0.529500
C202  C     C_2   0.965024 0.541959 0.861632 0.299507
H42   H     H_    0.001280 0.561510 0.865780 0.107432
O130  O     O_2   0.934521 0.535851 0.905450 -0.505365
C203  C     C_2   0.997392 0.467249 0.864112 0.380526
H43   H     H_    0.027266 0.486723 0.885075 0.103800
O131  O     O_2   0.997859 0.435599 0.883068 -0.532287
C204  C     C_2   0.959217 0.458024 0.140374 0.300928
H44   H     H_    0.995198 0.438470 0.134362 0.107445
O132  O     O_2   0.926493 0.464131 0.098190 -0.503964
C205  C     C_2   0.042551 0.033024 0.642981 0.286539
H45   H     H_    0.078070 0.013531 0.634745 0.129353
O133  O     O_2   0.050416 0.064771 0.626190 -0.516964
C206  C     C_2   0.010348 0.032759 0.363915 0.367787
H46   H     H_    0.042351 0.013287 0.381446 0.106207
O134  O     O_2   0.012941 0.064415 0.382677 -0.531118
C207  C     C_2   0.977898 0.958041 0.365055 0.285599
H47   H     H_    0.014361 0.938474 0.365131 0.108430
O135  O     O_2   0.952483 0.964163 0.412003 -0.540366
C208  C     C_2   0.010071 0.959186 0.629903 0.299076
H48   H     H_    0.998642 0.967138 0.584805 0.117271
O136  O     O_2   0.048635 0.935905 0.637022 -0.541912
Cl1   Cl    Cl    0.494618 0.545313 0.873753 -0.324801
Cl2   Cl    Cl    0.494475 0.545303 0.126252 -0.324789
Cl3   Cl    Cl    0.531825 0.465932 0.132946 -0.281365
Cl4   Cl    Cl    0.531974 0.465944 0.867020 -0.280590
Cl5   Cl    Cl    0.468889 0.045057 0.369185 -0.330231
Cl6   Cl    Cl    0.481945 0.045298 0.627643 -0.326212
Cl7   Cl    Cl    0.519774 0.965927 0.630446 -0.279565
Cl8   Cl    Cl    0.506986 0.965744 0.370120 -0.291695
Cl9   Cl    Cl    0.999033 0.545316 0.373904 -0.324703
Cl10  Cl    Cl    0.030131 0.534068 0.632484 -0.279712
Cl11  Cl    Cl    0.992686 0.454691 0.626334 -0.326634
Cl12  Cl    Cl    0.036125 0.465946 0.365831 -0.281376
Cl13  Cl    Cl    0.946389 0.045057 0.860528 -0.339018
Cl14  Cl    Cl    0.979240 0.045295 0.128131 -0.327911
Cl15  Cl    Cl    0.017119 0.965925 0.130088 -0.281072
Cl16  Cl    Cl    0.983551 0.965743 0.868897 -0.295388
Cl17  Cl    Cl    0.389301 0.534007 0.814581 -0.363778
Cl18  Cl    Cl    0.389227 0.534007 0.185551 -0.365749
Cl19  Cl    Cl    0.412882 0.453947 0.157978 -0.429127
Cl20  Cl    Cl    0.413003 0.453951 0.842136 -0.432470
Cl21  Cl    Cl    0.378660 0.033901 0.288847 -0.360251
Cl22  Cl    Cl    0.383388 0.034014 0.697504 -0.373321
Cl23  Cl    Cl    0.404049 0.953954 0.667635 -0.434749
Cl24  Cl    Cl    0.396056 0.953807 0.320404 -0.434459
Cl25  Cl    Cl    0.891647 0.534006 0.318578 -0.366593
Cl26  Cl    Cl    0.911567 0.546036 0.659242 -0.431737
Cl27  Cl    Cl    0.888313 0.465973 0.687159 -0.363880
Cl28  Cl    Cl    0.916333 0.453950 0.345265 -0.429192
Cl29  Cl    Cl    0.873636 0.033919 0.764072 -0.353961
Cl30  Cl    Cl    0.882272 0.034015 0.200189 -0.369378
Cl31  Cl    Cl    0.902254 0.953956 0.169865 -0.432571
Cl32  Cl    Cl    0.884480 0.953825 0.798437 -0.431849
Cl33  Cl    Cl    0.609990 0.536074 0.802031 -0.344969
Cl34  Cl    Cl    0.609931 0.536065 0.197838 -0.341328
Cl35  Cl    Cl    0.621774 0.454564 0.236018 -0.380195
Cl36  Cl    Cl    0.621794 0.454570 0.763841 -0.369364
Cl37  Cl    Cl    0.596899 0.035986 0.323755 -0.331851
Cl38  Cl    Cl    0.604173 0.036055 0.686913 -0.326885
Cl39  Cl    Cl    0.619883 0.954550 0.723674 -0.362830
Cl40  Cl    Cl    0.616806 0.954574 0.288384 -0.364506
Cl41  Cl    Cl    0.111738 0.536076 0.298059 -0.340318
Cl42  Cl    Cl    0.121566 0.545456 0.734234 -0.369060
Cl43  Cl    Cl    0.109172 0.463951 0.696229 -0.345762
Cl44  Cl    Cl    0.122160 0.454573 0.259475 -0.378417
Cl45  Cl    Cl    0.080808 0.035958 0.841052 -0.331590
Cl46  Cl    Cl    0.102769 0.036051 0.184646 -0.333705
Cl47  Cl    Cl    0.119296 0.954547 0.221052 -0.370909
Cl48  Cl    Cl    0.107232 0.954546 0.810228 -0.364713

loop_
_geom_bond_atom_site_label_1
_geom_bond_atom_site_label_2
_ccdc_geom_bond_type
O9    Zn7   S    
C23   C58   S    
C30   C51   S    
C22   C150  S    
O10   Zn8   S    
C4    C171  S    
O72   Zn10  S    
C44   Cl21  S    
O11   Zn5   S    
C100  C127  S    
O40   Zn32  S    
C5    C174  S    
C2    O10   A    
C17   C48   S    
O79   Zn7   S    
C18   C47   S    
C110  C118  S    
C19   C46   S    
C104  C123  S    
C130  H15   S    
O19   Zn13  S    
O5    Zn15  S    
O6    Zn16  S    
O2    Zn18  S    
C131  H14   S    
O74   Zn2   S    
C129  H16   S    
C33   C36   S    
C140  Cl44  S    
C135  Cl39  S    
C34   C35   S    
C143  H2    S    
C13   O21   A    
C111  O69   A    
C133  H12   S    
C76   C94   S    
O44   Zn20  S    
O45   Zn21  S    
C148  C180  S    
O63   Zn1   S    
C70   C84   S    
C135  H10   S    
C93   O85   A    
C20   C45   S    
O5    Zn9   S    
C181  O109  D    
C48   Cl17  S    
C205  O133  D    
C89   O81   A    
C24   C41   S    
C20   C132  S    
C59   C171  T    
C21   C133  S    
C190  H30   S    
C185  O113  D    
C65   C87   S    
C137  C140  S    
C67   C85   S    
C115  C123  T    
C40   Cl9   S    
C96   O88   A    
C95   O87   A    
O42   Zn18  S    
O86   Zn14  S    
C141  C144  S    
C112  C120  S    
O4    Zn6   S    
C155  C203  S    
O3    Zn3   S    
C148  C196  S    
C87   O31   A    
C196  O124  D    
C75   C76   T    
C74   C96   S    
O23   Zn9   S    
C28   C53   S    
O28   Zn20  S    
C102  O56   A    
C178  H18   S    
C35   Cl14  S    
O90   Zn18  S    
C86   O78   A    
C154  C155  S    
O55   Zn31  S    
C157  C160  S    
O29   Zn21  S    
C42   Cl7   S    
C158  C159  S    
C43   Cl6   S    
C18   C130  S    
O60   Zn6   S    
C73   C95   S    
C31   C50   S    
C133  Cl37  S    
C195  H35   S    
O18   Zn16  S    
C145  C148  S    
O53   Zn29  S    
O82   Zn10  S    
C146  C147  S    
C77   C91   S    
C154  C186  S    
O50   Zn26  S    
O68   Zn14  S    
C34   Cl31  S    
C90   O34   A    
O1    Zn23  S    
C158  C190  S    
C97   C126  S    
O2    Zn24  S    
O8    Zn28  S    
O3    Zn21  S    
C99   C128  S    
C107  O59   A    
C46   Cl19  S    
C101  C122  S    
C206  H46   S    
C106  O58   A    
C130  C131  S    
O84   Zn12  S    
C189  H29   S    
C12   C163  S    
O85   Zn13  S    
C108  C116  S    
C13   C166  S    
O57   Zn7   S    
O58   Zn8   S    
O12   Zn6   S    
O37   Zn29  S    
C31   C143  S    
C69   C70   T    
C3    C172  S    
C32   C144  S    
C2    C169  S    
C179  H19   S    
C8    O96   A    
C15   O23   A    
C44   Cl5   S    
C142  Cl46  S    
C141  Cl45  S    
C187  H27   S    
C136  Cl40  S    
C16   C167  S    
C139  Cl43  S    
C137  Cl41  S    
C194  H34   S    
C1    O89   A    
O101  Zn29  S    
C50   C162  T    
C141  H4    S    
O7    Zn13  S    
C207  H47   S    
C80   C90   S    
O6    Zn26  S    
O80   Zn8   S    
C201  H41   S    
O97   Zn25  S    
C10   O98   A    
C156  C204  S    
C14   O22   A    
C103  O53   A    
C108  O60   A    
C149  C197  S    
C110  O66   A    
C37   C40   S    
C66   C88   S    
C38   C39   S    
C188  H28   S    
O33   Zn25  S    
O5    Zn25  S    
C111  C119  S    
C20   C61   S    
O27   Zn19  S    
C192  H32   S    
C84   O28   A    
C10   O18   A    
C98   C125  S    
C150  C198  S    
C24   C57   S    
C20   C148  S    
C45   Cl20  S    
C100  O46   A    
C102  O50   A    
O99   Zn27  S    
C64   C176  T    
C102  C121  S    
C49   C161  T    
C24   C136  S    
C81   O25   A    
C81   O73   A    
C177  O105  D    
C184  H24   S    
O56   Zn32  S    
O3    Zn19  S    
O1    Zn17  S    
O36   Zn28  S    
C97   O47   A    
O52   Zn28  S    
C106  O64   A    
C202  H42   S    
C7    O15   A    
C146  C194  S    
C78   C92   S    
O24   Zn10  S    
O46   Zn22  S    
C27   C139  S    
C35   Cl30  S    
C25   C137  S    
O64   Zn2   S    
C94   O86   A    
C21   C44   S    
C83   O27   A    
O7    Zn27  S    
C22   C43   S    
C98   O42   A    
C29   C141  S    
C7    C176  S    
C186  O114  D    
C31   C34   S    
C90   O82   A    
C145  C177  S    
O4    Zn20  S    
C204  H44   S    
C159  C191  S    
C104  O54   A    
O38   Zn30  S    
C208  H48   S    
C200  O128  D    
C92   O84   A    
O8    Zn12  S    
C46   Cl3   S    
C94   O38   A    
C149  C181  S    
C153  C201  S    
C108  O62   A    
O25   Zn17  S    
O87   Zn15  S    
C134  C135  S    
C118  C126  T    
C12   O100  A    
C13   O101  A    
C130  Cl34  S    
O31   Zn23  S    
O32   Zn24  S    
O20   Zn14  S    
C71   C72   T    
O76   Zn4   S    
O91   Zn19  S    
C112  O68   A    
C147  C179  S    
C28   C37   S    
C75   C93   S    
C153  C185  S    
O59   Zn5   S    
C5    O93   A    
C203  O131  D    
C134  Cl38  S    
O61   Zn3   S    
C39   Cl26  S    
C32   C49   S    
C193  O121  D    
O62   Zn4   S    
C37   Cl28  S    
O83   Zn11  S    
C113  C121  T    
C182  H22   S    
C6    O94   A    
O103  Zn31  S    
C150  C151  S    
O6    Zn10  S    
O70   Zn12  S    
C117  C125  T    
O1    Zn1   S    
C71   C81   S    
C119  C127  T    
C205  H45   S    
C3    O11   A    
C73   C74   T    
C194  O122  D    
C55   C167  T    
O21   Zn11  S    
C1    O9    A    
O22   Zn12  S    
C185  H25   S    
C109  C117  S    
C2    O90   A    
O39   Zn31  S    
C77   C78   T    
O34   Zn26  S    
C16   O104  A    
C155  C187  S    
C207  O135  D    
C95   O39   A    
C25   C40   S    
C120  C128  T    
C159  C207  S    
C26   C39   S    
C9    O97   A    
C98   O48   A    
C27   C38   S    
C93   O37   A    
C191  H31   S    
C45   Cl4   S    
C1    C170  S    
C47   Cl2   S    
C68   C86   S    
C84   O76   A    
C85   O77   A    
C16   O24   A    
O51   Zn27  S    
C24   C152  S    
C41   Cl24  S    
C51   C163  T    
C129  C132  S    
C11   O99   A    
C154  C202  S    
C54   C166  T    
C103  C124  S    
C111  O67   A    
C27   C155  S    
O93   Zn21  S    
C25   C153  S    
C67   C68   T    
O95   Zn23  S    
O96   Zn24  S    
C21   C60   S    
C22   C59   S    
O5    Zn31  S    
C29   C157  S    
C36   Cl13  S    
C19   C147  S    
C206  O134  D    
C8    C175  S    
O47   Zn23  S    
C150  C182  S    
O102  Zn30  S    
O48   Zn24  S    
C82   O74   A    
C184  O112  D    
C138  H7    S    
O71   Zn9   S    
C139  H6    S    
C52   C164  T    
O16   Zn2   S    
C198  O126  D    
C106  C114  S    
C10   C161  S    
C41   C44   S    
C42   C43   S    
C101  O55   A    
O43   Zn19  S    
C183  H23   S    
C131  Cl35  S    
C38   Cl27  S    
C179  O107  D    
C45   C48   S    
C105  C113  S    
C46   C47   S    
C116  C124  T    
C91   O35   A    
O49   Zn25  S    
C134  H11   S    
C89   O33   A    
C198  H38   S    
C26   C138  S    
C199  H39   S    
O100  Zn28  S    
C6    C173  S    
C160  C208  S    
O88   Zn16  S    
O73   Zn1   S    
C30   C142  S    
C23   C135  S    
C32   C33   S    
O15   Zn1   S    
C91   O83   A    
C196  H36   S    
C105  O57   A    
C188  O116  D    
C72   C82   S    
C145  C193  S    
O41   Zn17  S    
C192  O120  D    
C138  C139  S    
O8    Zn30  S    
C99   O45   A    
C144  H1    S    
C92   O36   A    
C197  O125  D    
C142  C143  S    
C146  C178  S    
C132  H13   S    
C138  Cl42  S    
C160  C192  S    
O77   Zn5   S    
O30   Zn22  S    
C136  H9    S    
C14   O102  A    
C199  O127  D    
C177  H17   S    
C17   C145  S    
C28   C140  S    
C25   C56   S    
O13   Zn3   S    
C26   C55   S    
O98   Zn26  S    
C33   Cl16  S    
O14   Zn4   S    
C27   C54   S    
C34   Cl15  S    
O78   Zn6   S    
C181  H21   S    
C47   Cl18  S    
C29   C36   S    
C15   O103  A    
C23   C42   S    
C30   C35   S    
C22   C134  S    
C180  O108  D    
C147  C195  S    
C58   C170  T    
C41   Cl8   S    
C202  O130  D    
C189  O117  D    
C17   C64   S    
O67   Zn13  S    
C18   C63   S    
C4    O12   A    
C19   C62   S    
O7    Zn11  S    
C62   C174  T    
C39   Cl10  S    
C143  Cl47  S    
C151  C199  S    
C8    O16   A    
C137  H8    S    
C186  H26   S    
O6    Zn32  S    
C38   Cl11  S    
C87   O79   A    
C88   O80   A    
O104  Zn32  S    
C9    O17   A    
C191  O119  D    
C133  C136  S    
C157  C205  S    
C203  H43   S    
C109  O71   A    
C101  O49   A    
C204  O132  D    
C11   O19   A    
C3    O91   A    
C208  O136  D    
O89   Zn17  S    
C157  C189  S    
C201  O129  D    
O2    Zn2   S    
O7    Zn29  S    
C57   C169  T    
O92   Zn20  S    
C19   C131  S    
C4    O92   A    
C6    O14   A    
C17   C129  S    
C48   Cl1   S    
C60   C172  T    
C61   C173  T    
C12   O20   A    
C149  C152  S    
O81   Zn9   S    
C104  O52   A    
C156  C188  S    
C153  C156  S    
C195  O123  D    
C190  O118  D    
C69   C83   S    
C183  O111  D    
C99   O43   A    
C103  O51   A    
C142  H3    S    
C82   O26   A    
O4    Zn22  S    
C97   O41   A    
C56   C168  T    
C88   O32   A    
C187  O115  D    
C7    O95   A    
C36   Cl29  S    
C14   C165  S    
O75   Zn3   S    
C37   Cl12  S    
C107  C115  S    
C193  H33   S    
C182  O110  D    
C65   C66   T    
C21   C149  S    
O94   Zn22  S    
C15   C168  S    
C26   C154  S    
O17   Zn15  S    
O35   Zn27  S    
C144  Cl48  S    
C53   C165  T    
C30   C158  S    
C23   C151  S    
C110  O72   A    
C42   Cl23  S    
O69   Zn11  S    
C43   Cl22  S    
C18   C146  S    
C63   C175  T    
C152  C184  S    
C107  O61   A    
C86   O30   A    
C140  H5    S    
C129  Cl33  S    
C83   O75   A    
O65   Zn15  S    
O8    Zn14  S    
O66   Zn16  S    
O1    Zn7   S    
C158  C206  S    
O4    Zn4   S    
O2    Zn8   S    
C197  H37   S    
C85   O29   A    
O3    Zn5   S    
C11   C164  S    
C40   Cl25  S    
C96   O40   A    
C109  O65   A    
C9    C162  S    
C151  C183  S    
C132  Cl36  S    
C100  O44   A    
C5    O13   A    
C79   C80   T    
C114  C122  T    
C178  O106  D    
C180  H20   S    
C152  C200  S    
C28   C156  S    
C105  O63   A    
C200  H40   S    
C79   C89   S    
O26   Zn18  S    
C33   Cl32  S    
C31   C159  S    
C112  O70   A    
C32   C160  S    
C29   C52   S    
O54   Zn30  S    
