data_mof_unit_12103.cif
_audit_creation_date              2012-12-11T14:40:08-0500
_audit_creation_method            fapswitch 2.2
_symmetry_space_group_name_H-M    P1
_symmetry_Int_Tables_number       1
_space_group_crystal_system       triclinic
_cell_length_a                    19.553782
_cell_length_b                    10.977072
_cell_length_c                    19.475281
_cell_angle_alpha                 89.737566
_cell_angle_beta                  97.535211
_cell_angle_gamma                 90.128608
_cell_volume                      4144.09027035

loop_
_atom_site_label
_atom_site_type_symbol
_atom_type_description
_atom_site_fract_x
_atom_site_fract_y
_atom_site_fract_z
_atom_type_partial_charge
C1    C     C_R   0.726189 0.949573 0.359931 0.549392
C2    C     C_R   0.275051 0.953970 0.638123 0.548028
C3    C     C_R   0.227147 0.447892 0.359173 0.556585
C4    C     C_R   0.772750 0.448225 0.640822 0.543080
C5    C     C_3   0.701640 0.270952 0.499464 -0.164097
C6    C     C_3   0.288718 0.269435 0.503473 -0.142172
C7    C     C_3   0.175996 0.856513 0.486919 -0.142888
C8    C     C_3   0.733843 0.771808 0.506239 -0.130265
C9    C     C_3   0.730339 0.340667 0.440891 0.035927
C10   C     C_3   0.267655 0.350164 0.560597 0.034202
C11   C     C_3   0.231645 0.845197 0.438775 0.029369
C12   C     C_3   0.768588 0.857134 0.561821 0.036295
C13   C     C_3   0.707341 0.461038 0.468776 -0.005711
C14   C     C_3   0.298586 0.461366 0.529253 -0.013403
C15   C     C_3   0.262194 0.967949 0.461486 -0.012186
C16   C     C_3   0.824024 0.889761 0.516375 -0.018821
C17   C     C_3   0.778830 0.474490 0.511734 -0.128383
C18   C     C_3   0.227564 0.487906 0.487700 -0.137924
C19   C     C_3   0.311595 0.904597 0.517814 -0.107261
C20   C     C_3   0.779162 0.996852 0.486324 -0.136765
C21   C     C_3   0.801632 0.352015 0.484403 -0.108704
C22   C     C_3   0.196665 0.374883 0.519200 -0.116394
C23   C     C_3   0.280865 0.780336 0.494305 -0.117468
C24   C     C_3   0.723510 0.963682 0.532926 -0.133248
C25   C     C_3   0.773433 0.282733 0.543807 -0.129223
C26   C     C_3   0.217044 0.293748 0.461085 -0.108429
C27   C     C_3   0.225535 0.790972 0.544155 -0.131793
C28   C     C_3   0.688443 0.878525 0.476470 -0.087355
C29   C     C_3   0.750961 0.404630 0.570925 0.044755
C30   C     C_3   0.247750 0.406088 0.429640 0.055088
C31   C     C_3   0.255879 0.915107 0.566824 0.044052
C32   C     C_3   0.744636 0.910214 0.430805 0.051077
C33   C     C_3   0.527823 0.271827 0.967181 -0.122760
C34   C     C_3   0.487227 0.271676 0.030177 -0.117817
C35   C     C_3   0.027852 0.771827 0.967178 -0.122703
C36   C     C_3   0.987249 0.771676 0.030169 -0.118521
C37   C     C_3   0.575983 0.172094 0.001396 -0.031518
C38   C     C_3   0.440321 0.169760 0.997924 -0.029611
C39   C     C_3   0.076010 0.672095 0.001399 -0.031263
C40   C     C_3   0.940347 0.669757 0.997913 -0.029411
C41   C     C_3   0.536487 0.172933 0.063937 0.029950
C42   C     C_3   0.479028 0.170843 0.935026 0.034384
C43   C     C_3   0.036507 0.672935 0.063936 0.030216
C44   C     C_3   0.979061 0.670840 0.935021 0.035220
C45   C     C_R   0.535284 0.179885 0.337948 0.549280
C46   C     C_R   0.464418 0.180361 0.661859 0.541686
C47   C     C_R   0.035480 0.679734 0.338145 0.541853
C48   C     C_R   0.965097 0.679899 0.662312 0.547032
C49   C     C_3   0.488931 0.070917 0.031879 -0.114788
C50   C     C_3   0.528119 0.071032 0.967690 -0.121693
C51   C     C_3   0.988955 0.570917 0.031873 -0.115442
C52   C     C_3   0.028150 0.571031 0.967689 -0.121572
C53   C     C_1   0.761945 0.423506 0.903680 0.019663
C54   C     C_1   0.239892 0.418131 0.098449 0.025571
C55   C     C_1   0.261948 0.923512 0.903684 0.019289
C56   C     C_1   0.739888 0.918140 0.098445 0.023431
C57   C     C_1   0.747213 0.408295 0.034553 0.019673
C58   C     C_1   0.259224 0.383572 0.970351 0.013494
C59   C     C_1   0.247222 0.908314 0.034562 0.019655
C60   C     C_1   0.759220 0.883576 0.970347 0.013489
C61   C     C_1   0.753278 0.413557 0.963374 0.016432
C62   C     C_1   0.250237 0.400697 0.039955 0.015940
C63   C     C_1   0.253285 0.913569 0.963380 0.016278
C64   C     C_1   0.750233 0.900703 0.039951 0.015678
C65   C     C_1   0.742832 0.395737 0.095123 0.020962
C66   C     C_1   0.266751 0.359837 0.911751 0.022301
C67   C     C_1   0.242841 0.895761 0.095133 0.022334
C68   C     C_1   0.766747 0.859845 0.911747 0.022282
C69   C     C_R   0.724128 0.308645 0.367504 0.554914
C70   C     C_R   0.275118 0.311994 0.632376 0.554957
C71   C     C_R   0.223970 0.808315 0.367063 0.554670
C72   C     C_R   0.775129 0.814022 0.632336 0.553738
C73   C     C_R   0.722433 0.951757 0.164424 0.543059
C74   C     C_R   0.277720 0.952042 0.836011 0.540721
C75   C     C_R   0.222436 0.451751 0.164428 0.547534
C76   C     C_R   0.777721 0.452044 0.836012 0.537681
C77   C     C_R   0.562529 0.182452 0.136742 0.560117
C78   C     C_R   0.444964 0.181015 0.864883 0.539227
C79   C     C_R   0.062536 0.682453 0.136744 0.561181
C80   C     C_R   0.944985 0.681013 0.864884 0.540739
C81   C     C_R   0.736097 0.360817 0.164502 0.551861
C82   C     C_R   0.275576 0.318939 0.844216 0.545891
C83   C     C_R   0.236103 0.860839 0.164511 0.559243
C84   C     C_R   0.775573 0.818950 0.844213 0.546685
C85   C     C_1   0.485359 0.172973 0.594560 -0.011090
C86   C     C_1   0.513781 0.171789 0.405020 0.003735
C87   C     C_1   0.987425 0.670340 0.595604 0.012371
C88   C     C_1   0.014782 0.670589 0.405622 -0.015704
C89   C     C_1   0.503566 0.168780 0.464481 -0.047840
C90   C     C_1   0.495234 0.169383 0.535024 -0.055961
C91   C     C_1   0.005390 0.665813 0.465351 -0.053364
C92   C     C_1   0.997682 0.665393 0.536141 -0.034560
C93   C     C_3   0.678989 0.393763 0.528582 -0.127728
C94   C     C_3   0.319435 0.382405 0.470394 -0.118932
C95   C     C_3   0.206856 0.982234 0.510575 -0.130163
C96   C     C_3   0.790153 0.803782 0.459540 -0.145636
Cr1   Cr    Cr6+3 0.765830 0.160660 0.268180 1.027431
Cr2   Cr    Cr6+3 0.234170 0.160660 0.731820 1.029831
Cr3   Cr    Cr6+3 0.265830 0.660660 0.268180 1.039004
Cr4   Cr    Cr6+3 0.734170 0.660660 0.731820 1.029870
Cr5   Cr    Cr6+3 0.612110 0.009150 0.248770 1.043409
Cr6   Cr    Cr6+3 0.387890 0.009150 0.751230 1.041622
Cr7   Cr    Cr6+3 0.112110 0.509150 0.248770 1.031100
Cr8   Cr    Cr6+3 0.887890 0.509150 0.751230 1.030543
Cr9   Cr    Cr6+3 0.615930 0.324050 0.248450 1.050091
Cr10  Cr    Cr6+3 0.384070 0.324050 0.751550 1.052207
Cr11  Cr    Cr6+3 0.115930 0.824050 0.248450 1.034555
Cr12  Cr    Cr6+3 0.884070 0.824050 0.751550 1.043449
H1    H     H_    0.668083 0.189570 0.490768 0.107936
H2    H     H_    0.316964 0.183621 0.517317 0.104546
H3    H     H_    0.120487 0.836345 0.472009 0.138451
H4    H     H_    0.713546 0.685039 0.523741 0.130094
H5    H     H_    0.367274 0.925659 0.531704 0.136446
H6    H     H_    0.799968 0.086873 0.473759 0.130059
H7    H     H_    0.812310 0.556488 0.518092 0.100573
H8    H     H_    0.199781 0.575335 0.478158 0.100961
H9    H     H_    0.852394 0.334802 0.466594 0.144011
H10   H     H_    0.146279 0.372567 0.539667 0.144892
H11   H     H_    0.311327 0.702649 0.479258 0.141161
H12   H     H_    0.697384 0.025979 0.565834 0.129091
H13   H     H_    0.544750 0.354344 0.940771 0.145739
H14   H     H_    0.469000 0.354732 0.054588 0.149886
H15   H     H_    0.044780 0.854341 0.940767 0.145357
H16   H     H_    0.969018 0.854733 0.054577 0.148846
H17   H     H_    0.473111 0.988458 0.059125 0.143761
H18   H     H_    0.544433 0.989157 0.940803 0.139587
H19   H     H_    0.973132 0.488458 0.059116 0.142414
H20   H     H_    0.044467 0.489158 0.940803 0.138951
O1    O     O_R   0.783230 0.287800 0.346510 -0.518690
O2    O     O_R   0.216770 0.287800 0.653490 -0.511620
O3    O     O_R   0.283230 0.787800 0.346510 -0.502594
O4    O     O_R   0.716770 0.787800 0.653490 -0.502334
O5    O     O_R   0.554500 0.081650 0.170370 -0.496284
O6    O     O_R   0.445500 0.081650 0.829630 -0.494671
O7    O     O_R   0.054500 0.581650 0.170370 -0.497767
O8    O     O_R   0.945500 0.581650 0.829630 -0.495024
O9    O     O_R   0.545430 0.285140 0.163100 -0.511807
O10   O     O_R   0.454570 0.285140 0.836900 -0.516913
O11   O     O_R   0.045430 0.785140 0.163100 -0.513443
O12   O     O_R   0.954570 0.785140 0.836900 -0.518104
O13   O     O_R   0.677850 0.374730 0.185500 -0.505028
O14   O     O_R   0.322150 0.374730 0.814500 -0.489959
O15   O     O_R   0.177850 0.874730 0.185500 -0.505542
O16   O     O_R   0.822150 0.874730 0.814500 -0.493601
O17   O     O_3   0.664630 0.164620 0.255130 -0.308159
O18   O     O_3   0.335370 0.164620 0.744870 -0.316967
O19   O     O_3   0.164630 0.664620 0.255130 -0.307228
O20   O     O_3   0.835370 0.664620 0.744870 -0.311396
O21   O     O_R   0.760130 0.037060 0.338610 -0.525028
O22   O     O_R   0.239870 0.037060 0.661390 -0.519076
O23   O     O_R   0.260130 0.537060 0.338610 -0.524895
O24   O     O_R   0.739870 0.537060 0.661390 -0.522122
O25   O     O_R   0.666620 0.921370 0.332440 -0.499265
O26   O     O_R   0.333380 0.921370 0.667560 -0.496149
O27   O     O_R   0.166620 0.421370 0.332440 -0.508854
O28   O     O_R   0.833380 0.421370 0.667560 -0.506627
O29   O     O_R   0.557170 0.082420 0.312350 -0.492260
O30   O     O_R   0.442830 0.082420 0.687650 -0.492606
O31   O     O_R   0.057170 0.582420 0.312350 -0.490515
O32   O     O_R   0.942830 0.582420 0.687650 -0.494835
O33   O     O_R   0.548310 0.285980 0.316250 -0.503903
O34   O     O_R   0.451690 0.285980 0.683750 -0.502284
O35   O     O_R   0.048310 0.785980 0.316250 -0.511190
O36   O     O_R   0.951690 0.785980 0.683750 -0.490337
O37   O     O_R   0.680520 0.375500 0.327470 -0.479760
O38   O     O_R   0.319480 0.375500 0.672530 -0.475719
O39   O     O_R   0.180520 0.875500 0.327470 -0.486519
O40   O     O_R   0.819480 0.875500 0.672530 -0.487213
O41   O     O_R   0.780350 0.286970 0.193350 -0.496881
O42   O     O_R   0.219650 0.286970 0.806650 -0.492590
O43   O     O_R   0.280350 0.786970 0.193350 -0.493355
O44   O     O_R   0.719650 0.786970 0.806650 -0.491533
O45   O     O_R   0.757460 0.036290 0.196640 -0.493864
O46   O     O_R   0.242540 0.036290 0.803360 -0.507679
O47   O     O_R   0.257460 0.536290 0.196640 -0.493069
O48   O     O_R   0.742540 0.536290 0.803360 -0.508425
O49   O     O_R   0.663740 0.920540 0.179290 -0.510554
O50   O     O_R   0.336260 0.920540 0.820710 -0.502550
O51   O     O_R   0.163740 0.420540 0.179290 -0.512602
O52   O     O_R   0.836260 0.420540 0.820710 -0.506587
H21   H     H_    0.629263 0.411657 0.548380 0.128669
H22   H     H_    0.369068 0.385537 0.448526 0.133050
H23   H     H_    0.176904 0.065044 0.519553 0.128232
H24   H     H_    0.816659 0.738732 0.428478 0.119851
C97   C     C_1   0.667081 0.551860 0.424837 0.215058
N1    N     N_1   0.635141 0.622550 0.389967 -0.279411
C98   C     C_1   0.346089 0.545059 0.570499 0.211047
N2    N     N_1   0.383644 0.610476 0.603196 -0.276552
C99   C     C_1   0.284206 0.051350 0.409129 0.216997
N3    N     N_1   0.301725 0.115618 0.367455 -0.289520
C100  C     C_1   0.897497 0.913273 0.537576 0.210107
N4    N     N_1   0.955212 0.935550 0.553706 -0.289108
H25   H     H_    0.800640 0.210877 0.577111 0.135610
H26   H     H_    0.182936 0.226371 0.431153 0.136845
H27   H     H_    0.211110 0.719337 0.580065 0.130264
H28   H     H_    0.632168 0.872847 0.458868 0.154107
C101  C     C_1   0.650519 0.164327 0.001459 0.172047
N5    N     N_1   0.709285 0.156010 0.000527 -0.316721
C102  C     C_1   0.367081 0.159094 0.003487 0.166037
N6    N     N_1   0.309624 0.148595 0.010217 -0.333456
C103  C     C_1   0.150548 0.664331 0.001472 0.171582
N7    N     N_1   0.209316 0.656017 0.000548 -0.316525
C104  C     C_1   0.867105 0.659088 0.003459 0.164886
N8    N     N_1   0.809645 0.648583 0.010174 -0.334696

loop_
_geom_bond_atom_site_label_1
_geom_bond_atom_site_label_2
_ccdc_geom_bond_type
C58   C62   S    
C79   O11   A    
C104  N8    T    
C82   O42   A    
C67   C83   S    
C14   C98   S    
Cr4   O44   S    
C17   C29   S    
C103  N7    T    
C14   C18   S    
C7    C27   S    
C19   C23   S    
C35   C36   S    
C8    C96   S    
C82   O14   A    
C44   C80   S    
C19   C31   S    
Cr6   O30   S    
C52   H20   S    
Cr7   O19   S    
C38   C49   S    
C47   O31   A    
C10   C22   S    
C15   C19   S    
Cr12  O36   S    
Cr5   O17   S    
C77   O5    A    
C2    O22   A    
C33   C42   S    
Cr10  O38   S    
C3    C30   S    
C36   H16   S    
C9    C69   S    
C74   O46   A    
C8    H4    S    
C15   C95   S    
Cr2   O46   S    
C9    C13   S    
C11   C71   S    
Cr10  O10   S    
Cr3   O43   S    
C19   H5    S    
C43   C79   S    
C46   O30   A    
C70   O2    A    
Cr1   O41   S    
C57   C61   S    
C45   O33   A    
C7    C11   S    
C21   H9    S    
C59   C67   T    
C43   C51   S    
C55   C74   S    
C53   C61   T    
C58   C66   T    
C20   C24   S    
Cr9   O37   S    
C6    C94   S    
C55   C63   T    
Cr4   O48   S    
C37   C101  S    
C56   C64   T    
Cr10  O14   S    
C50   H18   S    
C81   O41   A    
Cr1   O1    S    
C75   O51   A    
Cr6   O26   S    
C40   C44   S    
Cr7   O51   S    
C4    C29   S    
C16   C20   S    
C46   C85   S    
C47   O35   A    
C44   C52   S    
C81   O13   A    
C39   C52   S    
Cr12  O40   S    
Cr5   O29   S    
C102  N6    T    
C34   H14   S    
C71   O39   A    
C87   C92   T    
C37   C41   S    
C72   O40   A    
C99   N3    T    
C34   C41   S    
C11   C15   S    
C79   O7    A    
C96   H24   S    
C78   O10   A    
C41   C49   S    
C29   C93   S    
C72   O4    A    
C25   C29   S    
C4    O24   A    
Cr11  O39   S    
C16   C96   S    
C56   C73   S    
C24   H12   S    
C27   C31   S    
C100  N4    T    
C68   C84   S    
C12   C16   S    
C36   C40   S    
C76   O48   A    
C13   C97   S    
C10   C14   S    
C18   H8    S    
C91   C92   S    
Cr12  O12   S    
C39   C43   S    
Cr2   O18   S    
C76   O52   A    
Cr5   O25   S    
C80   O12   A    
C54   C62   T    
C49   H17   S    
C1    C32   S    
C33   C37   S    
C51   C52   S    
C13   C93   S    
C2    C31   S    
C34   C38   S    
C6    H2    S    
C33   H13   S    
C35   C39   S    
Cr6   O6    S    
C5    C9    S    
C16   C100  S    
C66   C82   S    
Cr11  O11   S    
Cr11  O19   S    
C65   C81   S    
C95   H23   S    
C40   C104  S    
C28   C32   S    
C8    C12   S    
Cr9   O17   S    
Cr2   O2    S    
C3    O27   A    
C33   C34   S    
Cr8   O32   S    
C48   C87   S    
C45   O29   A    
Cr4   O24   S    
Cr8   O28   S    
C1    O21   A    
C35   C44   S    
C78   O6    A    
C42   C50   S    
C18   C30   S    
C10   C70   S    
Cr7   O27   S    
C4    O28   A    
Cr11  O35   S    
C26   C30   S    
Cr2   O22   S    
C23   C27   S    
C39   C103  S    
C46   O34   A    
Cr6   O50   S    
C5    C25   S    
C59   C63   S    
C53   C76   S    
C27   H27   S    
C9    C21   S    
Cr11  O15   S    
C26   H26   S    
Cr12  O16   S    
C25   H25   S    
C17   H7    S    
C20   C32   S    
C22   H10   S    
C75   O47   A    
C21   C25   S    
Cr1   O21   S    
Cr3   O19   S    
Cr8   O8    S    
C32   C96   S    
C18   C22   S    
Cr1   O17   S    
Cr8   O52   S    
C24   C28   S    
C77   O9    A    
C84   O44   A    
C86   C89   T    
Cr10  O18   S    
C6    C10   S    
C5    C93   S    
C85   C90   T    
Cr4   O4    S    
C42   C78   S    
C48   O36   A    
Cr5   O5    S    
C74   O50   A    
C40   C51   S    
C7    C95   S    
C12   C24   S    
C3    O23   A    
C83   O15   A    
C80   O8    A    
C73   O45   A    
C13   C17   S    
Cr7   O7    S    
C60   C64   S    
C51   H19   S    
C47   C88   S    
C48   O32   A    
Cr9   O9    S    
C35   H15   S    
C45   C86   S    
C73   O49   A    
Cr8   O20   S    
C30   C94   S    
Cr6   O18   S    
C41   C77   S    
C37   C50   S    
Cr7   O31   S    
C97   N1    T    
C6    C26   S    
C88   C91   T    
Cr3   O23   S    
Cr4   O20   S    
C69   O1    A    
C31   C95   S    
C11   C23   S    
C28   H28   S    
C7    H3    S    
C93   H21   S    
Cr10  O34   S    
C15   C99   S    
C101  N5    T    
C12   C72   S    
Cr9   O13   S    
C69   O37   A    
C1    O25   A    
C70   O38   A    
C36   C43   S    
C71   O3    A    
C54   C75   S    
Cr2   O42   S    
C38   C42   S    
C98   N2    T    
Cr3   O47   S    
C23   H11   S    
C60   C68   T    
C8    C28   S    
C2    O26   A    
C49   C50   S    
C22   C26   S    
C84   O16   A    
C38   C102  S    
Cr9   O33   S    
C83   O43   A    
C5    H1    S    
Cr3   O3    S    
Cr12  O20   S    
C89   C90   S    
C20   H6    S    
C94   H22   S    
C14   C94   S    
Cr5   O49   S    
Cr1   O45   S    
C57   C65   T    
C17   C21   S    
