data_mof_unit_47623.cif
_audit_creation_date              2012-12-11T18:04:37-0500
_audit_creation_method            fapswitch 2.2
_symmetry_space_group_name_H-M    P1
_symmetry_Int_Tables_number       1
_space_group_crystal_system       triclinic
_cell_length_a                    8.197487
_cell_length_b                    12.672586
_cell_length_c                    23.010026
_cell_angle_alpha                 97.140339
_cell_angle_beta                  90.198699
_cell_angle_gamma                 98.406394
_cell_volume                      2345.76773751

loop_
_atom_site_label
_atom_site_type_symbol
_atom_type_description
_atom_site_fract_x
_atom_site_fract_y
_atom_site_fract_z
_atom_type_partial_charge
Ba1   Ba    Ba6+2 0.856210 0.551220 0.472190 1.649973
Ba2   Ba    Ba6+2 0.333620 0.448870 0.527810 1.645711
C1    C     C_3   0.609097 0.920206 0.298895 -0.397683
C2    C     C_3   0.654109 0.836742 0.335841 0.330684
C3    C     C_3   0.486772 0.295469 0.349532 0.360552
C4    C     C_3   0.497416 0.272799 0.283192 0.296757
C5    C     C_3   0.034520 0.223617 0.688207 0.298698
C6    C     C_3   0.055634 0.201553 0.751044 -0.350328
C7    C     C_3   0.547264 0.183791 0.663569 0.335586
C8    C     C_3   0.575599 0.082112 0.688464 -0.383309
C9    C     C_R   0.338047 0.531255 0.333690 -0.295835
C10   C     C_R   0.167050 0.570033 0.934550 -0.075534
C11   C     C_R   0.115903 0.573791 0.875481 0.602979
C12   C     C_3   0.145458 0.779641 0.310721 0.366262
C13   C     C_R   0.871774 0.449846 0.887583 0.560055
C14   C     C_R   0.904874 0.460206 0.948664 -0.011817
C15   C     C_R   0.057401 0.515099 0.971475 -0.102525
C16   C     C_R   0.322768 0.621969 0.958368 0.400804
C17   C     C_R   0.369907 0.612362 0.016595 -0.110322
C18   C     C_R   0.259884 0.554852 0.052819 -0.096391
C19   C     C_R   0.099651 0.514948 0.031603 -0.053435
C20   C     C_R   0.789198 0.415775 0.987518 -0.078285
C21   C     C_R   0.824494 0.426702 0.047817 -0.049010
C22   C     C_R   0.981541 0.474339 0.070494 -0.010640
C23   C     C_3   0.131878 0.810577 0.249285 -0.341131
C24   C     C_R   0.022246 0.485002 0.131296 0.592923
C25   C     C_R   0.305035 0.534652 0.109589 0.580291
C26   C     C_2   0.765887 0.495318 0.769615 -0.082139
C27   C     C_3   0.719137 0.492618 0.705383 -0.057984
C28   C     C_1   0.009457 0.524121 0.685510 0.036801
C29   C     C_2   0.055075 0.524025 0.741313 -0.121221
C30   C     C_2   0.926886 0.508991 0.788335 0.185261
C31   C     C_R   0.388115 0.580310 0.236603 -0.115244
C32   C     C_R   0.443302 0.577948 0.294082 -0.031158
C33   C     C_R   0.185470 0.474911 0.315225 0.036827
C34   C     C_3   0.227882 0.777399 0.596065 0.274801
C35   C     C_R   0.138167 0.463035 0.255381 -0.099132
C36   C     C_R   0.235633 0.519119 0.214296 0.169234
C37   C     C_2   0.863115 0.476130 0.666848 -0.275447
C38   C     C_R   0.765606 0.179048 0.520457 -0.279325
C39   C     C_R   0.429995 0.809429 0.474404 -0.288483
C40   C     C_R   0.406236 0.988232 0.453600 -0.104493
C41   C     C_R   0.341306 0.880390 0.450935 -0.005411
C42   C     C_R   0.577624 0.846719 0.505621 0.071554
C43   C     C_R   0.642610 0.958207 0.511416 -0.057100
C44   C     C_R   0.556418 0.028983 0.483788 -0.062715
C45   C     C_3   0.234360 0.898493 0.608436 -0.350866
C46   C     C_R   0.620242 0.139414 0.488667 0.039401
C47   C     C_R   0.854522 0.110659 0.545672 -0.004791
C48   C     C_R   0.790941 0.001524 0.543226 -0.082808
C49   C     C_3   0.968678 0.221147 0.402812 0.290390
C50   C     C_3   0.962946 0.100330 0.389089 -0.325786
C51   C     C_3   0.741122 0.714033 0.649510 0.311872
C52   C     C_3   0.834127 0.775298 0.703512 -0.377398
H1    H     H_    0.744898 0.876522 0.370577 0.078534
H2    H     H_    0.297073 0.928427 0.651277 0.127077
H3    H     H_    0.302348 0.938644 0.573777 0.081413
H4    H     H_    0.107382 0.919034 0.610150 0.127669
H5    H     H_    0.843775 0.239558 0.412561 -0.015145
H6    H     H_    0.052116 0.249537 0.441412 0.074255
H7    H     H_    0.883357 0.070128 0.349845 0.113415
H8    H     H_    0.912524 0.059498 0.426333 0.073888
H9    H     H_    0.089103 0.081100 0.380363 0.150071
H10   H     H_    0.826973 0.669651 0.622600 0.021803
H11   H     H_    0.637209 0.656744 0.663028 0.022267
H12   H     H_    0.560782 0.985632 0.327281 0.108300
H13   H     H_    0.935103 0.835595 0.690370 0.147219
H14   H     H_    0.887949 0.719159 0.728716 0.071519
H15   H     H_    0.748830 0.818930 0.731472 0.116510
H16   H     H_    0.540229 0.804129 0.357547 -0.056570
H17   H     H_    0.512927 0.882023 0.265664 0.113287
H18   H     H_    0.363860 0.317220 0.361115 -0.005411
H19   H     H_    0.583498 0.364501 0.364430 -0.010792
H20   H     H_    0.494579 0.349473 0.264646 -0.047656
H21   H     H_    0.617587 0.244128 0.272857 0.030344
H22   H     H_    0.719161 0.954806 0.275865 0.133216
H23   H     H_    0.175643 0.749016 0.216900 0.067881
H24   H     H_    0.107639 0.302758 0.683665 0.091905
H25   H     H_    0.902507 0.227400 0.679641 -0.026176
H26   H     H_    0.188331 0.202221 0.761344 0.144009
H27   H     H_    0.008473 0.264644 0.781572 0.105205
H28   H     H_    0.985978 0.121879 0.757201 0.118615
H29   H     H_    0.647108 0.202975 0.632449 -0.033018
H30   H     H_    0.425933 0.168413 0.639934 0.096055
H31   H     H_    0.693679 0.096040 0.713846 0.129524
H32   H     H_    0.581083 0.016211 0.652226 0.078925
H33   H     H_    0.066816 0.700875 0.312390 0.086167
H34   H     H_    0.473826 0.057949 0.718007 0.132214
H35   H     H_    0.730311 0.394321 0.076350 0.133691
H36   H     H_    0.668951 0.375119 0.971606 0.114451
H37   H     H_    0.466789 0.630485 0.210364 0.140402
H38   H     H_    0.184542 0.530544 0.752306 0.156671
H39   H     H_    0.666213 0.491461 0.800067 0.106733
H40   H     H_    0.027487 0.408123 0.242184 0.133367
H41   H     H_    0.378481 0.534176 0.378756 0.076069
H42   H     H_    0.276082 0.771900 0.319427 -0.080959
H43   H     H_    0.846652 0.427713 0.624230 0.066410
H44   H     H_    0.334789 0.039352 0.433405 0.101738
H45   H     H_    0.860151 0.952227 0.565550 0.102667
H46   H     H_    0.814166 0.263696 0.523252 0.062150
H47   H     H_    0.378394 0.725317 0.471631 0.069093
H48   H     H_    0.001648 0.816177 0.238411 0.162309
H49   H     H_    0.208430 0.889583 0.246432 0.114129
H50   H     H_    0.353251 0.758541 0.587511 0.016726
H51   H     H_    0.146691 0.748287 0.556893 0.071174
N1    N     N_R   0.972567 0.510251 0.851059 -0.430171
N2    N     N_R   0.186184 0.512402 0.151435 -0.421929
O1    O     O_2   0.890290 0.440320 0.360790 -0.467994
O2    O     O_3   0.675276 0.788398 0.620198 -0.644877
O3    O     O_3   0.091988 0.859198 0.351148 -0.597266
O4    O     O_2   0.299410 0.559720 0.639240 -0.462442
O5    O     O_3   0.058870 0.558650 0.568170 -0.495460
O6    O     O_3   0.517310 0.362160 0.604450 -0.477660
O7    O     O_3   0.169081 0.731971 0.645697 -0.629316
O8    O     O_3   0.614910 0.369290 0.471050 -0.481172
O9    O     O_3   0.099190 0.306290 0.575790 -0.489031
O10   O     O_2   0.196402 0.117349 0.543045 -0.484323
O11   O     O_3   0.090054 0.141800 0.649844 -0.611321
O12   O     O_3   0.130840 0.441440 0.431840 -0.494788
O13   O     O_3   0.574800 0.630800 0.528960 -0.486275
O14   O     O_2   0.344900 0.234690 0.472540 -0.462813
O15   O     O_3   0.511005 0.203346 0.374576 -0.652633
O16   O     O_2   0.377094 0.422029 0.704133 -0.502066
O17   O     O_3   0.549225 0.267741 0.709708 -0.582121
O18   O     O_2   0.197674 0.635542 0.846448 -0.563736
O19   O     O_2   0.754191 0.385265 0.867120 -0.595496
O20   O     O_2   0.910512 0.471405 0.165631 -0.578311
O21   O     O_2   0.449941 0.531197 0.120178 -0.594471
O22   O     O_3   0.672400 0.637930 0.395560 -0.481636
O23   O     O_2   0.778872 0.558631 0.292304 -0.446954
O24   O     O_3   0.023700 0.268211 0.353379 -0.618364
O25   O     O_3   0.726099 0.758684 0.299768 -0.585385
O26   O     O_2   0.844800 0.765340 0.527490 -0.475293
O27   O     O_3   0.090520 0.693800 0.424220 -0.490468
O28   O     O_2   0.004568 0.883555 0.460605 -0.487517
P1    P     P_3+3 0.057140 0.408270 0.369700 0.994541
P2    P     P_3+3 0.667360 0.749400 0.544670 0.971468
P3    P     P_3+3 0.132166 0.831415 0.421984 0.950295
P4    P     P_3+3 0.132580 0.591820 0.630310 0.992921
P5    P     P_3+3 0.059559 0.167331 0.577871 0.936462
P6    P     P_3+3 0.655476 0.631280 0.319439 0.992899
P7    P     P_3+3 0.526024 0.235169 0.450840 0.933625
P8    P     P_3+3 0.540501 0.388452 0.680727 0.981222
O29   O     O_3   0.363272 0.194683 0.261051 -0.635898
C53   C     C_3   0.373148 0.169825 0.199539 0.277088
H52   H     H_    0.309479 0.086233 0.187490 0.076151
H53   H     H_    0.502417 0.170710 0.184325 0.025219
C54   C     C_3   0.285293 0.245590 0.167681 -0.211449
H54   H     H_    0.157394 0.244640 0.183745 0.129246
H55   H     H_    0.352241 0.328661 0.176797 0.143118
C55   C     C_3   0.279064 0.213157 0.101517 -0.460772
H56   H     H_    0.405914 0.216574 0.084398 0.142033
H57   H     H_    0.214374 0.269575 0.080068 0.142798
H58   H     H_    0.211295 0.130555 0.090440 0.136308
C56   C     C_1   0.525760 0.671511 0.040292 0.367144
N3    N     N_1   0.650051 0.718592 0.059387 -0.286813
O30   O     O_3   0.426442 0.687281 0.925971 -0.612752
C57   C     C_3   0.558549 0.633808 0.905046 0.308095
H59   H     H_    0.526980 0.595210 0.859606 0.081671
H60   H     H_    0.584569 0.568936 0.931064 -0.019356
C58   C     C_3   0.715901 0.716044 0.906325 -0.166005
H61   H     H_    0.724547 0.771779 0.947927 0.141273
H62   H     H_    0.826069 0.674026 0.904797 0.069057
C59   C     C_3   0.719562 0.780364 0.854343 -0.369126
H63   H     H_    0.718417 0.724459 0.812936 0.102572
H64   H     H_    0.834786 0.839678 0.856840 0.130490
H65   H     H_    0.610045 0.823589 0.854264 0.174752

loop_
_geom_bond_atom_site_label_1
_geom_bond_atom_site_label_2
_ccdc_geom_bond_type
O28   P3    D    
C32   P6    S    
O26   P2    D    
O30   C57   S    
C17   C56   S    
C17   C18   A    
O5    P4    S    
C54   C55   S    
C34   O7    S    
C53   C54   S    
C2    H16   S    
C58   H61   S    
O4    P4    D    
C5    C6    S    
C2    O25   S    
C51   C52   S    
Ba2   O5    S    
C48   H45   S    
C42   P2    S    
C41   P3    S    
C23   H23   S    
Ba2   P4    S    
C8    H31   S    
C59   H63   S    
C33   C35   A    
C54   H55   S    
C12   H33   S    
C16   C17   A    
C3    H18   S    
Ba1   O22   S    
C50   H7    S    
C40   H44   S    
Ba1   O5    S    
C53   H52   S    
C28   C29   D    
C51   H10   S    
O11   P5    S    
C23   H48   S    
C37   H43   S    
C52   H14   S    
C51   O2    S    
C38   C47   A    
C27   P8    S    
C7    O17   S    
C34   C45   S    
O2    P2    S    
Ba1   Ba2   S    
Ba1   O12   S    
C55   H58   S    
C36   N2    S    
O23   P6    D    
C57   C58   S    
C53   H53   S    
Ba2   O9    S    
C14   C15   A    
C13   O19   D    
C10   C15   A    
C35   H40   S    
C21   C22   A    
C21   H35   S    
O17   P8    S    
Ba1   P1    S    
C51   H11   S    
C7    C8    S    
C11   O18   D    
O8    P7    S    
C30   N1    S    
C57   H60   S    
C39   C41   A    
C5    O11   S    
Ba1   O26   S    
C26   C30   D    
C12   H42   S    
C58   H62   S    
C4    H20   S    
C9    C32   A    
C44   C46   A    
Ba2   O4    S    
C6    H27   S    
O3    P3    S    
C54   H54   S    
O24   P1    S    
C49   O24   S    
C23   H49   S    
C52   H13   S    
C7    H30   S    
C43   C44   A    
C3    O15   S    
C15   C19   A    
C49   C50   S    
C26   H39   S    
Ba1   O13   S    
C33   P1    S    
C1    H17   S    
C38   H46   S    
C35   C36   A    
C45   H3    S    
Ba2   O8    S    
C29   C30   S    
C25   N2    Am   
C55   H56   S    
C8    H34   S    
C27   C37   S    
C10   C16   A    
C31   C32   A    
C20   H36   S    
C46   P7    S    
O7    P4    S    
C10   C11   A    
C1    H22   S    
C25   O21   D    
C7    H29   S    
C5    H24   S    
C47   C48   A    
C2    H1    S    
C40   C44   A    
C57   H59   S    
C39   C42   A    
C6    H28   S    
C47   P5    S    
C1    H12   S    
C49   H5    S    
C40   C41   A    
O15   P7    S    
C4    O29   S    
C1    C2    S    
C26   C27   S    
Ba1   O27   S    
C58   C59   S    
Ba1   P2    S    
C42   C43   A    
C13   N1    Am   
C5    H25   S    
Ba2   O14   S    
C9    H41   S    
O25   P6    S    
C38   C46   A    
C8    H32   S    
C14   C20   A    
C28   P4    S    
C34   H51   S    
O14   P7    D    
C59   H65   S    
O12   P1    S    
C22   C24   A    
C11   N1    Am   
C50   H9    S    
C24   N2    Am   
O27   P3    S    
Ba2   O12   S    
O1    P1    D    
O13   P2    S    
C18   C25   A    
C31   C36   A    
C34   H50   S    
O29   C53   S    
C9    C33   A    
C16   O30   S    
C50   H8    S    
C45   H4    S    
C3    C4    S    
C52   H15   S    
C43   C48   A    
C12   O3    S    
C59   H64   S    
Ba2   O6    S    
C39   H47   S    
C28   C37   D    
C24   O20   D    
C55   H57   S    
C12   C23   S    
C3    H19   S    
Ba1   O1    S    
O10   P5    D    
O6    P8    S    
O22   P6    S    
C18   C19   A    
C29   H38   S    
C19   C22   A    
O16   P8    D    
C56   N3    T    
C6    H26   S    
C20   C21   A    
C49   H6    S    
Ba1   O8    S    
Ba2   O13   S    
C13   C14   A    
C45   H2    S    
O9    P5    S    
C31   H37   S    
C4    H21   S    
