data_mof_unit_56954.cif
_audit_creation_date              2012-12-10T19:47:21-0500
_audit_creation_method            fapswitch 2.2
_symmetry_space_group_name_H-M    P1
_symmetry_Int_Tables_number       1
_space_group_crystal_system       triclinic
_cell_length_a                    14.954398
_cell_length_b                    14.17027
_cell_length_c                    10.671252
_cell_angle_alpha                 90.228986
_cell_angle_beta                  90.323565
_cell_angle_gamma                 90.115683
_cell_volume                      2261.26331581

loop_
_atom_site_label
_atom_site_type_symbol
_atom_type_description
_atom_site_fract_x
_atom_site_fract_y
_atom_site_fract_z
_atom_type_partial_charge
C1    C     C_R   0.327586 0.499955 0.504072 0.888970
C2    C     C_R   0.672175 0.500066 0.501285 0.824308
C3    C     C_R   0.231829 0.499824 0.519211 -0.031865
C4    C     C_R   0.767665 0.499859 0.511551 -0.011762
C5    C     C_R   0.187246 0.414775 0.542625 -0.222965
C6    C     C_R   0.816258 0.428195 0.453331 -0.212479
C7    C     C_R   0.095501 0.414218 0.555526 -0.194360
C8    C     C_R   0.908163 0.426804 0.465652 -0.176371
C9    C     C_R   0.047821 0.498412 0.542568 0.117667
C10   C     C_R   0.951194 0.496106 0.538217 0.117121
C11   C     C_R   0.427575 0.105020 0.449730 -0.272958
C12   C     C_R   0.571848 0.105484 0.551011 -0.276944
C13   C     C_R   0.429221 0.204274 0.450142 0.011370
C14   C     C_R   0.570511 0.204715 0.550274 0.024249
C15   C     C_R   0.499666 0.053380 0.500395 0.139458
C16   C     C_R   0.542696 0.895119 0.596023 -0.274401
C17   C     C_R   0.456752 0.894410 0.404549 -0.276461
C18   C     C_R   0.542292 0.795858 0.593827 0.030367
C19   C     C_R   0.457485 0.795160 0.406397 0.024250
C20   C     C_R   0.499662 0.946640 0.500355 0.134901
C21   C     C_R   0.496270 0.499630 0.260372 0.950338
C22   C     C_R   0.500712 0.500135 0.739513 0.978306
C23   C     C_R   0.663010 0.480289 0.134543 -0.115134
C24   C     C_R   0.665710 0.481036 0.873771 -0.133814
C25   C     C_R   0.744048 0.472105 0.071447 -0.149451
C26   C     C_R   0.745396 0.472454 0.941122 -0.137650
C27   C     C_R   0.582895 0.489255 0.936580 0.016364
C28   C     C_R   0.581346 0.488726 0.067482 0.043328
C29   C     C_R   0.498108 0.497396 0.127885 -0.286739
C30   C     C_R   0.501509 0.499775 0.871816 -0.286289
C31   C     C_R   0.416275 0.502736 0.061986 0.342013
C32   C     C_R   0.418675 0.506254 0.931454 0.411718
C33   C     C_R   0.092461 0.583875 0.522446 -0.183196
C34   C     C_R   0.902021 0.566621 0.598702 -0.188739
C35   C     C_R   0.184420 0.584708 0.511683 -0.186685
C36   C     C_R   0.810184 0.568987 0.584393 -0.200606
H1    H     H_    0.575520 0.930906 0.673368 0.135346
H2    H     H_    0.423801 0.929642 0.327347 0.137602
H3    H     H_    0.575682 0.757342 0.667789 0.125241
H4    H     H_    0.424130 0.756104 0.332367 0.140121
H5    H     H_    0.805905 0.465590 0.123882 0.136321
H6    H     H_    0.808292 0.466316 0.892031 0.139455
H7    H     H_    0.056076 0.649253 0.510282 0.135578
H8    H     H_    0.934708 0.619891 0.655964 0.133265
H9    H     H_    0.061569 0.347918 0.572564 0.132798
H10   H     H_    0.945694 0.373152 0.416180 0.128538
H11   H     H_    0.369470 0.069332 0.411422 0.133377
H12   H     H_    0.629842 0.070163 0.589463 0.134016
N1    N     N_R   0.500000 0.252470 0.500000 -0.093426
N2    N     N_R   0.500000 0.747550 0.500000 -0.096738
O1    O     O_R   0.369060 0.579480 0.500010 -0.607742
O2    O     O_R   0.630940 0.579480 0.499990 -0.623982
O3    O     O_R   0.369050 0.420520 0.500010 -0.662820
O4    O     O_R   0.630950 0.420520 0.499990 -0.632293
O5    O     O_R   0.500000 0.579490 0.316770 -0.607610
O6    O     O_R   0.500000 0.579490 0.683230 -0.606971
O7    O     O_R   0.499990 0.420540 0.316770 -0.640681
O8    O     O_R   0.500010 0.420540 0.683230 -0.641406
Zn1   Zn    Zn3+2 0.500000 0.606140 0.500000 0.967099
Zn2   Zn    Zn3+2 0.500000 0.393860 0.500000 0.921074
O9    O     O_3   0.335650 0.514650 0.124169 -0.628787
C37   C     C_3   0.305121 0.426436 0.169884 0.026275
H13   H     H_    0.340668 0.407887 0.257408 0.171205
H14   H     H_    0.315736 0.367997 0.101334 0.132204
C38   C     C_3   0.205222 0.432785 0.200082 -0.310365
H15   H     H_    0.195050 0.484904 0.276097 0.235641
H16   H     H_    0.166352 0.458269 0.118274 0.214450
C39   C     C_3   0.167858 0.337126 0.239387 -0.968009
H17   H     H_    0.169750 0.286918 0.159293 0.257793
H18   H     H_    0.097394 0.345365 0.269748 0.267305
H19   H     H_    0.207508 0.307551 0.318155 0.261645
O10   O     O_3   0.343535 0.526832 0.858974 -0.625625
C40   C     C_3   0.279661 0.452740 0.856858 0.094459
H20   H     H_    0.228231 0.471925 0.786310 0.176041
H21   H     H_    0.242751 0.450220 0.945016 0.176594
C41   C     C_3   0.316763 0.354801 0.821014 -0.418215
H22   H     H_    0.342087 0.356530 0.723799 0.261395
H23   H     H_    0.372516 0.334022 0.884187 0.211294
C42   C     C_3   0.244260 0.279201 0.829685 -0.968944
H24   H     H_    0.221505 0.272092 0.928076 0.263814
H25   H     H_    0.271527 0.210336 0.798060 0.273315
H26   H     H_    0.186069 0.297458 0.769576 0.266171
H27   H     H_    0.665069 0.479861 0.235763 0.124642
H28   H     H_    0.669602 0.481449 0.772640 0.117623
H29   H     H_    0.217907 0.651135 0.493922 0.164024
H30   H     H_    0.772276 0.623508 0.631667 0.146476
H31   H     H_    0.223013 0.348646 0.549881 0.162545
H32   H     H_    0.783282 0.374677 0.396717 0.146574
H33   H     H_    0.373462 0.242806 0.410717 0.115959
H34   H     H_    0.626316 0.243583 0.589769 0.130476

loop_
_geom_bond_atom_site_label_1
_geom_bond_atom_site_label_2
_ccdc_geom_bond_type
C4    C36   A    
O5    Zn1   S    
C11   C13   A    
C40   H20   S    
C31   O9    S    
C11   H11   S    
C24   C27   A    
C12   H12   S    
C21   O5    A    
C32   O10   S    
O4    Zn2   S    
C26   H6    S    
N1    Zn2   S    
C23   H27   S    
N2    Zn1   S    
C7    H9    S    
C28   C29   A    
C24   C26   A    
C14   N1    A    
O8    Zn2   S    
C17   C20   A    
C6    H32   S    
C1    O3    A    
C14   H34   S    
C37   H14   S    
C17   C19   A    
C11   C15   A    
C39   H17   S    
C38   H16   S    
C41   C42   S    
C9    C10   S    
C16   H1    S    
C27   C30   A    
C9    C33   A    
C40   H21   S    
O3    Zn2   S    
C15   C20   S    
C33   H7    S    
C34   H8    S    
C41   H22   S    
C4    C6    A    
C2    O4    A    
C25   H5    S    
C42   H25   S    
O7    Zn2   S    
C22   O6    A    
C36   H30   S    
C25   C26   A    
C21   C29   S    
C1    C3    S    
C2    C4    S    
C18   H3    S    
C21   O7    A    
C37   H13   S    
O2    Zn1   S    
C31   C32   A    
C12   C15   A    
C3    C35   A    
C16   C20   A    
C38   C39   S    
C10   C34   A    
C23   C28   A    
C1    O1    A    
C2    O2    A    
C13   N1    A    
C16   C18   A    
C12   C14   A    
C40   C41   S    
O1    Zn1   S    
C18   N2    A    
C5    C7    A    
C7    C9    A    
C22   C30   S    
C37   C38   S    
C13   H33   S    
C41   H23   S    
O10   C40   S    
C3    C5    A    
C22   O8    A    
C42   H26   S    
C6    C8    A    
O6    Zn1   S    
C24   H28   S    
C29   C31   A    
C30   C32   A    
C35   H29   S    
C19   N2    A    
C39   H19   S    
C33   C35   A    
C34   C36   A    
C17   H2    S    
C23   C25   A    
O9    C37   S    
C8    H10   S    
C19   H4    S    
C42   H24   S    
C5    H31   S    
C8    C10   A    
C38   H15   S    
C27   C28   A    
C39   H18   S    
