data_mof_unit_24149.cif
_audit_creation_date              2012-12-11T15:15:39-0500
_audit_creation_method            fapswitch 2.2
_symmetry_space_group_name_H-M    P1
_symmetry_Int_Tables_number       1
_space_group_crystal_system       triclinic
_cell_length_a                    20.583672
_cell_length_b                    22.789148
_cell_length_c                    6.93674
_cell_angle_alpha                 90.302745
_cell_angle_beta                  86.576316
_cell_angle_gamma                 90.025821
_cell_volume                      3248.0632848

loop_
_atom_site_label
_atom_site_type_symbol
_atom_type_description
_atom_site_fract_x
_atom_site_fract_y
_atom_site_fract_z
_atom_type_partial_charge
O1    O     O_R   0.387100 0.552640 0.378490 -0.533474
O2    O     O_R   0.612900 0.052640 0.621510 -0.524721
O3    O     O_R   0.249610 0.559600 0.072250 -0.534851
O4    O     O_R   0.750390 0.059600 0.927750 -0.544098
O5    O     O_R   0.249120 0.447360 0.902040 -0.547331
O6    O     O_R   0.750880 0.947360 0.097960 -0.552080
C1    C     C_R   0.226082 0.572054 0.244999 0.795453
C2    C     C_R   0.775181 0.070987 0.755805 0.768265
O7    O     O_R   0.386610 0.559560 0.048860 -0.532273
O8    O     O_R   0.613390 0.059560 0.951140 -0.538732
O9    O     O_R   0.387100 0.447320 0.878470 -0.541922
O10   O     O_R   0.612900 0.947320 0.121530 -0.540820
C3    C     C_R   0.407975 0.574652 0.214336 0.824212
C4    C     C_R   0.592284 0.074936 0.786389 0.825860
O11   O     O_R   0.249120 0.552680 0.402050 -0.540777
O12   O     O_R   0.750880 0.052680 0.597950 -0.531493
O13   O     O_3   0.318110 0.463180 0.223790 -0.384504
O14   O     O_3   0.681890 0.963180 0.776210 -0.383105
V1    V     V_3+5 0.318110 0.506830 0.948930 1.460228
V2    V     V_3+5 0.681890 0.006830 0.051070 1.449304
O15   O     O_R   0.386610 0.440400 0.548840 -0.542501
O16   O     O_R   0.613390 0.940400 0.451160 -0.543217
C5    C     C_R   0.407978 0.425281 0.713496 0.684029
C6    C     C_R   0.592083 0.925293 0.285625 0.684661
O17   O     O_R   0.249610 0.440440 0.572240 -0.551949
O18   O     O_R   0.750390 0.940440 0.427760 -0.549587
C7    C     C_R   0.226637 0.426913 0.744753 0.671316
C8    C     C_R   0.773433 0.927100 0.254376 0.666075
V3    V     V_3+5 0.318110 0.493170 0.448930 1.436993
V4    V     V_3+5 0.681890 0.993170 0.551070 1.452073
O19   O     O_3   0.318110 0.536820 0.723940 -0.360413
O20   O     O_3   0.681890 0.036820 0.276060 -0.358536
C9    C     C_R   0.170594 0.386351 0.764163 -0.036495
C10   C     C_R   0.828782 0.885999 0.230168 -0.037187
C11   C     C_R   0.130947 0.376947 0.609049 -0.171879
C12   C     C_R   0.842285 0.845598 0.374182 -0.175932
C13   C     C_R   0.075064 0.342303 0.632285 -0.159952
C14   C     C_R   0.893695 0.805767 0.344563 -0.160502
C15   C     C_R   0.058446 0.314969 0.810075 0.151973
C16   C     C_R   0.934045 0.806636 0.172526 0.143681
C17   C     C_R   0.099251 0.323274 0.963487 -0.159166
C18   C     C_R   0.920644 0.848166 0.030815 -0.151450
C19   C     C_R   0.154339 0.358865 0.941271 -0.183975
C20   C     C_R   0.868382 0.886665 0.058331 -0.178766
C21   C     C_R   0.931242 0.153966 0.847585 -0.145356
C22   C     C_R   0.061944 0.643774 0.192267 -0.156395
C23   C     C_R   0.883536 0.109856 0.862345 0.121447
C24   C     C_R   0.111662 0.601569 0.176242 0.103350
C25   C     C_R   0.830812 0.155513 0.594856 -0.152447
C26   C     C_R   0.177609 0.664837 0.371169 -0.156018
C27   C     C_R   0.879978 0.197685 0.578712 -0.160082
C28   C     C_R   0.128430 0.707031 0.380267 -0.161264
C29   C     C_R   0.929117 0.198228 0.709014 0.114902
C30   C     C_R   0.071423 0.697824 0.284250 0.121960
C31   C     C_2   0.998430 0.278239 0.837382 0.116495
C32   C     C_2   0.988441 0.763194 0.138350 0.121521
C33   C     C_2   0.981331 0.242632 0.691218 -0.243404
C34   C     C_2   0.020640 0.743950 0.291606 -0.251253
C35   C     C_R   0.830734 0.112186 0.738742 -0.086094
C36   C     C_R   0.170887 0.613016 0.263980 -0.058773
H1    H     H_    0.142145 0.397540 0.470927 0.121065
H2    H     H_    0.812127 0.843747 0.507427 0.122508
H3    H     H_    0.791976 0.157376 0.496291 0.170765
H4    H     H_    0.221833 0.673428 0.443594 0.177234
H5    H     H_    0.009030 0.243444 0.553069 0.112394
H6    H     H_    0.011211 0.764966 0.431344 0.118786
H7    H     H_    0.088687 0.302494 0.101638 0.109794
H8    H     H_    0.950091 0.851507 0.897276 0.111886
H9    H     H_    0.971012 0.153506 0.943210 0.119250
H10   H     H_    0.015841 0.634829 0.130956 0.126534
H11   H     H_    0.184062 0.365048 0.063480 0.127574
H12   H     H_    0.859398 0.917526 0.944712 0.127245
H13   H     H_    0.044264 0.338001 0.511816 0.109100
H14   H     H_    0.900832 0.773558 0.455360 0.112057
H15   H     H_    0.878900 0.230722 0.467174 0.121676
H16   H     H_    0.135424 0.747488 0.459101 0.118382
C37   C     C_R   0.576462 0.361419 0.649610 -0.125013
C38   C     C_R   0.422517 0.863195 0.301981 -0.125638
H17   H     H_    0.534644 0.447089 0.629034 0.102437
H18   H     H_    0.464183 0.949043 0.322239 0.101663
H19   H     H_    0.667010 0.279232 0.636310 0.153250
H20   H     H_    0.331514 0.781801 0.289405 0.150189
H21   H     H_    0.625066 0.377495 0.611224 0.111465
H22   H     H_    0.373285 0.880169 0.317254 0.110433
C39   C     C_R   0.461844 0.382323 0.710162 -0.042556
C40   C     C_R   0.538238 0.882429 0.284875 -0.041117
C41   C     C_R   0.475994 0.097037 0.837290 -0.192039
C42   C     C_R   0.525072 0.595376 0.196038 -0.194459
C43   C     C_R   0.422795 0.134577 0.849685 -0.107099
C44   C     C_R   0.578619 0.632422 0.197430 -0.106247
C45   C     C_R   0.430675 0.194412 0.816409 -0.119717
C46   C     C_R   0.570474 0.692824 0.218033 -0.120156
C47   C     C_R   0.492766 0.218747 0.768899 0.009370
C48   C     C_R   0.507741 0.718265 0.237527 0.008463
C49   C     C_R   0.547785 0.179725 0.754394 -0.045215
C50   C     C_R   0.452340 0.679857 0.235279 -0.040883
C51   C     C_R   0.501838 0.280518 0.735543 0.070243
C52   C     C_R   0.498367 0.780525 0.259373 0.070241
C53   C     C_R   0.565581 0.301567 0.686381 0.046834
C54   C     C_R   0.433852 0.802720 0.279149 0.049188
C55   C     C_R   0.618366 0.262964 0.673289 -0.261220
C56   C     C_R   0.380726 0.764686 0.275433 -0.262892
C57   C     C_R   0.610120 0.203267 0.706975 0.556340
C58   C     C_R   0.389373 0.704496 0.253216 0.551510
C59   C     C_R   0.450174 0.322432 0.748211 -0.187540
C60   C     C_R   0.550420 0.821874 0.262242 -0.187424
C61   C     C_R   0.525065 0.401240 0.660134 -0.167883
C62   C     C_R   0.474192 0.902573 0.304980 -0.169392
C63   C     C_R   0.538548 0.118352 0.789580 -0.082840
C64   C     C_R   0.461854 0.617879 0.214880 -0.080403
H23   H     H_    0.400441 0.310121 0.784829 0.087154
H24   H     H_    0.600742 0.808726 0.246971 0.086748
H25   H     H_    0.468297 0.050737 0.865549 0.100464
H26   H     H_    0.533031 0.548528 0.180541 0.100090
H27   H     H_    0.386982 0.220437 0.829173 0.101279
H28   H     H_    0.614465 0.718383 0.218333 0.102067
H29   H     H_    0.374739 0.117105 0.886361 0.113077
H30   H     H_    0.627185 0.614071 0.182817 0.113794
F1    F     F_    0.664125 0.169073 0.691992 -0.720226
F2    F     F_    0.335133 0.670903 0.248327 -0.731581
C65   C     C_3   0.892960 0.060959 0.006255 -0.374735
C66   C     C_3   0.953733 0.024695 0.950499 -0.785422
H31   H     H_    0.949719 0.004717 0.805241 0.226026
H32   H     H_    0.998311 0.052117 0.949863 0.229499
H33   H     H_    0.958622 0.988999 0.056997 0.225449
H34   H     H_    0.897453 0.080421 0.152156 0.182447
H35   H     H_    0.851932 0.029813 0.017937 0.186483
C67   C     C_3   0.099365 0.544927 0.068593 -0.370364
C68   C     C_3   0.090651 0.493179 0.206492 -0.765500
H36   H     H_    0.136453 0.484112 0.277184 0.207969
H37   H     H_    0.051218 0.502494 0.318825 0.228902
H38   H     H_    0.077247 0.453428 0.124733 0.224543
H39   H     H_    0.054485 0.548560 0.987806 0.178805
H40   H     H_    0.139556 0.535912 0.958747 0.188235
C69   C     C_3   0.958109 0.281704 0.029322 -0.342668
C70   C     C_3   0.937531 0.344685 0.078637 -0.755545
H41   H     H_    0.980503 0.372703 0.101932 0.225986
H42   H     H_    0.905680 0.345042 0.213642 0.212742
H43   H     H_    0.910049 0.363380 0.960350 0.233078
H44   H     H_    0.912734 0.255550 0.027678 0.195829
H45   H     H_    0.986386 0.263806 0.146998 0.155014
C71   C     C_3   0.008254 0.744156 0.931342 -0.327525
C72   C     C_3   0.953354 0.711011 0.839418 -0.780868
H46   H     H_    0.936875 0.673335 0.930514 0.226210
H47   H     H_    0.911324 0.740505 0.820656 0.227722
H48   H     H_    0.970885 0.694058 0.695254 0.218857
H49   H     H_    0.022122 0.782873 0.842114 0.156223
H50   H     H_    0.052582 0.716637 0.920835 0.190579

loop_
_geom_bond_atom_site_label_1
_geom_bond_atom_site_label_2
_ccdc_geom_bond_type
C72   H48   S    
C40   C62   A    
C25   H3    S    
O6    C8    A    
C4    C63   S    
C26   H4    S    
O4    C2    A    
V1    O19   S    
C67   C68   S    
C69   C70   S    
C17   H7    S    
C60   H24   S    
C7    C9    S    
O9    V1    S    
C44   H30   S    
C11   C13   A    
C27   H15   S    
C65   H35   S    
O3    C1    A    
C2    C35   S    
V2    O20   S    
C39   C59   A    
C23   C65   S    
C45   C47   A    
C37   H21   S    
O12   V4    S    
C72   H46   S    
C45   H27   S    
O13   V3    S    
C38   C62   A    
O7    C3    A    
C9    C11   A    
O5    C7    A    
O7    V1    S    
C15   C31   S    
O8    V2    S    
C16   C32   S    
C26   C28   A    
C24   C36   A    
O14   V4    S    
C43   C45   A    
C10   C12   A    
C68   H38   S    
C42   C64   A    
C16   C18   A    
C59   H23   S    
C21   C29   A    
C2    O12   A    
C18   H8    S    
C17   C19   A    
O10   V2    S    
C40   C60   A    
C18   C20   A    
C70   H43   S    
C12   H2    S    
C54   C56   A    
C51   C53   A    
C28   C30   A    
O11   V3    S    
C21   C23   A    
O17   V3    S    
C69   H44   S    
C22   C24   A    
C23   C35   A    
C41   H25   S    
C49   C57   A    
C21   H9    S    
C9    C19   A    
C71   H50   S    
C37   C61   A    
C10   C20   A    
C70   H42   S    
C49   C63   A    
C29   C33   S    
H19   C55   S    
C1    O11   A    
C14   H14   S    
C25   C27   A    
C50   C64   A    
C27   C29   A    
C37   C53   A    
C56   C58   A    
C3    C64   S    
V4    O20   S    
C67   H40   S    
C24   C67   S    
C44   C46   A    
V3    O19   S    
O3    V1    S    
C22   C30   A    
O1    V3    S    
H18   C62   S    
H20   C56   S    
H17   C61   S    
C11   H1    S    
C48   C50   A    
C46   H28   S    
C65   C66   S    
C41   C63   A    
C53   C55   A    
C42   C44   A    
O18   V4    S    
C52   C54   A    
C31   C33   D    
C38   C54   A    
O16   C6    A    
O1    C3    A    
C66   H32   S    
C12   C14   A    
C47   C51   A    
C1    C36   S    
C34   H6    S    
C68   H36   S    
C30   C34   S    
C72   H47   S    
C50   C58   A    
C13   H13   S    
C19   H11   S    
O16   V4    S    
C71   H49   S    
C57   F1    S    
C33   H5    S    
C70   H41   S    
C28   H16   S    
C52   C60   A    
O5    V1    S    
O17   C7    A    
O6    V2    S    
O10   C6    A    
O18   C8    A    
C25   C35   A    
O2    V4    S    
C26   C36   A    
C66   H33   S    
O15   C5    A    
C51   C59   A    
C65   H34   S    
C13   C15   A    
C67   H39   S    
C14   C16   A    
C46   C48   A    
C47   C49   A    
O15   V3    S    
C43   H29   S    
C31   C69   S    
O9    C5    A    
O13   V1    S    
C32   C34   D    
C20   H12   S    
O14   V2    S    
C42   H26   S    
O2    C4    A    
C22   H10   S    
C8    C10   S    
C32   C71   S    
O4    V2    S    
C38   H22   S    
C69   H45   S    
C15   C17   A    
C55   C57   A    
C5    C39   S    
C41   C43   A    
C48   C52   A    
C71   C72   S    
C58   F2    S    
C66   H31   S    
C39   C61   A    
C6    C40   S    
O8    C4    A    
C68   H37   S    
