data_mof_unit_54974.cif
_audit_creation_date              2012-12-11T15:55:08-0500
_audit_creation_method            fapswitch 2.2
_symmetry_space_group_name_H-M    P1
_symmetry_Int_Tables_number       1
_space_group_crystal_system       triclinic
_cell_length_a                    17.621727
_cell_length_b                    24.335133
_cell_length_c                    15.108123
_cell_angle_alpha                 90.005059
_cell_angle_beta                  126.0386
_cell_angle_gamma                 89.919475
_cell_volume                      5238.86267775

loop_
_atom_site_label
_atom_site_type_symbol
_atom_type_description
_atom_site_fract_x
_atom_site_fract_y
_atom_site_fract_z
_atom_type_partial_charge
C1    C     C_R   0.902100 0.875371 0.090876 -0.089925
C2    C     C_R   0.902549 0.125011 0.091128 -0.110193
C3    C     C_R   0.406401 0.368883 0.089982 -0.090768
C4    C     C_R   0.405908 0.630780 0.089875 -0.089319
C5    C     C_R   0.053954 0.846969 0.909252 -0.134807
C6    C     C_R   0.054640 0.152925 0.909415 -0.119586
C7    C     C_R   0.557292 0.347807 0.908939 -0.150097
C8    C     C_R   0.558004 0.651856 0.908743 -0.121967
C9    C     C_R   0.146499 0.152599 0.091520 -0.164430
C10   C     C_R   0.144860 0.846861 0.091122 -0.131886
C11   C     C_R   0.649407 0.651922 0.091419 -0.123797
C12   C     C_R   0.646848 0.347319 0.091222 -0.126578
C13   C     C_R   0.323281 0.998692 0.274219 0.077786
C14   C     C_R   0.823387 0.498657 0.274399 0.083396
C15   C     C_R   0.044247 0.999864 0.720426 -0.031335
C16   C     C_R   0.446214 0.499767 0.640817 -0.013938
C17   C     C_R   0.112985 0.814749 0.000424 0.167067
C18   C     C_R   0.114764 0.184707 0.000808 0.104824
C19   C     C_R   0.617049 0.315689 0.000489 0.148739
C20   C     C_R   0.619815 0.683333 0.000347 0.139992
C21   C     C_3   0.068798 0.060385 0.503875 -0.383025
C22   C     C_3   0.967465 0.975242 0.431098 -0.397649
C23   C     C_3   0.407169 0.549639 0.378502 -0.408871
C24   C     C_3   0.417987 0.446536 0.386982 -0.375538
C25   C     C_3   0.063933 0.059948 0.601134 -0.391653
C26   C     C_3   0.964429 0.975388 0.529386 -0.389397
C27   C     C_3   0.402315 0.550872 0.476046 -0.406390
C28   C     C_3   0.402525 0.448456 0.476090 -0.368928
C29   C     C_3   0.144838 0.967172 0.554295 -0.439989
C30   C     C_3   0.567087 0.504115 0.499477 -0.440352
C31   C     C_3   0.060091 0.001044 0.461588 0.342541
C32   C     C_3   0.467900 0.499944 0.390415 0.350773
C33   C     C_3   0.056755 0.999745 0.631541 0.206886
C34   C     C_3   0.453712 0.499601 0.550273 0.223431
C35   C     C_R   0.809878 0.123596 0.907136 -0.121460
C36   C     C_R   0.809946 0.876529 0.906733 -0.141914
C37   C     C_R   0.311836 0.626746 0.906058 -0.134007
C38   C     C_R   0.311963 0.373224 0.906085 -0.131187
C39   C     C_3   0.145544 0.966169 0.659085 -0.061317
C40   C     C_3   0.561644 0.499031 0.597593 -0.063201
C41   C     C_3   0.656306 0.185094 0.888603 -0.428556
C42   C     C_3   0.660320 0.811377 0.884485 -0.409397
C43   C     C_3   0.159470 0.689010 0.885057 -0.428286
C44   C     C_3   0.160176 0.310969 0.885946 -0.411583
C45   C     C_3   0.102564 0.735453 0.888546 -0.419009
C46   C     C_3   0.102970 0.265053 0.890117 -0.404489
C47   C     C_3   0.601618 0.233100 0.892214 -0.413010
C48   C     C_3   0.606780 0.762720 0.887191 -0.423491
C49   C     C_3   0.310894 0.742614 0.018503 -0.200571
C50   C     C_3   0.311860 0.256932 0.018076 -0.179817
C51   C     C_3   0.809788 0.238246 0.015267 -0.173498
C52   C     C_3   0.815547 0.762297 0.025036 -0.181325
C53   C     C_3   0.744572 0.174315 0.090287 -0.619524
C54   C     C_3   0.738550 0.827231 0.083518 -0.623475
C55   C     C_3   0.243872 0.674890 0.085680 -0.623819
C56   C     C_3   0.245668 0.324240 0.087005 -0.486965
C57   C     C_3   0.756775 0.182870 0.997289 0.217131
C58   C     C_3   0.757620 0.816773 0.996826 0.209932
C59   C     C_3   0.258615 0.686636 0.995551 0.224202
C60   C     C_3   0.259623 0.312964 0.996023 0.160743
C61   C     C_3   0.163003 0.766269 0.000630 0.206909
C62   C     C_3   0.164437 0.233239 0.001041 0.164261
C63   C     C_3   0.665232 0.265753 0.001632 0.216417
C64   C     C_3   0.667078 0.733468 0.000930 0.214271
C65   C     C_3   0.250876 0.789466 0.013485 -0.613814
C66   C     C_3   0.251124 0.210018 0.010928 -0.584924
C67   C     C_3   0.751584 0.286731 0.008959 -0.619673
C68   C     C_3   0.758712 0.713311 0.019422 -0.617745
C69   C     C_3   0.191895 0.723773 0.094504 0.963008
C70   C     C_3   0.195325 0.275023 0.096860 0.934072
C71   C     C_3   0.696507 0.225389 0.099464 0.952990
C72   C     C_3   0.688981 0.776535 0.091376 0.961320
C73   C     C_3   0.465436 0.938635 0.387079 -0.546807
C74   C     C_3   0.481236 0.035180 0.340902 -0.518029
C75   C     C_3   0.965721 0.438614 0.386780 -0.544710
C76   C     C_3   0.981370 0.535252 0.340856 -0.512099
C77   C     C_R   0.746153 0.953997 0.696198 -0.117933
C78   C     C_R   0.742667 0.045441 0.696767 -0.113242
C79   C     C_R   0.246255 0.453958 0.696207 -0.110111
C80   C     C_R   0.242798 0.545420 0.696664 -0.115909
C81   C     C_3   0.565719 0.937960 0.492403 0.344445
C82   C     C_3   0.587014 0.031786 0.438311 0.352440
C83   C     C_3   0.066028 0.437908 0.492106 0.343022
C84   C     C_3   0.087253 0.531738 0.438045 0.349190
C85   C     C_3   0.433388 0.018867 0.467878 -0.404040
C86   C     C_3   0.933761 0.518690 0.467997 -0.409274
C87   C     C_3   0.424049 0.997760 0.364549 0.283761
C88   C     C_3   0.924262 0.497719 0.364515 0.281897
C89   C     C_3   0.598914 0.998352 0.534816 0.105872
C90   C     C_3   0.099236 0.498295 0.534589 0.110378
C91   C     C_3   0.535915 0.023563 0.564672 -0.418438
C92   C     C_3   0.036309 0.523488 0.564573 -0.421907
C93   C     C_R   0.044847 0.046340 0.301207 -0.149837
C94   C     C_R   0.044367 0.954549 0.302091 -0.151471
C95   C     C_R   0.502943 0.546074 0.271471 -0.143694
C96   C     C_R   0.502677 0.453862 0.271049 -0.146769
C97   C     C_R   0.813668 0.861857 0.997829 0.044492
C98   C     C_R   0.813666 0.138149 0.998386 0.047641
C99   C     C_R   0.317973 0.356051 0.997221 0.040689
C100  C     C_R   0.317445 0.643660 0.997004 0.044514
C101  C     C_R   0.695564 0.999294 0.635405 0.062607
C102  C     C_R   0.195855 0.499253 0.635207 0.062439
C103  C     C_R   0.054965 0.000827 0.361162 0.017529
C104  C     C_R   0.480502 0.499960 0.304443 0.017417
C105  C     C_R   0.266106 0.953229 0.244646 -0.144362
C106  C     C_R   0.267903 0.045457 0.246259 -0.152177
C107  C     C_R   0.766183 0.453220 0.244892 -0.143946
C108  C     C_R   0.768013 0.545416 0.246505 -0.147552
C109  C     C_R   0.018888 0.046092 0.751753 -0.115202
C110  C     C_R   0.017515 0.953682 0.749965 -0.108365
C111  C     C_R   0.456723 0.545977 0.699770 -0.070994
C112  C     C_R   0.456622 0.453779 0.700037 -0.176393
H1    H     H_    0.931102 0.866178 0.175079 0.084658
H2    H     H_    0.932276 0.134411 0.175374 0.088636
H3    H     H_    0.438596 0.353768 0.171719 0.085097
H4    H     H_    0.437669 0.645576 0.171693 0.081925
H5    H     H_    0.010489 0.086612 0.438677 0.153408
H6    H     H_    0.906173 0.998634 0.362835 0.169118
H7    H     H_    0.335224 0.546254 0.300920 0.171708
H8    H     H_    0.349457 0.441643 0.305450 0.155797
H9    H     H_    0.000637 0.084060 0.576874 0.168415
H10   H     H_    0.903035 0.000235 0.509543 0.180425
H11   H     H_    0.327533 0.551428 0.446183 0.190409
H12   H     H_    0.326018 0.450610 0.438296 0.162176
H13   H     H_    0.126058 0.081409 0.671816 0.155660
H14   H     H_    0.951519 0.932799 0.543973 0.138704
H15   H     H_    0.433943 0.589951 0.520737 0.145585
H16   H     H_    0.428459 0.409126 0.521805 0.169247
H17   H     H_    0.210133 0.984568 0.570492 0.204320
H18   H     H_    0.140865 0.924789 0.524091 0.128916
H19   H     H_    0.598346 0.544192 0.500688 0.128683
H20   H     H_    0.614717 0.472827 0.502551 0.201848
H21   H     H_    0.658025 0.191179 0.817006 0.150059
H22   H     H_    0.667498 0.804099 0.817198 0.160349
H23   H     H_    0.163452 0.696902 0.815509 0.147282
H24   H     H_    0.163826 0.302742 0.816228 0.163868
H25   H     H_    0.618749 0.145797 0.875424 0.186617
H26   H     H_    0.618959 0.849850 0.864723 0.190038
H27   H     H_    0.122466 0.649160 0.868753 0.181752
H28   H     H_    0.123648 0.351067 0.869692 0.185209
H29   H     H_    0.537974 0.217553 0.882975 0.224070
H30   H     H_    0.538795 0.776915 0.868709 0.222253
H31   H     H_    0.037545 0.718776 0.874487 0.215542
H32   H     H_    0.039443 0.282419 0.879003 0.221016
H33   H     H_    0.080976 0.763348 0.819215 0.161899
H34   H     H_    0.078860 0.237773 0.819282 0.158901
H35   H     H_    0.577534 0.259462 0.820168 0.158998
H36   H     H_    0.590670 0.734350 0.820546 0.158747
H37   H     H_    0.754015 0.130948 0.822269 0.079468
H38   H     H_    0.754073 0.869900 0.821543 0.118670
H39   H     H_    0.256400 0.633866 0.820911 0.081771
H40   H     H_    0.256328 0.366415 0.820798 0.115943
H41   H     H_    0.227936 0.817661 0.943677 0.230684
H42   H     H_    0.226729 0.183154 0.938948 0.185206
H43   H     H_    0.727067 0.313137 0.936317 0.195331
H44   H     H_    0.740638 0.684745 0.951827 0.202432
H45   H     H_    0.812669 0.166667 0.170438 0.158959
H46   H     H_    0.804559 0.836136 0.165137 0.156683
H47   H     H_    0.311454 0.667352 0.166610 0.156941
H48   H     H_    0.313365 0.332066 0.167572 0.140827
H49   H     H_    0.701970 0.136690 0.072893 0.192829
H50   H     H_    0.694301 0.864728 0.060497 0.192118
H51   H     H_    0.202935 0.636234 0.065407 0.188383
H52   H     H_    0.204025 0.362660 0.067055 0.192974
H53   H     H_    0.377107 0.741467 0.103237 0.149098
H54   H     H_    0.377592 0.257568 0.103212 0.147826
H55   H     H_    0.876937 0.237644 0.099241 0.144587
H56   H     H_    0.879793 0.765263 0.110988 0.148690
H57   H     H_    0.294090 0.815184 0.088380 0.180132
H58   H     H_    0.294296 0.183032 0.084018 0.181803
H59   H     H_    0.796461 0.313780 0.081405 0.184028
H60   H     H_    0.802341 0.688703 0.095940 0.182607
H61   H     H_    0.423827 0.908829 0.397702 0.194114
H62   H     H_    0.455187 0.078188 0.327616 0.181440
H63   H     H_    0.924200 0.408691 0.397310 0.195678
H64   H     H_    0.955416 0.578268 0.327958 0.180071
H65   H     H_    0.464833 0.924243 0.316714 0.152262
H66   H     H_    0.471347 0.021827 0.264294 0.161589
H67   H     H_    0.965125 0.424365 0.316339 0.153793
H68   H     H_    0.971265 0.522059 0.264047 0.164036
H69   H     H_    0.612108 0.920043 0.472386 0.071368
H70   H     H_    0.623907 0.008885 0.410149 0.082388
H71   H     H_    0.112428 0.420007 0.472084 0.073095
H72   H     H_    0.123939 0.508789 0.409652 0.079210
H73   H     H_    0.738204 0.911915 0.669350 0.142682
H74   H     H_    0.727067 0.087843 0.671136 0.134854
H75   H     H_    0.238414 0.411870 0.669444 0.142508
H76   H     H_    0.227224 0.587815 0.671006 0.132520
H77   H     H_    0.396795 0.990249 0.488735 0.172123
H78   H     H_    0.400441 0.060011 0.453715 0.166025
H79   H     H_    0.897413 0.489941 0.488988 0.171420
H80   H     H_    0.900674 0.559777 0.453998 0.164077
H81   H     H_    0.547301 0.002905 0.637327 0.182662
H82   H     H_    0.553441 0.067511 0.587931 0.158943
H83   H     H_    0.047873 0.502874 0.637364 0.178983
H84   H     H_    0.053730 0.567464 0.587644 0.157793
H85   H     H_    0.059427 0.088736 0.327344 0.093192
H86   H     H_    0.056697 0.912338 0.329663 0.093656
H87   H     H_    0.512326 0.587442 0.301474 0.088396
H88   H     H_    0.511494 0.412355 0.300083 0.101565
H89   H     H_    0.284208 0.910340 0.253315 0.101088
H90   H     H_    0.290803 0.087753 0.262226 0.100171
H91   H     H_    0.784343 0.410346 0.253845 0.103372
H92   H     H_    0.791102 0.587658 0.262843 0.094427
H93   H     H_    0.027377 0.088861 0.740677 0.092496
H94   H     H_    0.021396 0.911098 0.733194 0.100009
H95   H     H_    0.448451 0.588698 0.676342 0.081257
H96   H     H_    0.448517 0.410963 0.677531 0.097211
H97   H     H_    0.009687 0.834363 0.824603 0.089002
H98   H     H_    0.010317 0.165779 0.824883 0.093278
H99   H     H_    0.515680 0.335801 0.823936 0.095681
H100  H     H_    0.515429 0.664197 0.823836 0.090839
H101  H     H_    0.188603 0.164604 0.176323 0.157243
H102  H     H_    0.185763 0.834498 0.175710 0.163669
H103  H     H_    0.692365 0.664021 0.176157 0.157756
H104  H     H_    0.686576 0.334650 0.175542 0.168257
H105  H     H_    0.136300 0.079035 0.528528 0.171116
H106  H     H_    0.960757 0.932111 0.402674 0.150901
H107  H     H_    0.436778 0.589411 0.376261 0.152525
H108  H     H_    0.461300 0.409680 0.401887 0.186722
N1    N     N_R   0.950530 0.896220 0.057200 -0.032440
N2    N     N_R   0.950530 0.103780 0.057200 -0.035609
N3    N     N_R   0.450530 0.396220 0.057200 -0.034655
N4    N     N_R   0.450530 0.603780 0.057200 -0.035884
N5    N     N_R   0.893330 0.103780 0.942800 -0.033098
N6    N     N_R   0.893330 0.896220 0.942800 -0.035528
N7    N     N_R   0.393330 0.603780 0.942800 -0.036063
N8    N     N_R   0.393330 0.396220 0.942800 -0.037091
N9    N     N_R   0.818150 0.971400 0.792440 -0.051795
N10   N     N_R   0.818150 0.028600 0.792440 -0.050629
N11   N     N_R   0.318150 0.471400 0.792440 -0.051487
N12   N     N_R   0.318150 0.528600 0.792440 -0.051245
N13   N     N_R   0.025710 0.028600 0.207560 -0.036972
N14   N     N_R   0.025710 0.971400 0.207560 -0.037311
N15   N     N_R   0.525710 0.528600 0.207560 -0.039074
N16   N     N_R   0.525710 0.471400 0.207560 -0.038827
N17   N     N_R   0.181850 0.971400 0.207560 -0.041747
N18   N     N_R   0.181850 0.028600 0.207560 -0.040170
N19   N     N_R   0.681850 0.471400 0.207560 -0.043979
N20   N     N_R   0.681850 0.528600 0.207560 -0.043684
N21   N     N_R   0.974290 0.028600 0.792440 -0.038171
N22   N     N_R   0.974290 0.971400 0.792440 -0.044772
N23   N     N_R   0.474290 0.528600 0.792440 -0.034533
N24   N     N_R   0.474290 0.471400 0.792440 -0.033830
N25   N     N_R   0.049470 0.896220 0.942800 -0.042744
N26   N     N_R   0.049470 0.103780 0.942800 -0.043204
N27   N     N_R   0.549470 0.396220 0.942800 -0.041238
N28   N     N_R   0.549470 0.603780 0.942800 -0.041006
N29   N     N_R   0.106670 0.103780 0.057200 -0.043575
N30   N     N_R   0.106670 0.896220 0.057200 -0.052840
N31   N     N_R   0.606670 0.603780 0.057200 -0.050531
N32   N     N_R   0.606670 0.396220 0.057200 -0.053035
Ni1   Ni    Ni4+2 0.065600 0.934400 0.131190 0.229008
Ni2   Ni    Ni4+2 0.065600 0.065600 0.131190 0.219651
Ni3   Ni    Ni4+2 0.565600 0.434400 0.131190 0.231860
Ni4   Ni    Ni4+2 0.565600 0.565600 0.131190 0.227663
Ni5   Ni    Ni4+2 0.934400 0.065600 0.868810 0.227585
Ni6   Ni    Ni4+2 0.934400 0.934400 0.868810 0.215102
Ni7   Ni    Ni4+2 0.434400 0.565600 0.868810 0.230333
Ni8   Ni    Ni4+2 0.434400 0.434400 0.868810 0.219303
C113  C     C_2   0.234239 0.992181 0.758710 0.605365
H109  H     H_    0.242459 0.993899 0.835765 0.021682
O1    O     O_2   0.296267 0.011432 0.754955 -0.603325
C114  C     C_2   0.141747 0.906129 0.685451 0.397935
H110  H     H_    0.086024 0.879805 0.622912 0.030104
O2    O     O_2   0.200716 0.886128 0.775141 -0.611578
C115  C     C_2   0.614303 0.548114 0.673156 0.410386
H111  H     H_    0.594065 0.589579 0.640981 0.030183
O3    O     O_2   0.679818 0.542295 0.769512 -0.586775
C116  C     C_2   0.608830 0.445696 0.661545 0.547371
H112  H     H_    0.632262 0.442095 0.745759 0.061043
O4    O     O_2   0.618396 0.405843 0.619712 -0.616505
C117  C     C_2   0.336613 0.754041 0.940572 0.611753
H113  H     H_    0.282205 0.760631 0.854095 0.019220
O5    O     O_2   0.418698 0.755789 0.974209 -0.549350
C118  C     C_2   0.338954 0.246105 0.941214 0.587555
H114  H     H_    0.285239 0.241107 0.854102 -0.012677
O6    O     O_2   0.421388 0.242986 0.976478 -0.552797
C119  C     C_2   0.833471 0.247088 0.934735 0.580278
H115  H     H_    0.777950 0.251696 0.848028 0.010327
O7    O     O_2   0.915036 0.249081 0.966420 -0.597613
C120  C     C_2   0.846668 0.752040 0.951910 0.593784
H116  H     H_    0.795186 0.744643 0.865038 -0.009348
O8    O     O_2   0.929856 0.752174 0.989912 -0.553139
O9    O     O_3   0.616271 0.208655 0.091447 -0.715451
H117  H     H_    0.637949 0.186512 0.157636 0.338703
O10   O     O_3   0.603798 0.793327 0.071485 -0.710990
H118  H     H_    0.619344 0.817115 0.133519 0.334063
O11   O     O_3   0.110074 0.704422 0.080021 -0.716000
H119  H     H_    0.129999 0.680910 0.144070 0.337437
O12   O     O_3   0.115523 0.295154 0.086517 -0.734043
H120  H     H_    0.094837 0.266329 0.114451 0.354791
O13   O     O_3   0.250284 0.747480 0.199728 -0.807840
H121  H     H_    0.312123 0.756087 0.215518 0.289268
O14   O     O_3   0.256238 0.251059 0.201706 -0.812062
H122  H     H_    0.316766 0.241977 0.214347 0.291634
O15   O     O_3   0.759104 0.250518 0.202583 -0.809262
H123  H     H_    0.820024 0.257035 0.214515 0.291872
O16   O     O_3   0.746360 0.754140 0.197950 -0.814483
H124  H     H_    0.810046 0.747495 0.217438 0.286872
O17   O     O_3   0.571374 0.903180 0.571079 -0.768084
H125  H     H_    0.523525 0.914663 0.582160 0.331415
O18   O     O_3   0.627705 0.084418 0.469149 -0.751713
H126  H     H_    0.589905 0.107742 0.483552 0.317835
O19   O     O_3   0.071649 0.403096 0.570723 -0.767522
H127  H     H_    0.023855 0.414601 0.581879 0.331208
O20   O     O_3   0.128177 0.584311 0.468921 -0.757644
H128  H     H_    0.090575 0.607694 0.483538 0.316304

loop_
_geom_bond_atom_site_label_1
_geom_bond_atom_site_label_2
_ccdc_geom_bond_type
N25   N30   A    
C55   C59   S    
C15   C109  A    
C77   C101  A    
O12   H120  S    
C42   C58   S    
N27   N32   A    
C120  H116  S    
C42   C48   S    
N18   Ni2   S    
N15   Ni4   S    
C86   C88   S    
C83   O19   S    
C85   H77   S    
C30   H19   S    
C62   C70   S    
C1    N1    A    
C26   H14   S    
C21   H5    S    
C17   C61   S    
C19   C63   S    
C32   C104  S    
C79   C102  A    
C36   C97   A    
C78   H74   S    
C75   H67   S    
N30   Ni1   S    
C49   C117  S    
C78   C101  A    
N22   Ni6   S    
N6    Ni6   S    
C1    H1    S    
C73   C81   S    
C44   C46   S    
C47   H35   S    
N2    Ni2   S    
C23   H107  S    
C11   C20   A    
C24   H8    S    
C39   C113  S    
C94   N14   A    
C9    H101  S    
O17   H125  S    
C24   C32   S    
N9    N10   A    
N28   Ni7   S    
C110  N22   A    
C90   C92   S    
O18   H126  S    
C74   H66   S    
C51   C119  S    
N25   Ni6   S    
C79   N11   A    
C52   C58   S    
C24   H108  S    
C14   C107  A    
C46   C62   S    
C7    C19   A    
C96   C104  A    
N19   Ni3   S    
C116  O4    D    
C12   H104  S    
C53   C71   S    
N4    Ni4   S    
C22   H6    S    
C47   H29   S    
C111  N23   A    
C89   C101  S    
C35   N5    A    
C77   N9    A    
C6    N26   A    
C13   C106  A    
C92   H84   S    
C81   O17   S    
C84   O20   S    
C40   C116  S    
C56   H52   S    
C86   H80   S    
C42   H22   S    
C55   H51   S    
C70   O12   S    
C2    H2    S    
C36   H38   S    
N31   Ni4   S    
C46   H34   S    
C119  O7    D    
N16   Ni3   S    
C14   C88   S    
C40   C115  S    
C61   C65   S    
C112  N24   A    
C105  N17   A    
C25   H9    S    
C16   C111  A    
C68   H60   S    
C51   H55   S    
N24   Ni8   S    
C93   C103  A    
C41   H21   S    
C21   C31   S    
C82   C89   S    
C45   H33   S    
C64   C68   S    
C74   H62   S    
C23   H7    S    
C113  H109  S    
C91   H81   S    
C54   H46   S    
C7    N27   A    
N21   N22   A    
C90   C102  S    
C65   H41   S    
C16   C34   S    
C26   H10   S    
C29   H17   S    
C114  H110  S    
N12   Ni7   S    
C74   C87   S    
C89   C91   S    
N13   N14   A    
C43   C59   S    
N9    Ni6   S    
C21   H105  S    
N17   N18   A    
C59   C100  S    
C72   O10   S    
C84   C90   S    
C80   N12   A    
C80   H76   S    
N1    Ni1   S    
N20   Ni4   S    
C62   C66   S    
C48   H30   S    
C84   H72   S    
C18   C62   S    
C46   H32   S    
N2    N5    A    
C80   C102  A    
C10   N30   A    
C93   H85   S    
C71   O15   S    
C107  H91   S    
O13   H121  S    
C26   C33   S    
C105  H89   S    
N10   Ni5   S    
N15   N16   A    
C13   C87   S    
O11   H119  S    
C41   C47   S    
C51   C67   S    
C70   O14   S    
C109  H93   S    
C43   C45   S    
C55   C69   S    
N13   Ni2   S    
N32   Ni3   S    
C51   C57   S    
C114  O2    D    
C8    C20   A    
C106  N18   A    
C72   O16   S    
C111  H95   S    
C96   H88   S    
C21   C25   S    
C3    N3    A    
C24   C28   S    
C7    H99   S    
C115  H111  S    
C28   H12   S    
C5    H97   S    
C82   H70   S    
C120  O8    D    
C49   C59   S    
C50   C60   S    
N21   Ni5   S    
N26   Ni5   S    
C30   H20   S    
C14   C108  A    
C117  O5    D    
C3    C99   A    
C9    C18   A    
C118  H114  S    
C8    H100  S    
C37   C100  A    
C11   H103  S    
N26   N29   A    
C44   H24   S    
C42   H26   S    
N19   N20   A    
C76   C84   S    
N27   Ni8   S    
C95   C104  A    
N17   Ni1   S    
C39   C114  S    
C47   C63   S    
C48   C64   S    
C5    C17   A    
N23   N24   A    
C2    N2    A    
C67   H43   S    
C25   H13   S    
C73   C87   S    
C27   H15   S    
C50   H54   S    
C119  H115  S    
C35   C98   A    
C41   H25   S    
C81   C89   S    
C60   C99   S    
C55   H47   S    
C28   C34   S    
N29   Ni2   S    
C44   H28   S    
C15   C110  A    
C74   C82   S    
C75   H63   S    
O20   H128  S    
C76   H64   S    
C13   C105  A    
O14   H122  S    
C66   H42   S    
C53   C57   S    
C10   H102  S    
C93   N13   A    
C85   H78   S    
C107  N19   A    
N1    N6    A    
C56   C60   S    
C65   H57   S    
O16   H124  S    
C49   H53   S    
O9    H117  S    
O10   H118  S    
C109  N21   A    
N8    Ni8   S    
N23   Ni7   S    
C79   H75   S    
C94   C103  A    
C69   O13   S    
N4    N7    A    
C16   C112  A    
C36   N6    A    
C4    H4    S    
C5    N25   A    
C38   C99   A    
C76   H68   S    
C78   N10   A    
N11   Ni8   S    
C12   N32   A    
C56   H48   S    
C23   C32   S    
C41   C57   S    
C3    H3    S    
C115  O3    D    
C75   C83   S    
C44   C60   S    
C57   C98   S    
C12   C19   A    
C45   C61   S    
C37   N7    A    
C8    N28   A    
C108  H92   S    
O19   H127  S    
C22   C26   S    
C45   H31   S    
C116  H112  S    
C35   H37   S    
C28   H16   S    
C77   H73   S    
O15   H123  S    
C81   H69   S    
C92   H83   S    
C85   C91   S    
C86   H79   S    
C33   C39   S    
C49   C65   S    
C34   C40   S    
C10   C17   A    
C108  N20   A    
C43   H27   S    
C23   C27   S    
C76   C88   S    
C52   C68   S    
N28   N31   A    
N7    Ni7   S    
C73   H65   S    
C22   H106  S    
C58   C97   S    
C95   N15   A    
C37   H39   S    
C38   H40   S    
C85   C87   S    
C27   C34   S    
C6    C18   A    
C63   C67   S    
C22   C31   S    
C83   H71   S    
C112  H96   S    
C1    C97   A    
C113  O1    D    
C91   H82   S    
C27   H11   S    
N3    N8    A    
C67   H59   S    
C4    N4    A    
C11   N31   A    
C94   H86   S    
C31   C103  S    
C20   C64   S    
C9    N29   A    
C106  H90   S    
C29   H18   S    
C29   C39   S    
C117  H113  S    
C96   N16   A    
C30   C40   S    
C110  H94   S    
C54   H50   S    
C43   H23   S    
C50   C66   S    
N14   Ni1   S    
C118  O6    D    
C56   C70   S    
C4    C100  A    
C71   O9    S    
C50   C118  S    
C82   O18   S    
C38   N8    A    
C54   C58   S    
C61   C69   S    
C83   C90   S    
C66   H58   S    
C63   C71   S    
C68   H44   S    
C6    H98   S    
C53   H45   S    
N5    Ni5   S    
C29   C31   S    
C86   C92   S    
C52   H56   S    
C30   C32   S    
C53   H49   S    
C48   H36   S    
C69   O11   S    
C64   C72   S    
C73   H61   S    
C52   C120  S    
N3    Ni3   S    
C75   C88   S    
C54   C72   S    
C2    C98   A    
C95   H87   S    
C25   C33   S    
N11   N12   A    
C15   C33   S    
