data_mof_unit_19159.cif
_audit_creation_date              2012-12-10T17:21:07-0500
_audit_creation_method            fapswitch 2.2
_symmetry_space_group_name_H-M    P1
_symmetry_Int_Tables_number       1
_space_group_crystal_system       triclinic
_cell_length_a                    10.083719
_cell_length_b                    10.785299
_cell_length_c                    10.770726
_cell_angle_alpha                 89.813991
_cell_angle_beta                  95.153279
_cell_angle_gamma                 81.410912
_cell_volume                      1153.39629635

loop_
_atom_site_label
_atom_site_type_symbol
_atom_type_description
_atom_site_fract_x
_atom_site_fract_y
_atom_site_fract_z
_atom_type_partial_charge
Br1   Br    Br    0.220536 0.898101 0.356108 -0.495454
Br2   Br    Br    0.772853 0.450265 0.933639 -0.556534
Br3   Br    Br    0.119120 0.625943 0.705369 -0.494058
C1    C     C_R   0.443811 0.512591 0.266937 0.909554
C2    C     C_2   0.928749 0.496998 0.520819 -0.134607
C3    C     C_R   0.502506 0.256954 0.504725 0.953992
C4    C     C_R   0.556470 0.495622 0.733099 0.875027
C5    C     C_R   0.499320 0.742366 0.490802 0.982876
C6    C     C_3   0.659968 0.051092 0.480721 0.797933
C7    C     C_3   0.650975 0.908756 0.450473 0.738464
C8    C     C_3   0.474843 0.070773 0.629209 -0.589708
C9    C     C_3   0.404676 0.089584 0.392734 0.318574
C10   C     C_3   0.510522 0.118633 0.502937 -0.296713
C11   C     C_3   0.791382 0.161634 0.638069 -0.217360
C12   C     C_3   0.504424 0.878475 0.487190 -0.379357
C13   C     C_3   0.256515 0.940012 0.726756 -0.070311
C14   C     C_3   0.837518 0.097254 0.354482 -0.131578
C15   C     C_3   0.676071 0.774728 0.269587 -0.248877
C16   C     C_3   0.889098 0.829575 0.486910 -0.118733
C17   C     C_3   0.649837 0.833871 0.755136 -0.281403
C18   C     C_3   0.207864 0.208285 0.300166 -0.221217
C19   C     C_3   0.454970 0.931449 0.618367 0.949945
C20   C     C_3   0.402538 0.946622 0.380750 0.036151
C21   C     C_2   0.412070 0.533934 0.134627 -0.352330
C22   C     C_2   0.511401 0.554477 0.067293 -0.135212
C23   C     C_2   0.590251 0.506901 0.865310 0.091046
C24   C     C_2   0.491247 0.554652 0.933958 -0.178875
C25   C     C_2   0.071045 0.492409 0.489915 -0.006553
H1    H     H_    0.380986 0.129825 0.653817 0.236074
H2    H     H_    0.434381 0.919851 0.287776 0.140168
H3    H     H_    0.876443 0.136483 0.710685 0.176420
H4    H     H_    0.709504 0.215259 0.686693 0.174873
H5    H     H_    0.830028 0.218997 0.568120 0.208287
H6    H     H_    0.300034 0.006739 0.791230 0.121667
H7    H     H_    0.270572 0.845725 0.771957 0.210010
H8    H     H_    0.146661 0.972674 0.710098 0.155261
H9    H     H_    0.856675 0.032767 0.275990 0.191790
H10   H     H_    0.908213 0.066773 0.436790 0.168208
H11   H     H_    0.861357 0.188933 0.324049 0.147874
H12   H     H_    0.389184 0.584774 0.892183 0.205853
H13   H     H_    0.577420 0.740911 0.259128 0.149993
H14   H     H_    0.753751 0.706404 0.322515 0.210931
H15   H     H_    0.708417 0.779465 0.174182 0.182157
H16   H     H_    0.944632 0.887189 0.552021 0.213011
H17   H     H_    0.895660 0.855342 0.388810 0.169906
H18   H     H_    0.944175 0.734178 0.496814 0.180558
H19   H     H_    0.699627 0.914842 0.737555 0.228412
H20   H     H_    0.694754 0.747506 0.710073 0.242093
H21   H     H_    0.669306 0.814388 0.856834 0.193439
H22   H     H_    0.210245 0.141427 0.221633 0.172376
H23   H     H_    0.611828 0.560034 0.110469 0.212765
H24   H     H_    0.253969 0.291352 0.275364 0.148540
H25   H     H_    0.100651 0.240103 0.314177 0.158638
H26   H     H_    0.310962 0.529440 0.092135 0.174655
H27   H     H_    0.893103 0.546944 0.601321 0.235814
H28   H     H_    0.102733 0.439979 0.409515 0.119838
H29   H     H_    0.876302 0.405664 0.369607 0.162829
H30   H     H_    0.550463 0.084996 0.706641 0.179343
H31   H     H_    0.441395 0.123022 0.305230 0.084494
N1    N     N_2   0.157300 0.551950 0.551120 0.015215
N2    N     N_2   0.842730 0.448000 0.448950 -0.232022
O1    O     O_R   0.568940 0.489540 0.307530 -0.616242
O2    O     O_3   0.312271 0.932418 0.610219 -0.539458
O3    O     O_3   0.699252 0.112879 0.373891 -0.612291
O4    O     O_3   0.663958 0.897033 0.318424 -0.661405
O5    O     O_3   0.757067 0.827936 0.521567 -0.635240
O6    O     O_3   0.509660 0.854752 0.726121 -0.666319
O7    O     O_3   0.273489 0.151360 0.412055 -0.521860
O8    O     O_R   0.348880 0.522880 0.340350 -0.622624
O9    O     O_R   0.610030 0.298130 0.483570 -0.597163
O10   O     O_R   0.389960 0.331470 0.516390 -0.580483
O11   O     O_R   0.651120 0.477120 0.659650 -0.608219
O12   O     O_R   0.431060 0.510460 0.692470 -0.594451
O13   O     O_R   0.610040 0.668530 0.483610 -0.614847
O14   O     O_R   0.389970 0.701870 0.516430 -0.513758
O15   O     O_3   0.754503 0.048847 0.589912 -0.691937
Zn1   Zn    Zn3+2 0.646940 0.477740 0.478080 0.947202
Zn2   Zn    Zn3+2 0.353060 0.522260 0.521920 1.044943

loop_
_geom_bond_atom_site_label_1
_geom_bond_atom_site_label_2
_ccdc_geom_bond_type
O12   Zn2   S    
C16   H17   S    
H29   N2    S    
C17   H21   S    
C6    O15   S    
C22   C24   S    
C2    C25   S    
C8    C10   S    
C6    C7    S    
C11   H3    S    
O1    Zn1   S    
C22   H23   S    
C24   H12   S    
C14   H10   S    
C13   H6    S    
Br3   N1    S    
C11   H5    S    
C12   C20   S    
C25   H28   S    
C16   H18   S    
C2    N2    D    
C4    O12   A    
C14   H9    S    
C15   H15   S    
C16   H16   S    
C3    C10   S    
C18   H25   S    
C9    C10   S    
C9    O7    S    
C9    C20   S    
N1    Zn2   S    
O8    Zn2   S    
O11   Zn1   S    
C4    C23   S    
C8    C19   S    
C5    O13   A    
C1    O8    A    
C13   O2    S    
Br1   C20   S    
C5    C12   S    
C18   O7    S    
C7    C12   S    
C12   C19   S    
C13   H7    S    
C23   C24   D    
C3    O10   A    
C1    C21   S    
O14   Zn2   S    
C6    O3    S    
C19   O6    S    
C15   H13   S    
C17   H19   S    
C5    O14   A    
C21   H26   S    
C8    H30   S    
C20   H2    S    
C1    O1    A    
C18   H24   S    
C25   N1    D    
C21   C22   D    
C8    H1    S    
C16   O5    S    
Br2   C23   S    
C14   H11   S    
C7    O4    S    
N2    Zn1   S    
C4    O11   A    
C3    O9    A    
C6    C10   S    
C18   H22   S    
C14   O3    S    
C17   O6    S    
C15   H14   S    
C17   H20   S    
C19   O2    S    
C9    H31   S    
C15   O4    S    
C2    H27   S    
O10   Zn2   S    
C13   H8    S    
C7    O5    S    
C11   H4    S    
O9    Zn1   S    
O13   Zn1   S    
C11   O15   S    
