data_mof_unit_30934.cif
_audit_creation_date              2012-12-11T15:10:43-0500
_audit_creation_method            fapswitch 2.2
_symmetry_space_group_name_H-M    P1
_symmetry_Int_Tables_number       1
_space_group_crystal_system       triclinic
_cell_length_a                    21.167552
_cell_length_b                    7.237539
_cell_length_c                    18.273145
_cell_angle_alpha                 90.001359
_cell_angle_beta                  93.322222
_cell_angle_gamma                 89.999518
_cell_volume                      2794.75904263

loop_
_atom_site_label
_atom_site_type_symbol
_atom_type_description
_atom_site_fract_x
_atom_site_fract_y
_atom_site_fract_z
_atom_type_partial_charge
O1    O     O_R   0.448880 0.506250 0.415280 -0.522528
O2    O     O_R   0.551120 0.006250 0.584720 -0.522465
O3    O     O_R   0.434830 0.174000 0.557310 -0.529301
O4    O     O_R   0.565170 0.674000 0.442690 -0.529333
C1    C     C_R   0.417103 0.344550 0.579814 0.775534
C2    C     C_R   0.582897 0.844545 0.420186 0.775471
O5    O     O_R   0.441680 0.176440 0.414130 -0.539117
O6    O     O_R   0.558320 0.676440 0.585870 -0.539157
O7    O     O_R   0.558020 0.007570 0.440520 -0.516138
O8    O     O_R   0.441980 0.507570 0.559480 -0.516187
C3    C     C_R   0.427907 0.344857 0.388477 0.840511
C4    C     C_R   0.572094 0.844861 0.611521 0.840473
O9    O     O_3   0.538160 0.339670 0.508820 -0.372894
O10   O     O_3   0.461840 0.839670 0.491180 -0.372923
V1    V     V_3+5 0.492920 0.064260 0.498360 1.496994
V2    V     V_3+5 0.507080 0.564260 0.501640 1.496873
C5    C     C_R   0.878814 0.944887 0.686546 -0.158073
C6    C     C_R   0.121176 0.444597 0.313455 -0.158053
H1    H     H_    0.799743 0.945898 0.570008 0.155905
H2    H     H_    0.200235 0.445402 0.430003 0.155902
H3    H     H_    0.900686 0.959107 0.634628 0.115151
H4    H     H_    0.099296 0.458659 0.365376 0.115148
C7    C     C_R   0.888453 0.939428 0.819062 -0.081410
C8    C     C_R   0.111547 0.439428 0.180937 -0.081418
C9    C     C_R   0.582833 0.811982 0.744510 -0.301541
C10   C     C_R   0.417181 0.312131 0.255479 -0.301593
C11   C     C_R   0.617495 0.786712 0.810370 0.664832
C12   C     C_R   0.382530 0.286999 0.189602 0.664841
C13   C     C_R   0.683598 0.803053 0.814752 0.105495
C14   C     C_R   0.316427 0.303322 0.185213 0.105512
C15   C     C_R   0.716105 0.861857 0.752348 -0.056211
C16   C     C_R   0.283905 0.361927 0.247639 -0.056211
C17   C     C_R   0.679845 0.875468 0.683231 -0.099247
C18   C     C_R   0.320155 0.375396 0.316768 -0.099248
C19   C     C_R   0.783357 0.898261 0.754540 0.126724
C20   C     C_R   0.216648 0.398271 0.245453 0.126714
C21   C     C_R   0.813009 0.921627 0.687435 -0.005847
C22   C     C_R   0.186984 0.421428 0.312564 -0.005856
C23   C     C_R   0.777056 0.925221 0.621081 -0.240833
C24   C     C_R   0.222931 0.424888 0.378924 -0.240815
C25   C     C_R   0.711744 0.907935 0.618728 0.598497
C26   C     C_R   0.288244 0.407663 0.381280 0.598498
C27   C     C_R   0.822393 0.919203 0.820270 -0.205313
C28   C     C_R   0.177613 0.419327 0.179729 -0.205335
C29   C     C_R   0.916918 0.949954 0.751749 0.203375
C30   C     C_R   0.083075 0.449753 0.248251 0.203390
C31   C     C_R   0.612799 0.850077 0.680309 -0.167075
C32   C     C_R   0.387204 0.350077 0.319689 -0.167081
H5    H     H_    0.803098 0.929556 0.873250 0.154310
H6    H     H_    0.196908 0.429838 0.126754 0.154328
H7    H     H_    0.531994 0.792227 0.742889 0.149027
H8    H     H_    0.468022 0.292414 0.257099 0.149032
C33   C     C_1   0.864608 0.938933 0.132195 -0.187837
C34   C     C_1   0.135391 0.438918 0.867806 -0.187833
C35   C     C_1   0.821779 0.924868 0.175980 0.013999
C36   C     C_1   0.178221 0.424849 0.824021 0.013987
C37   C     C_1   0.771220 0.905728 0.228104 0.015574
C38   C     C_1   0.228780 0.405720 0.771896 0.015567
C39   C     C_1   0.728638 0.889080 0.272078 0.017316
C40   C     C_1   0.271363 0.389087 0.727922 0.017312
C41   C     C_1   0.678051 0.869946 0.324166 0.019603
C42   C     C_1   0.321950 0.369964 0.675833 0.019600
C43   C     C_1   0.635176 0.855893 0.367891 -0.142444
C44   C     C_1   0.364825 0.355907 0.632109 -0.142406
O11   O     O_R   0.058070 0.289240 0.940580 -0.514662
O12   O     O_R   0.941930 0.789240 0.059420 -0.514664
O13   O     O_R   0.058330 0.616740 0.085880 -0.526958
O14   O     O_R   0.941670 0.116740 0.914120 -0.526934
C45   C     C_R   0.071894 0.448569 0.111700 0.723452
C46   C     C_R   0.928107 0.948565 0.888299 0.723483
O15   O     O_R   0.065180 0.619040 0.942700 -0.526412
O16   O     O_R   0.934820 0.119040 0.057300 -0.526414
O17   O     O_R   0.948870 0.787780 0.915270 -0.534433
O18   O     O_R   0.051130 0.287780 0.084730 -0.534434
C47   C     C_R   0.083165 0.450320 0.920170 0.702739
C48   C     C_R   0.916834 0.950325 0.079830 0.702708
O19   O     O_3   0.961870 0.453310 0.991210 -0.366569
O20   O     O_3   0.038130 0.953310 0.008790 -0.366577
V3    V     V_3+5 0.007070 0.728770 0.001630 1.454017
V4    V     V_3+5 0.992930 0.228770 0.998370 1.454040
N1    N     N_3   0.984371 0.971143 0.750153 -0.670591
H9    H     H_    0.005127 0.847874 0.769274 0.220547
H10   H     H_    0.997572 0.988014 0.696298 0.227473
N2    N     N_3   0.015617 0.470822 0.249850 -0.670577
H11   H     H_    0.994883 0.347592 0.230650 0.220551
H12   H     H_    0.002406 0.487447 0.303714 0.227465
N3    N     N_3   0.716840 0.740197 0.880585 -0.672399
H13   H     H_    0.705254 0.601582 0.888860 0.267597
H14   H     H_    0.701331 0.816980 0.924598 0.266008
N4    N     N_3   0.283201 0.240656 0.119339 -0.672419
H15   H     H_    0.294793 0.102068 0.110995 0.267608
H16   H     H_    0.298713 0.317593 0.075370 0.266009
F1    F     F_    0.586664 0.735523 0.870255 -0.658620
F2    F     F_    0.413373 0.235992 0.129701 -0.658610
F3    F     F_    0.680544 0.920169 0.551957 -0.718082
F4    F     F_    0.319436 0.419746 0.448061 -0.718120

loop_
_geom_bond_atom_site_label_1
_geom_bond_atom_site_label_2
_ccdc_geom_bond_type
O14   V4    S    
C14   C16   A    
N3    H13   S    
C7    C29   A    
C11   C13   A    
O1    C3    A    
C14   N4    S    
O2    C4    A    
C2    O7    A    
O15   V3    S    
N1    H9    S    
C23   C25   A    
O5    C3    A    
O12   V3    S    
C26   F4    S    
C16   C20   A    
C12   F2    S    
C19   C21   A    
N2    H12   S    
H2    C24   S    
C37   C39   T    
C38   C40   T    
C7    C27   A    
C40   C42   S    
C41   C43   T    
C42   C44   T    
C18   C26   A    
C15   C17   A    
C19   C27   A    
C9    C31   A    
C10   C32   A    
O5    V1    S    
O6    V2    S    
O11   V4    S    
O18   V4    S    
C13   C15   A    
C7    C46   S    
C3    C32   S    
C4    C31   S    
C6    C30   A    
N1    H10   S    
C8    C45   S    
C33   C35   T    
C21   C23   A    
C34   C36   T    
C39   C41   S    
O13   V3    S    
N2    H11   S    
O4    C2    A    
O20   V3    S    
C27   H5    S    
C5    H3    S    
C1    C44   S    
O13   C45   A    
C16   C18   A    
C2    C43   S    
O4    V2    S    
C9    H7    S    
C10   H8    S    
N4    H16   S    
O6    C4    A    
O12   C48   A    
C46   O17   A    
O17   V3    S    
C45   O18   A    
O1    V2    S    
C5    C21   A    
O2    V1    S    
H1    C23   S    
C30   N2    S    
C35   C37   S    
C17   C31   A    
C15   C19   A    
C20   C28   A    
C33   C48   S    
C18   C32   A    
C20   C22   A    
O3    V1    S    
O19   V4    S    
C28   H6    S    
C6    H4    S    
C29   N1    S    
C5    C29   A    
O3    C1    A    
C9    C11   A    
C10   C12   A    
O11   C47   A    
C8    C30   A    
N3    H14   S    
C6    C22   A    
C17   C25   A    
C12   C14   A    
O16   V4    S    
O8    V2    S    
O15   C47   A    
N4    H15   S    
C25   F3    S    
C22   C24   A    
O16   C48   A    
C8    C28   A    
C24   C26   A    
C36   C38   S    
O7    V1    S    
C13   N3    S    
C11   F1    S    
C34   C47   S    
C1    O8    A    
O14   C46   A    
O9    V2    S    
O10   V1    S    
