data_mof_unit_42773.cif
_audit_creation_date              2012-12-10T17:22:41-0500
_audit_creation_method            fapswitch 2.2
_symmetry_space_group_name_H-M    P1
_symmetry_Int_Tables_number       1
_space_group_crystal_system       triclinic
_cell_length_a                    10.630401
_cell_length_b                    10.936583
_cell_length_c                    9.612159
_cell_angle_alpha                 90.411982
_cell_angle_beta                  89.983008
_cell_angle_gamma                 93.718386
_cell_volume                      1115.13076681

loop_
_atom_site_label
_atom_site_type_symbol
_atom_type_description
_atom_site_fract_x
_atom_site_fract_y
_atom_site_fract_z
_atom_type_partial_charge
C1    C     C_R   0.485299 0.262917 0.500214 0.808566
C2    C     C_3   0.959352 0.499028 0.367717 -0.099897
C3    C     C_3   0.035087 0.399381 0.436232 -0.229961
C4    C     C_3   0.122444 0.501169 0.501774 -0.050467
C5    C     C_R   0.430029 0.115658 0.758099 -0.135892
C6    C     C_R   0.466875 0.063702 0.882239 -0.116546
C7    C     C_R   0.536008 0.960371 0.877369 -0.075505
C8    C     C_R   0.552479 0.901219 0.750520 -0.132797
C9    C     C_R   0.502171 0.943939 0.626405 0.040294
C10   C     C_R   0.462449 0.063795 0.628613 0.098352
C11   C     C_R   0.464277 0.128856 0.502388 -0.186985
C12   C     C_R   0.259471 0.500267 0.500347 0.810419
C13   C     C_R   0.461839 0.063856 0.376862 -0.244377
C14   C     C_R   0.467358 0.937249 0.375296 0.372234
C15   C     C_R   0.494843 0.874720 0.499966 -0.204608
C16   C     C_R   0.678837 0.653241 0.146439 -0.098548
C17   C     C_R   0.773737 0.720301 0.076214 -0.196946
C18   C     C_R   0.778836 0.714835 0.933178 -0.182018
C19   C     C_R   0.687493 0.644265 0.860008 -0.155008
C20   C     C_R   0.591573 0.571272 0.926777 0.215470
C21   C     C_R   0.589466 0.573582 0.075968 0.237814
C22   C     C_R   0.413392 0.431294 0.073308 -0.032173
C23   C     C_R   0.501093 0.738855 0.500130 0.799762
C24   C     C_R   0.412395 0.432685 0.925594 -0.007619
C25   C     C_R   0.740400 0.500604 0.499783 0.786510
C26   C     C_3   0.038897 0.503449 0.631420 0.455573
C27   C     C_3   0.950309 0.401419 0.567300 -0.192674
C28   C     C_3   0.877119 0.501165 0.499005 -0.043061
C29   C     C_3   0.963727 0.603238 0.564520 -0.222529
C30   C     C_3   0.048632 0.600862 0.433516 -0.198305
Cu1   Cu    Cu3+1 0.499990 0.499990 0.640660 0.965144
Cu2   Cu    Cu3+1 0.500010 0.500010 0.359340 0.968923
H1    H     H_    0.907480 0.320217 0.622598 0.157030
H2    H     H_    0.576525 0.925471 0.971021 0.191300
H3    H     H_    0.613107 0.828792 0.747641 0.134921
H4    H     H_    0.342407 0.374789 0.127859 0.136847
H5    H     H_    0.678203 0.669583 0.255439 0.192133
H6    H     H_    0.841771 0.779243 0.133153 0.157914
H7    H     H_    0.850424 0.770197 0.877874 0.161530
H8    H     H_    0.691067 0.657882 0.751319 0.177267
H9    H     H_    0.339440 0.378834 0.870480 0.152708
H10   H     H_    0.931730 0.686224 0.617577 0.139024
H11   H     H_    0.091522 0.682293 0.378693 0.173513
H12   H     H_    0.923852 0.497394 0.259042 0.172547
H13   H     H_    0.066958 0.316134 0.383635 0.152100
H14   H     H_    0.454010 0.111436 0.279019 0.184748
H15   H     H_    0.376019 0.195591 0.764058 0.141929
H16   H     H_    0.447101 0.106732 0.980950 0.146565
N1    N     N_R   0.501210 0.501210 0.147910 -0.200401
N2    N     N_R   0.501250 0.501290 0.852040 -0.201390
O1    O     O_R   0.499990 0.319640 0.618810 -0.588530
O2    O     O_R   0.500000 0.319660 0.381240 -0.586444
O3    O     O_R   0.316850 0.499960 0.618770 -0.547434
O4    O     O_R   0.316860 0.499980 0.381190 -0.571071
O5    O     O_R   0.500000 0.680340 0.618760 -0.595371
O6    O     O_R   0.500010 0.680360 0.381190 -0.537079
O7    O     O_R   0.683140 0.500020 0.618810 -0.595038
O8    O     O_R   0.683150 0.500040 0.381230 -0.610610
Cl1   Cl    Cl    0.437777 0.865578 0.212516 -0.655962
Cl2   Cl    Cl    0.087391 0.507230 0.808955 -0.635889

loop_
_geom_bond_atom_site_label_1
_geom_bond_atom_site_label_2
_ccdc_geom_bond_type
C4    C26   S    
C18   H7    S    
C23   O5    A    
C16   C21   A    
C24   H9    S    
Cu1   O1    S    
C29   H10   S    
C4    C12   S    
C22   H4    S    
C9    C10   A    
Cu1   Cu2   S    
C1    C11   S    
Cu2   O8    S    
C16   H5    S    
C2    C30   S    
Cu1   O7    S    
C19   C20   A    
C15   C23   S    
C17   C18   A    
C9    C15   A    
C5    C10   A    
C12   O4    A    
C13   C14   A    
C27   H1    S    
C25   C28   S    
C14   Cl1   S    
C11   C13   A    
C26   C27   S    
C29   C30   S    
C6    H16   S    
C22   N1    A    
C19   H8    S    
C21   N1    A    
C3    C27   S    
C28   C29   S    
C5    H15   S    
C3    H13   S    
C2    C3    S    
C6    C7    A    
C17   H6    S    
C24   N2    A    
C5    C6    A    
Cu2   N1    S    
C1    O2    A    
C22   C24   A    
C30   H11   S    
Cu1   O3    S    
C7    C8    A    
C25   O8    A    
Cu1   N2    S    
C3    C4    S    
C25   O7    A    
C23   O6    A    
C7    H2    S    
C26   C29   S    
C20   N2    A    
C18   C19   A    
C10   C11   A    
Cu2   O4    S    
C27   C28   S    
C13   H14   S    
Cu2   O2    S    
C2    C28   S    
C1    O1    A    
Cu1   O5    S    
C20   C21   A    
C14   C15   A    
C26   Cl2   S    
Cu2   O6    S    
C4    C30   S    
C12   O3    A    
C16   C17   A    
C2    H12   S    
C8    C9    A    
C8    H3    S    
