data_mof_unit_58275.cif
_audit_creation_date              2013-03-05T15:40:10-0500
_audit_creation_method            fapswitch 2.2
_symmetry_space_group_name_H-M    P1
_symmetry_Int_Tables_number       1
_space_group_crystal_system       triclinic
_cell_length_a                    8.287988
_cell_length_b                    15.18767
_cell_length_c                    17.392036
_cell_angle_alpha                 95.787133
_cell_angle_beta                  94.997633
_cell_angle_gamma                 99.270291
_cell_volume                      2137.67965703

loop_
_atom_site_label
_atom_site_type_symbol
_atom_site_description
_atom_site_fract_x
_atom_site_fract_y
_atom_site_fract_z
_atom_type_partial_charge
P1    P     P_3+3 0.017890 0.428700 0.326140 0.421742
O1    O     O_2   0.849470 0.455720 0.314640 -0.382697
O2    O     O_3   0.110000 0.453900 0.408940 -0.428630
O3    O     O_3   0.647080 0.618870 0.362820 -0.373346
O4    O     O_2   0.730393 0.551589 0.227018 -0.384368
O5    O     O_3   0.966136 0.311505 0.314636 -0.599607
O6    O     O_3   0.686098 0.716211 0.232618 -0.527168
H1    H     H_    0.600286 0.777684 0.330195 0.045109
C1    C     C_3   0.685789 0.873956 0.253048 0.871683
H2    H     H_    0.816254 0.878400 0.277188 0.046121
P2    P     P_3+3 0.687140 0.705880 0.561850 0.488918
P3    P     P_3+3 0.119760 0.780519 0.404566 0.451446
O7    O     O_2   0.860230 0.719810 0.539220 -0.381177
O8    O     O_3   0.074870 0.664270 0.401430 -0.383500
O9    O     O_2   0.990478 0.821593 0.448839 -0.377340
O10   O     O_3   0.694672 0.720113 0.663614 -0.611692
O11   O     O_3   0.087883 0.808475 0.309790 -0.568836
C2    C     C_3   0.099931 0.733692 0.257293 0.418644
H3    H     H_    0.996720 0.678079 0.260282 0.182891
H4    H     H_    0.218228 0.709869 0.269943 0.016894
C3    C     C_3   0.089902 0.759285 0.174925 -0.916009
H5    H     H_    0.971659 0.782440 0.160546 0.293161
H6    H     H_    0.192971 0.813829 0.169049 0.240718
C4    C     C_3   0.338296 0.727611 0.743018 0.631335
H7    H     H_    0.440101 0.688939 0.750607 0.130631
C5    C     C_3   0.413305 0.821949 0.726967 0.104072
H8    H     H_    0.317136 0.864691 0.722624 0.148034
H9    H     H_    0.467225 0.818493 0.670817 0.109881
Ba1   Ba    Ba6+2 0.849890 0.543710 0.463630 1.592782
C6    C     C_3   0.078649 0.275525 0.270678 0.269142
H10   H     H_    0.206053 0.306731 0.293299 0.110911
H11   H     H_    0.054933 0.286907 0.208852 -0.047255
C7    C     C_3   0.057561 0.174741 0.275398 0.234189
H12   H     H_    0.928998 0.144677 0.252121 0.040640
H13   H     H_    0.144492 0.146268 0.238611 0.037387
C8    C     C_3   0.854560 0.733398 0.700858 0.933279
H14   H     H_    0.927119 0.686386 0.673558 0.057477
C9    C     C_3   0.937980 0.831424 0.703283 -0.852016
H15   H     H_    0.985335 0.843970 0.646988 0.211929
H16   H     H_    0.042905 0.847668 0.749270 0.263445
H17   H     H_    0.850001 0.877511 0.715733 0.285569
P4    P     P_3+3 0.171830 0.571380 0.673870 0.511655
O12   O     O_2   0.340240 0.544310 0.685400 -0.353236
O13   O     O_3   0.079710 0.546180 0.591070 -0.383903
O14   O     O_3   0.542640 0.381210 0.637190 -0.348169
O15   O     O_3   0.220872 0.689504 0.679630 -0.621011
P5    P     P_3+3 0.066570 0.217618 0.598748 0.480803
O16   O     O_3   0.602990 0.392320 0.460230 -0.382634
O17   O     O_3   0.114850 0.335810 0.598580 -0.408319
O18   O     O_2   0.194471 0.176177 0.553603 -0.362790
O19   O     O_3   0.106612 0.192890 0.693886 -0.519629
Ba2   Ba    Ba6+2 0.339940 0.456360 0.536380 1.611914
P6    P     P_3+3 0.613031 0.611093 0.260894 0.455940
C10   C     C_3   0.600197 0.780099 0.266418 0.174215
H18   H     H_    0.472296 0.767560 0.238026 0.035469
O20   O     O_3   0.586730 0.607760 0.539780 -0.349507
C11   C     C_3   0.550012 0.315050 0.293258 0.371594
H19   H     H_    0.530082 0.384473 0.311702 0.117494
H20   H     H_    0.679344 0.308262 0.305055 0.146838
C12   C     C_3   0.504851 0.294697 0.205855 -1.046175
H21   H     H_    0.376476 0.303653 0.189964 0.234945
H22   H     H_    0.587986 0.341393 0.175678 0.252444
H23   H     H_    0.518182 0.224609 0.186116 0.265109
P7    P     P_3+3 0.503261 0.278921 0.432005 0.486119
O21   O     O_2   0.329480 0.280220 0.460820 -0.289316
O22   O     O_3   0.454750 0.252202 0.331380 -0.576167
H24   H     H_    0.097333 0.700068 0.133232 0.242869
C13   C     C_3   0.056614 0.258993 0.744614 0.469961
H25   H     H_    0.137354 0.324977 0.744468 0.116889
H26   H     H_    0.926524 0.265293 0.728375 0.044119
C14   C     C_3   0.070964 0.233072 0.826770 -0.962779
H27   H     H_    0.200959 0.229536 0.845895 0.260434
H28   H     H_    0.028788 0.284048 0.867069 0.213902
H29   H     H_    0.993622 0.166624 0.828811 0.288055
P8    P     P_3+3 0.575322 0.390842 0.739383 0.482750
C15   C     C_3   0.523838 0.218133 0.709414 0.165249
H30   H     H_    0.643859 0.224722 0.684661 0.062076
O23   O     O_2   0.447303 0.443125 0.773228 -0.377065
O24   O     O_3   0.526694 0.285159 0.771479 -0.588510
H31   H     H_    0.425735 0.223052 0.663312 0.161033
C16   C     C_3   0.486421 0.126231 0.738798 0.734565
H32   H     H_    0.375732 0.123509 0.771413 0.048636
H33   H     H_    0.238698 0.553783 0.845750 0.177528
H34   H     H_    0.421645 0.580228 0.102994 0.169317
C17   C     C_R   0.297003 0.526412 0.276250 -0.470856
C18   C     C_R   0.137820 0.481652 0.251989 0.277875
C19   C     C_R   0.077931 0.473374 0.172289 -0.287420
C20   C     C_R   0.178965 0.509786 0.117453 0.067519
C21   C     C_R   0.341041 0.553183 0.143855 -0.252614
C22   C     C_R   0.399524 0.561066 0.223205 0.229433
C23   C     C_R   0.111715 0.524466 0.827216 -0.150246
C24   C     C_R   0.049334 0.521181 0.748230 0.248057
C25   C     C_R   0.785008 0.446165 0.777474 0.297113
C26   C     C_R   0.844695 0.451281 0.856440 -0.260328
C27   C     C_R   0.009035 0.490569 0.882350 0.072977
C28   C     C_1   0.069918 0.496789 0.965202 0.033490
C29   C     C_1   0.118748 0.502209 0.034413 0.003092
C30   C     C_R   0.887386 0.480881 0.724490 -0.423173
H35   H     H_    0.763983 0.424048 0.897187 0.147967
H36   H     H_    0.954456 0.438129 0.153161 0.153037
H37   H     H_    0.343763 0.531721 0.336909 0.173065
H38   H     H_    0.839630 0.477436 0.664126 0.184905
C31   C     C_R   0.754393 0.227155 0.526453 0.214617
C32   C     C_R   0.853612 0.168621 0.553572 0.132427
C33   C     C_R   0.793401 0.075999 0.541973 -0.300473
C34   C     C_R   0.635919 0.041520 0.500366 0.159921
C35   C     C_R   0.547913 0.104094 0.467086 -0.274750
C36   C     C_R   0.605951 0.196211 0.480849 0.150826
C37   C     C_R   0.398140 0.911230 0.458847 -0.226495
C38   C     C_R   0.329371 0.820382 0.451283 0.229315
C39   C     C_R   0.579346 0.786449 0.514480 0.285829
C40   C     C_R   0.650671 0.877604 0.520675 -0.268520
C41   C     C_R   0.562392 0.942409 0.492178 0.183832
C42   C     C_R   0.420135 0.758190 0.478645 -0.426396
H39   H     H_    0.318823 0.955495 0.438798 0.125046
H40   H     H_    0.871699 0.033169 0.565744 0.170680
H41   H     H_    0.773947 0.895910 0.549014 0.146472
H42   H     H_    0.435316 0.083861 0.429385 0.153034
H43   H     H_    0.365160 0.687997 0.474073 0.177996
Cl1   Cl    Cl    0.570095 0.874529 0.801863 -0.517716
O25   O     O_3   0.090713 0.159177 0.353444 -0.551362
C43   C     C_3   0.054914 0.066286 0.359123 -0.151300
H44   H     H_    0.125658 0.027705 0.320463 0.109220
H45   H     H_    0.920901 0.040969 0.346122 0.154644
H46   H     H_    0.090669 0.054695 0.419727 0.182782
Cl2   Cl    Cl    0.836637 0.706900 0.797588 -0.556613
O26   O     O_3   0.623461 0.944009 0.295384 -0.688603
C44   C     C_3   0.460205 0.948829 0.267570 -0.305540
H47   H     H_    0.373338 0.894801 0.287607 0.159982
H48   H     H_    0.441159 0.947074 0.203378 0.194766
H49   H     H_    0.430907 0.013696 0.292677 0.184007
O27   O     O_3   0.677112 0.881472 0.172159 -0.611216
C45   C     C_3   0.787774 0.957324 0.157668 -0.199235
H50   H     H_    0.916476 0.954438 0.180175 0.110361
H51   H     H_    0.750162 0.020260 0.182455 0.145645
H52   H     H_    0.784496 0.958618 0.093909 0.192661
Cl3   Cl    Cl    0.431339 0.041397 0.658237 -0.680765
O28   O     O_3   0.628006 0.108564 0.782275 -0.582830
C46   C     C_3   0.610581 0.118213 0.862514 -0.115968
H53   H     H_    0.508463 0.067072 0.876370 0.169276
H54   H     H_    0.590659 0.187052 0.882967 0.119317
H55   H     H_    0.725717 0.107093 0.894760 0.168959
O29   O     O_3   0.808470 0.317099 0.541326 -0.666352
C47   C     C_3   0.904354 0.341450 0.482013 0.180465
H56   H     H_    0.830200 0.343214 0.427371 0.104917
H57   H     H_    0.994306 0.296806 0.467460 0.130774
H58   H     H_    0.971617 0.408040 0.504581 0.219977
Cl4   Cl    Cl    0.243705 0.737039 0.831268 -0.594609

loop_
_geom_bond_atom_site_label_1
_geom_bond_atom_site_label_2
_geom_bond_distance
_ccdc_geom_bond_type
C6    H11   1.111913 S    
C19   C20   1.418759 A    
C25   C26   1.408767 A    
O3    P6    1.759521 S    
C2    C3    1.520575 S    
P2    O7    1.508321 D    
C33   H40   1.076411 S    
C39   C40   1.404580 A    
Ba2   O21   2.843840 S    
C15   O24   1.402930 S    
C11   O22   1.396448 S    
C44   H47   1.106407 S    
P3    C38   1.833242 S    
C16   H32   1.117248 S    
C24   C30   1.390850 A    
P5    O17   1.775441 S    
C17   C18   1.391740 A    
C16   Cl3   1.779492 S    
C5    H8    1.108374 S    
C1    O26   1.423491 S    
O1    Ba1   2.792666 S    
O7    Ba1   2.843650 S    
C8    H14   1.103000 S    
C5    Cl1   1.784396 S    
P1    O1    1.519640 D    
C6    H10   1.105967 S    
C46   H55   1.109687 S    
O12   Ba2   2.793047 S    
C11   H20   1.096934 S    
C34   C35   1.425097 A    
O29   C47   1.399122 S    
C12   H22   1.110775 S    
C2    H3    1.109798 S    
P4    O15   1.765077 S    
O2    Ba1   2.907861 S    
C40   C41   1.420173 A    
C27   C28   1.473245 S    
C13   H25   1.112133 S    
P3    O11   1.751721 S    
C45   H52   1.109097 S    
C35   C36   1.393398 A    
C31   C36   1.389997 A    
C1    H2    1.114307 S    
C38   C42   1.393454 A    
C35   H42   1.074991 S    
C2    H4    1.110559 S    
O3    Ba1   2.776827 S    
C37   C41   1.418778 A    
O13   Ba2   2.908787 S    
C3    H5    1.110258 S    
C3    H24   1.110206 S    
C7    O25   1.412265 S    
P4    O13   1.551230 S    
C47   H58   1.089876 S    
C32   C33   1.402717 A    
P7    C36   1.859485 S    
P5    O18   1.548103 D    
C16   O28   1.417223 S    
C34   C41   1.517756 S    
P2    C39   1.844324 S    
P1    O5    1.749113 S    
C9    H15   1.108805 S    
C15   H30   1.111781 S    
C9    H17   1.109011 S    
C47   H57   1.113874 S    
C4    Cl4   1.786721 S    
H1    C10   1.113436 S    
C23   C24   1.418104 A    
C14   H28   1.110524 S    
C18   C19   1.417209 A    
O27   C45   1.410770 S    
C11   C12   1.521585 S    
P5    O19   1.748949 S    
Ba1   O16   2.813021 S    
O14   Ba2   2.776181 S    
C30   H38   1.082322 S    
C31   O29   1.358358 S    
C12   H21   1.109008 S    
P1    O2    1.551200 S    
P7    O22   1.752347 S    
P2    O10   1.755670 S    
P3    O9    1.546734 D    
C17   C22   1.393022 A    
O17   Ba2   2.766441 S    
C28   C29   1.226334 T    
P1    Ba1   3.350994 S    
C7    H12   1.112895 S    
C4    H7    1.109142 S    
O25   C43   1.409434 S    
O5    C6    1.398853 S    
P3    O8    1.738960 S    
C3    H6    1.109361 S    
Ba1   O13   2.786887 S    
C45   H50   1.112984 S    
C12   H23   1.110844 S    
P4    O12   1.519930 D    
O6    P6    1.748173 S    
O8    Ba1   2.765984 S    
C43   H45   1.110742 S    
O26   C44   1.412495 S    
C44   H49   1.108606 S    
P6    C22   1.844595 S    
C17   H37   1.082239 S    
P8    C25   1.838958 S    
C19   H36   1.082934 S    
C1    O27   1.419428 S    
O4    P6    1.544563 D    
P1    C18   1.863564 S    
C10   H18   1.108421 S    
P5    C32   1.871795 S    
C6    C7    1.523777 S    
C8    Cl2   1.781881 S    
C15   H31   1.107990 S    
C4    C5    1.530094 S    
C47   H56   1.090984 S    
C44   H48   1.110859 S    
C15   C16   1.528908 S    
C14   H29   1.110579 S    
C46   H53   1.113182 S    
Ba1   O20   2.895586 S    
H33   C23   1.082004 S    
C33   C34   1.428372 A    
C5    H9    1.108786 S    
O11   C2    1.406024 S    
O14   P8    1.762000 S    
C4    O15   1.414367 S    
P7    O21   1.568089 D    
C43   H46   1.108869 S    
C8    C9    1.531956 S    
C21   C22   1.409004 A    
C20   C29   1.473272 S    
C14   H27   1.110905 S    
C37   C38   1.393871 A    
O2    Ba2   2.787523 S    
C9    H16   1.107563 S    
C46   H54   1.112519 S    
C11   H19   1.113109 S    
C40   H41   1.075744 S    
C42   H43   1.081905 S    
C26   H35   1.083216 S    
C13   C14   1.519755 S    
C7    H13   1.113697 S    
C39   C42   1.390732 A    
P4    C24   1.860852 S    
O19   C13   1.406114 S    
C26   C27   1.411120 A    
P8    O23   1.545568 D    
O16   P7    1.786199 S    
O28   C46   1.410856 S    
C37   H39   1.074904 S    
C23   C27   1.417500 A    
O16   Ba2   2.894752 S    
C20   C21   1.412774 A    
P2    Ba1   3.380415 S    
C13   H26   1.112220 S    
H34   C21   1.083147 S    
C31   C32   1.393365 A    
C45   H51   1.110392 S    
C1    C10   1.535932 S    
O6    C10   1.405135 S    
C43   H44   1.113155 S    
P8    O24   1.749795 S    
C25   C30   1.391843 A    
O10   C8    1.397942 S    
P2    O20   1.577993 S    
Ba2   O20   2.812585 S    
P4    Ba2   3.351582 S    
Ba1   Ba2   4.586508 S    
