data_mof_unit_51757.cif
_audit_creation_date              2012-12-10T16:38:07-0500
_audit_creation_method            fapswitch 2.2
_symmetry_space_group_name_H-M    P1
_symmetry_Int_Tables_number       1
_space_group_crystal_system       triclinic
_cell_length_a                    28.141777
_cell_length_b                    18.722349
_cell_length_c                    16.850212
_cell_angle_alpha                 90.091386
_cell_angle_beta                  60.883107
_cell_angle_gamma                 90.093471
_cell_volume                      7756.10004803

loop_
_atom_site_label
_atom_site_type_symbol
_atom_type_description
_atom_site_fract_x
_atom_site_fract_y
_atom_site_fract_z
_atom_type_partial_charge
Br1   Br    Br    0.155152 0.324018 0.365053 -0.470538
Br2   Br    Br    0.198988 0.914922 0.180334 -0.555176
Br3   Br    Br    0.166758 0.115537 0.233719 -0.539553
Br4   Br    Br    0.801878 0.914163 0.819939 -0.558411
Br5   Br    Br    0.336619 0.622521 0.761717 -0.504516
Br6   Br    Br    0.698988 0.414923 0.180334 -0.555175
Br7   Br    Br    0.666758 0.615537 0.233719 -0.539553
Br8   Br    Br    0.301878 0.414163 0.819939 -0.558411
Br9   Br    Br    0.840961 0.672866 0.640499 -0.512364
Br10  Br    Br    0.835502 0.328582 0.646117 -0.435140
Br11  Br    Br    0.163440 0.669038 0.354309 -0.512452
Br12  Br    Br    0.655152 0.824018 0.365053 -0.470539
Br13  Br    Br    0.340961 0.172866 0.640499 -0.512363
Br14  Br    Br    0.335502 0.828582 0.646116 -0.435140
Br15  Br    Br    0.663440 0.169038 0.354309 -0.512452
Br16  Br    Br    0.836619 0.122521 0.761717 -0.504516
C1    C     C_R   0.700373 0.265102 0.677399 0.906840
C2    C     C_R   0.099867 0.499689 0.497617 0.004539
C3    C     C_R   0.199328 0.202470 0.898163 0.084152
C4    C     C_R   0.615870 0.328836 0.051636 -0.199828
C5    C     C_R   0.336520 0.597174 0.009845 -0.168141
C6    C     C_R   0.384890 0.327819 0.947882 -0.199769
C7    C     C_R   0.664574 0.595529 0.987690 -0.170614
C8    C     C_R   0.115870 0.828836 0.051636 -0.199827
C9    C     C_R   0.836520 0.097174 0.009845 -0.168141
C10   C     C_R   0.884890 0.827819 0.947882 -0.199769
C11   C     C_R   0.164574 0.095529 0.987690 -0.170613
C12   C     C_R   0.646224 0.314941 0.094928 -0.151698
C13   C     C_R   0.399520 0.000334 0.503748 0.004600
C14   C     C_R   0.306632 0.611945 0.965938 -0.127095
C15   C     C_R   0.354645 0.313812 0.904399 -0.149413
C16   C     C_R   0.695134 0.609547 0.030684 -0.124601
C17   C     C_R   0.146224 0.814941 0.094929 -0.151699
C18   C     C_R   0.806632 0.111945 0.965938 -0.127095
C19   C     C_R   0.854645 0.813812 0.904399 -0.149413
C20   C     C_R   0.195134 0.109547 0.030684 -0.124600
C21   C     C_R   0.739287 0.188283 0.795712 -0.173374
C22   C     C_R   0.261083 0.804982 0.199180 -0.170996
C23   C     C_R   0.261400 0.187161 0.203368 -0.173960
C24   C     C_R   0.599867 0.999689 0.497617 0.004539
C25   C     C_R   0.739485 0.804413 0.800742 -0.165735
C26   C     C_R   0.239287 0.688283 0.795712 -0.173374
C27   C     C_R   0.761083 0.304982 0.199180 -0.170995
C28   C     C_R   0.761400 0.687161 0.203368 -0.173960
C29   C     C_R   0.239485 0.304413 0.800742 -0.165735
C30   C     C_R   0.768838 0.170339 0.839508 0.272323
C31   C     C_R   0.230818 0.820952 0.155633 0.238421
C32   C     C_R   0.232786 0.167623 0.158309 0.270722
C33   C     C_R   0.769921 0.820129 0.844130 0.241478
C34   C     C_R   0.268838 0.670339 0.839508 0.272323
C35   C     C_R   0.105139 0.372909 0.475409 0.263618
C36   C     C_R   0.730818 0.320952 0.155633 0.238421
C37   C     C_R   0.732786 0.667623 0.158309 0.270722
C38   C     C_R   0.269921 0.320129 0.844130 0.241478
C39   C     C_R   0.079879 0.090776 0.928231 0.937707
C40   C     C_R   0.927391 0.897952 0.064009 0.891751
C41   C     C_R   0.920192 0.090916 0.071687 0.937358
C42   C     C_R   0.072690 0.898030 0.935874 0.890473
C43   C     C_R   0.579879 0.590776 0.928231 0.937707
C44   C     C_R   0.427391 0.397952 0.064009 0.891751
C45   C     C_R   0.420192 0.590916 0.071687 0.937359
C46   C     C_R   0.892954 0.626574 0.529581 0.255030
C47   C     C_R   0.572690 0.398030 0.935874 0.890473
C48   C     C_R   0.555166 0.129465 0.481951 -0.078239
C49   C     C_R   0.443837 0.870761 0.520824 -0.054444
C50   C     C_R   0.447500 0.130208 0.510406 -0.077101
C51   C     C_R   0.550530 0.869986 0.495663 -0.056742
C52   C     C_R   0.055166 0.629465 0.481951 -0.078238
C53   C     C_R   0.943837 0.370761 0.520825 -0.054445
C54   C     C_R   0.947500 0.630208 0.510406 -0.077101
C55   C     C_R   0.050530 0.369986 0.495664 -0.056742
C56   C     C_R   0.529529 0.195370 0.484668 0.188680
C57   C     C_R   0.889759 0.375249 0.537532 0.295098
C58   C     C_R   0.468434 0.804980 0.522168 0.203966
C59   C     C_R   0.474532 0.195811 0.503693 0.188101
C60   C     C_R   0.522285 0.804565 0.508735 0.144947
C61   C     C_R   0.029529 0.695369 0.484668 0.188678
C62   C     C_R   0.968433 0.304980 0.522168 0.203965
C63   C     C_R   0.974532 0.695811 0.503693 0.188103
C64   C     C_R   0.022285 0.304565 0.508736 0.144947
C65   C     C_R   0.474729 0.065414 0.501870 -0.007901
C66   C     C_R   0.524451 0.934786 0.499881 -0.007587
C67   C     C_R   0.526559 0.065160 0.493957 -0.012362
C68   C     C_R   0.109293 0.624977 0.464993 0.257298
C69   C     C_R   0.472820 0.934977 0.507212 -0.030060
C70   C     C_R   0.974729 0.565414 0.501870 -0.007900
C71   C     C_R   0.024451 0.434786 0.499881 -0.007587
C72   C     C_R   0.026559 0.565160 0.493957 -0.012362
C73   C     C_R   0.972820 0.434977 0.507212 -0.030060
C74   C     C_R   0.948607 0.500269 0.506160 0.025556
C75   C     C_R   0.050901 0.499833 0.494600 0.026563
C76   C     C_R   0.448607 0.000269 0.506160 0.025556
C77   C     C_R   0.550901 0.999833 0.494600 0.026563
C78   C     C_R   0.873278 0.436198 0.507308 -0.048168
C79   C     C_R   0.605139 0.872909 0.475408 0.263618
C80   C     C_R   0.125978 0.563844 0.494497 -0.016452
C81   C     C_R   0.124592 0.435243 0.498130 -0.040257
C82   C     C_R   0.874612 0.564688 0.503883 -0.027054
C83   C     C_R   0.373278 0.936198 0.507308 -0.048168
C84   C     C_R   0.625978 0.063845 0.494497 -0.016452
C85   C     C_R   0.624592 0.935243 0.498130 -0.040257
C86   C     C_R   0.374612 0.064688 0.503883 -0.027055
C87   C     C_R   0.832749 0.436351 0.479270 -0.161219
C88   C     C_R   0.166845 0.563650 0.521802 -0.162761
C89   C     C_R   0.166461 0.436142 0.523188 -0.131601
C90   C     C_R   0.392953 0.126574 0.529581 0.255030
C91   C     C_R   0.833128 0.563843 0.477939 -0.130973
C92   C     C_R   0.332749 0.936351 0.479270 -0.161219
C93   C     C_R   0.666845 0.063650 0.521802 -0.162761
C94   C     C_R   0.666461 0.936142 0.523188 -0.131601
C95   C     C_R   0.333129 0.063842 0.477939 -0.130973
C96   C     C_R   0.818952 0.499886 0.452271 0.096411
C97   C     C_R   0.180894 0.500118 0.548385 0.094928
C98   C     C_R   0.318952 0.999886 0.452271 0.096411
C99   C     C_R   0.680894 0.000118 0.548385 0.094928
C100  C     C_3   0.063774 0.188361 0.446569 -0.638111
C101  C     C_R   0.389759 0.875249 0.537531 0.295098
C102  C     C_3   0.937327 0.808427 0.585424 -0.648188
C103  C     C_3   0.934846 0.212535 0.460533 -0.685129
C104  C     C_3   0.069115 0.804962 0.397046 -0.649204
C105  C     C_3   0.563774 0.688362 0.446568 -0.638111
C106  C     C_3   0.437326 0.308426 0.585426 -0.648189
C107  C     C_3   0.434847 0.712535 0.460532 -0.685131
C108  C     C_3   0.569115 0.304962 0.397047 -0.649204
C109  C     C_3   0.745057 0.500702 0.410587 -0.578944
C110  C     C_3   0.255347 0.499287 0.588772 -0.581006
C111  C     C_3   0.245057 0.000702 0.410587 -0.578943
C112  C     C_R   0.299543 0.734708 0.322773 0.906868
C113  C     C_R   0.609293 0.124977 0.464993 0.257298
C114  C     C_3   0.755347 0.999287 0.588772 -0.581006
C115  C     C_R   0.711098 0.248948 0.964343 -0.013997
C116  C     C_R   0.270731 0.718669 0.055910 -0.007845
C117  C     C_R   0.289819 0.247462 0.034590 -0.015520
C118  C     C_R   0.730297 0.717233 0.942784 -0.009472
C119  C     C_R   0.211098 0.748948 0.964343 -0.013997
C120  C     C_R   0.770731 0.218669 0.055910 -0.007845
C121  C     C_R   0.789819 0.747462 0.034590 -0.015520
C122  C     C_R   0.230297 0.217233 0.942784 -0.009473
C123  C     C_R   0.753588 0.197827 0.927379 -0.027144
C124  C     C_R   0.299609 0.265135 0.322535 0.910494
C125  C     C_R   0.231899 0.774374 0.087835 -0.006122
C126  C     C_R   0.247808 0.195552 0.070732 -0.023547
C127  C     C_R   0.768989 0.773187 0.911358 -0.006555
C128  C     C_R   0.253588 0.697827 0.927379 -0.027144
C129  C     C_R   0.731900 0.274374 0.087834 -0.006122
C130  C     C_R   0.747808 0.695552 0.070732 -0.023547
C131  C     C_R   0.268989 0.273187 0.911358 -0.006555
C132  C     C_R   0.778182 0.176572 0.980551 0.069242
C133  C     C_R   0.197119 0.781663 0.048841 0.093779
C134  C     C_R   0.223291 0.174411 0.017225 0.069282
C135  C     C_R   0.700485 0.734668 0.677267 0.909926
C136  C     C_R   0.803772 0.780386 0.950317 0.093150
C137  C     C_R   0.278182 0.676572 0.980551 0.069241
C138  C     C_R   0.697119 0.281663 0.048841 0.093779
C139  C     C_R   0.723291 0.674411 0.017225 0.069282
C140  C     C_R   0.303772 0.280386 0.950317 0.093150
C141  C     C_R   0.636530 0.313649 0.958298 0.082469
C142  C     C_R   0.338152 0.645873 0.072264 0.069559
C143  C     C_R   0.363977 0.312893 0.041292 0.082265
C144  C     C_R   0.662504 0.644916 0.926548 0.068440
C145  C     C_R   0.136530 0.813649 0.958298 0.082469
C146  C     C_R   0.200373 0.765102 0.677399 0.906840
C147  C     C_R   0.838152 0.145873 0.072264 0.069559
C148  C     C_R   0.863977 0.812893 0.041292 0.082265
C149  C     C_R   0.162504 0.144916 0.926548 0.068440
C150  C     C_R   0.612653 0.340047 0.905485 -0.124945
C151  C     C_R   0.373307 0.637512 0.110579 -0.131570
C152  C     C_R   0.387536 0.339817 0.094367 -0.125477
C153  C     C_R   0.626915 0.637162 0.889036 -0.132736
C154  C     C_R   0.112653 0.840047 0.905485 -0.124945
C155  C     C_R   0.873307 0.137512 0.110579 -0.131570
C156  C     C_R   0.887536 0.839817 0.094367 -0.125477
C157  C     C_R   0.799543 0.234708 0.322773 0.906868
C158  C     C_R   0.126915 0.137162 0.889036 -0.132736
C159  C     C_R   0.631710 0.317193 0.817459 -0.303590
C160  C     C_R   0.364210 0.675204 0.186676 -0.293357
C161  C     C_R   0.368235 0.317386 0.182575 -0.304038
C162  C     C_R   0.635806 0.675163 0.813350 -0.292376
C163  C     C_R   0.131710 0.817192 0.817459 -0.303590
C164  C     C_R   0.864210 0.175204 0.186676 -0.293357
C165  C     C_R   0.868235 0.817386 0.182575 -0.304038
C166  C     C_R   0.135806 0.175163 0.813350 -0.292376
C167  C     C_R   0.675384 0.271312 0.776830 -0.099209
C168  C     C_R   0.799609 0.765135 0.322535 0.910494
C169  C     C_R   0.321663 0.722407 0.225426 -0.106109
C170  C     C_R   0.324636 0.271276 0.223060 -0.096797
C171  C     C_R   0.678512 0.722219 0.774510 -0.104771
C172  C     C_R   0.175384 0.771312 0.776830 -0.099209
C173  C     C_R   0.821663 0.222407 0.225426 -0.106109
C174  C     C_R   0.824636 0.771276 0.223060 -0.096797
C175  C     C_R   0.178512 0.222219 0.774510 -0.104771
C176  C     C_R   0.698938 0.241806 0.828848 0.035123
C177  C     C_R   0.294339 0.744084 0.176348 0.054873
C178  C     C_R   0.301393 0.241213 0.170702 0.035327
C179  C     C_R   0.200485 0.234668 0.677267 0.909926
C180  C     C_R   0.706157 0.743514 0.823291 0.051703
C181  C     C_R   0.198938 0.741806 0.828848 0.035123
C182  C     C_R   0.794339 0.244084 0.176348 0.054873
C183  C     C_R   0.801393 0.741213 0.170702 0.035327
C184  C     C_R   0.206157 0.243514 0.823291 0.051703
C185  C     C_R   0.694302 0.128476 0.524104 0.934836
C186  C     C_R   0.305586 0.871528 0.476229 0.929150
C187  C     C_R   0.305855 0.128510 0.475226 0.955257
C188  C     C_R   0.694007 0.871472 0.525200 0.952703
C189  C     C_R   0.194302 0.628476 0.524104 0.934835
C190  C     C_R   0.899520 0.500334 0.503748 0.004599
C191  C     C_R   0.805586 0.371528 0.476229 0.929150
C192  C     C_R   0.805855 0.628510 0.475226 0.955257
C193  C     C_R   0.194007 0.371472 0.525200 0.952703
C194  C     C_R   0.682250 0.268118 0.917006 0.074426
C195  C     C_R   0.301415 0.703464 0.100877 0.085632
C196  C     C_R   0.318335 0.267149 0.082362 0.073151
C197  C     C_R   0.699328 0.702470 0.898163 0.084152
C198  C     C_R   0.182250 0.768118 0.917006 0.074426
C199  C     C_R   0.801415 0.203464 0.100877 0.085632
C200  C     C_R   0.818335 0.767150 0.082362 0.073151
H1    H     H_    0.614278 0.339283 0.777874 0.190874
H2    H     H_    0.356344 0.545764 0.996687 0.184087
H3    H     H_    0.425201 0.348613 0.905377 0.177185
H4    H     H_    0.644609 0.544169 0.000317 0.183589
H5    H     H_    0.075603 0.849593 0.094344 0.177665
H6    H     H_    0.856344 0.045764 0.996687 0.184087
H7    H     H_    0.925200 0.848613 0.905377 0.177185
H8    H     H_    0.144609 0.044169 0.000317 0.183589
H9    H     H_    0.628020 0.327132 0.166523 0.182964
H10   H     H_    0.303926 0.570326 0.924026 0.218042
H11   H     H_    0.372882 0.326038 0.832831 0.184719
H12   H     H_    0.388261 0.664053 0.219668 0.189772
H13   H     H_    0.698581 0.567195 0.070802 0.221455
H14   H     H_    0.128020 0.827131 0.166523 0.182964
H15   H     H_    0.803926 0.070326 0.924026 0.218042
H16   H     H_    0.872882 0.826038 0.832831 0.184719
H17   H     H_    0.198581 0.067196 0.070802 0.221455
H18   H     H_    0.749346 0.158674 0.734750 0.191829
H19   H     H_    0.260550 0.843111 0.247915 0.178650
H20   H     H_    0.251222 0.158023 0.264619 0.193714
H21   H     H_    0.739909 0.842757 0.752440 0.181746
H22   H     H_    0.249346 0.658675 0.734750 0.191829
H23   H     H_    0.385448 0.339923 0.222362 0.190843
H24   H     H_    0.760550 0.343111 0.247915 0.178650
H25   H     H_    0.751222 0.658023 0.264619 0.193714
H26   H     H_    0.239909 0.342757 0.752440 0.181746
H27   H     H_    0.069917 0.244757 0.548560 0.243178
H28   H     H_    0.106009 0.171804 0.426625 0.263589
H29   H     H_    0.063635 0.210913 0.385678 0.270528
H30   H     H_    0.037467 0.140219 0.469700 0.229830
H31   H     H_    0.919291 0.763035 0.488719 0.241430
H32   H     H_    0.892756 0.815588 0.628766 0.259521
H33   H     H_    0.955890 0.861610 0.559900 0.234003
H34   H     H_    0.611485 0.664362 0.780701 0.191073
H35   H     H_    0.953849 0.786210 0.628222 0.236145
H36   H     H_    0.947945 0.200644 0.571180 0.274003
H37   H     H_    0.904731 0.168330 0.483270 0.235650
H38   H     H_    0.974699 0.191820 0.407750 0.214992
H39   H     H_    0.921221 0.254769 0.430066 0.248096
H40   H     H_    0.085544 0.763170 0.497227 0.242832
H41   H     H_    0.051837 0.859159 0.419448 0.236217
H42   H     H_    0.052127 0.781556 0.355423 0.234164
H43   H     H_    0.113839 0.810132 0.353530 0.261255
H44   H     H_    0.569917 0.744757 0.548560 0.243178
H45   H     H_    0.114278 0.839283 0.777874 0.190874
H46   H     H_    0.606009 0.671804 0.426626 0.263589
H47   H     H_    0.563636 0.710913 0.385678 0.270529
H48   H     H_    0.537467 0.640220 0.469699 0.229830
H49   H     H_    0.419291 0.263035 0.488719 0.241429
H50   H     H_    0.392756 0.315589 0.628765 0.259520
H51   H     H_    0.455891 0.361609 0.559902 0.234004
H52   H     H_    0.453846 0.286207 0.628225 0.236146
H53   H     H_    0.447945 0.700643 0.571179 0.274003
H54   H     H_    0.404733 0.668328 0.483268 0.235648
H55   H     H_    0.474701 0.691823 0.407747 0.214993
H56   H     H_    0.888261 0.164053 0.219668 0.189773
H57   H     H_    0.421220 0.754768 0.430066 0.248098
H58   H     H_    0.585544 0.263170 0.497227 0.242832
H59   H     H_    0.551838 0.359160 0.419449 0.236216
H60   H     H_    0.552125 0.281557 0.355425 0.234164
H61   H     H_    0.613839 0.310132 0.353529 0.261255
H62   H     H_    0.825033 0.465869 0.329789 0.209426
H63   H     H_    0.733955 0.452349 0.384843 0.224453
H64   H     H_    0.736425 0.547455 0.379223 0.236112
H65   H     H_    0.719124 0.503212 0.485672 0.241910
H66   H     H_    0.175474 0.534189 0.670386 0.208467
H67   H     H_    0.885448 0.839923 0.222362 0.190843
H68   H     H_    0.266667 0.547642 0.614181 0.223002
H69   H     H_    0.280992 0.496735 0.513631 0.241708
H70   H     H_    0.264151 0.452547 0.619943 0.237336
H71   H     H_    0.325033 0.965869 0.329789 0.209426
H72   H     H_    0.233955 0.952349 0.384843 0.224453
H73   H     H_    0.236425 0.047455 0.379223 0.236112
H74   H     H_    0.219124 0.003212 0.485672 0.241910
H75   H     H_    0.675474 0.034189 0.670386 0.208467
H76   H     H_    0.766667 0.047642 0.614181 0.223002
H77   H     H_    0.780992 0.996735 0.513631 0.241708
H78   H     H_    0.111485 0.164361 0.780701 0.191073
H79   H     H_    0.764151 0.952547 0.619943 0.237336
H80   H     H_    0.575603 0.349593 0.094344 0.177665
N1    N     N_2   0.044865 0.239656 0.520118 -0.325820
N2    N     N_2   0.197707 0.500373 0.616425 -0.317564
N3    N     N_2   0.302593 0.999661 0.383667 -0.318570
N4    N     N_2   0.697707 0.000373 0.616425 -0.317564
N5    N     N_2   0.948491 0.762451 0.508902 -0.300409
N6    N     N_2   0.938959 0.239685 0.537486 -0.256058
N7    N     N_2   0.056758 0.761707 0.476156 -0.299770
N8    N     N_2   0.544865 0.739656 0.520117 -0.325820
N9    N     N_2   0.448491 0.262451 0.508903 -0.300409
N10   N     N_2   0.438960 0.739685 0.537485 -0.256058
N11   N     N_2   0.556758 0.261707 0.476156 -0.299769
N12   N     N_2   0.802593 0.499661 0.383667 -0.318570
O1    O     O_R   0.746490 0.236330 0.638080 -0.598662
O2    O     O_R   0.325830 0.813840 0.483730 -0.616672
O3    O     O_R   0.325830 0.186160 0.483730 -0.624343
O4    O     O_R   0.674170 0.813840 0.516270 -0.622240
O5    O     O_R   0.174170 0.686160 0.516270 -0.619784
O6    O     O_R   0.825830 0.313840 0.483730 -0.616672
O7    O     O_R   0.825830 0.686160 0.483730 -0.624343
O8    O     O_R   0.174170 0.313840 0.516270 -0.622240
O9    O     O_R   0.739960 0.127620 0.525000 -0.629119
O10   O     O_R   0.260040 0.872380 0.475000 -0.628448
O11   O     O_R   0.260040 0.127620 0.475000 -0.624617
O12   O     O_R   0.253510 0.763670 0.361920 -0.602516
O13   O     O_R   0.739960 0.872380 0.525000 -0.624032
O14   O     O_R   0.239960 0.627620 0.525000 -0.629119
O15   O     O_R   0.760040 0.372380 0.475000 -0.628448
O16   O     O_R   0.760040 0.627620 0.475000 -0.624617
O17   O     O_R   0.239960 0.372380 0.525000 -0.624032
O18   O     O_R   0.680700 0.294870 0.629350 -0.631876
O19   O     O_R   0.319300 0.705130 0.370650 -0.630144
O20   O     O_R   0.319300 0.294870 0.370650 -0.634251
O21   O     O_R   0.680700 0.705130 0.629350 -0.630676
O22   O     O_R   0.180700 0.794870 0.629350 -0.631876
O23   O     O_R   0.253510 0.236330 0.361920 -0.604538
O24   O     O_R   0.819300 0.205130 0.370650 -0.630144
O25   O     O_R   0.819300 0.794870 0.370650 -0.634251
O26   O     O_R   0.180700 0.205130 0.629350 -0.630676
O27   O     O_R   0.062020 0.072840 0.007170 -0.619164
O28   O     O_R   0.937980 0.927160 0.992830 -0.642640
O29   O     O_R   0.937980 0.072840 0.992830 -0.619028
O30   O     O_R   0.062020 0.927160 0.007170 -0.643285
O31   O     O_R   0.562020 0.572840 0.007170 -0.619165
O32   O     O_R   0.437980 0.427160 0.992830 -0.642640
O33   O     O_R   0.437980 0.572840 0.992830 -0.619028
O34   O     O_R   0.746490 0.763670 0.638080 -0.602497
O35   O     O_R   0.562020 0.427160 0.007170 -0.643285
O36   O     O_R   0.947860 0.073950 0.109290 -0.612472
O37   O     O_R   0.052140 0.926050 0.890710 -0.626908
O38   O     O_R   0.052140 0.073950 0.890710 -0.611318
O39   O     O_R   0.947860 0.926050 0.109290 -0.627190
O40   O     O_R   0.447860 0.573950 0.109290 -0.612473
O41   O     O_R   0.552140 0.426050 0.890710 -0.626908
O42   O     O_R   0.552140 0.573950 0.890710 -0.611319
O43   O     O_R   0.447860 0.426050 0.109290 -0.627190
O44   O     O_R   0.246490 0.736330 0.638080 -0.598662
O45   O     O_R   0.753510 0.263670 0.361920 -0.602516
O46   O     O_R   0.753510 0.736330 0.361920 -0.604538
O47   O     O_R   0.246490 0.263670 0.638080 -0.602497
O48   O     O_R   0.674170 0.186160 0.516270 -0.619784
Zn1   Zn    Zn3+2 0.792340 0.208750 0.507670 0.976417
Zn2   Zn    Zn3+2 0.494040 0.500000 0.919480 0.965981
Zn3   Zn    Zn3+2 0.005960 0.000000 0.080520 0.962351
Zn4   Zn    Zn3+2 0.994040 0.000000 0.919480 0.965981
Zn5   Zn    Zn3+2 0.207660 0.791250 0.492330 0.965056
Zn6   Zn    Zn3+2 0.207660 0.208750 0.492330 0.974152
Zn7   Zn    Zn3+2 0.792340 0.791250 0.507670 0.968440
Zn8   Zn    Zn3+2 0.292340 0.708750 0.507670 0.976418
Zn9   Zn    Zn3+2 0.707660 0.291250 0.492330 0.965056
Zn10  Zn    Zn3+2 0.707660 0.708750 0.492330 0.974152
Zn11  Zn    Zn3+2 0.292340 0.291250 0.507670 0.968440
Zn12  Zn    Zn3+2 0.505960 0.500000 0.080520 0.962351

loop_
_geom_bond_atom_site_label_1
_geom_bond_atom_site_label_2
_ccdc_geom_bond_type
C35   C81   A    
O5    Zn5   S    
C97   N2    S    
C71   C75   A    
C91   C96   A    
C24   C77   A    
C187  O3    A    
O12   Zn5   S    
C111  H73   S    
O10   Zn5   S    
C29   C184  A    
C3    C184  A    
C2    C75   A    
C165  H67   S    
O43   Zn12  S    
C56   C59   A    
C70   C72   A    
C177  C195  A    
C6    C143  A    
C67   C77   A    
C1    O1    A    
Br3   C32   S    
C52   C61   A    
C46   C54   A    
C94   C188  S    
C124  O23   A    
C118  C127  A    
C16   H13   S    
C18   C132  A    
C28   C37   A    
C47   C150  S    
O1    Zn1   S    
C28   H25   S    
C106  N9    S    
O30   Zn3   S    
C40   O28   A    
C9    C18   A    
C81   C89   A    
C84   C93   A    
C159  H1    S    
C86   C95   A    
C35   C55   A    
C25   C33   A    
C146  O44   A    
C174  C183  A    
C61   C63   A    
C192  O16   A    
C13   C83   A    
C112  C169  S    
C121  C130  A    
C160  C169  A    
C61   N7    S    
C70   C74   A    
C95   C187  S    
C22   H19   S    
O40   Zn12  S    
C163  C172  A    
C4    C12   A    
C85   C94   A    
C161  C170  A    
C183  C200  A    
C114  N4    S    
C87   C96   A    
C165  C174  A    
C118  C139  A    
C162  H34   S    
C96   N12   S    
C115  C194  A    
C88   C189  S    
Br1   C35   S    
C176  C194  A    
H71   N3    S    
C11   C149  A    
C107  H54   S    
C80   C88   A    
O37   Zn4   S    
C98   N3    S    
Br2   C31   S    
H36   N6    S    
C19   C136  A    
Br7   C37   S    
C60   N8    S    
O36   Zn3   S    
C159  C167  A    
H44   N8    S    
C142  C195  A    
C62   N6    S    
C54   C63   A    
C40   O39   A    
Br13  C90   S    
O41   Zn2   S    
C24   C84   A    
Br11  C68   S    
C66   C69   A    
C31   C125  A    
C22   C177  A    
Br4   C33   S    
C109  N12   S    
C1    O18   A    
C17   C133  A    
C163  H45   S    
C20   C134  A    
C37   C130  A    
Br10  C57   S    
C13   C86   A    
C100  H30   S    
C102  H32   S    
C188  O13   A    
C178  C196  A    
C10   C19   A    
O23   Zn6   S    
C82   C190  A    
C3    C149  A    
Br6   C36   S    
C188  O4    A    
C181  C198  A    
C104  H41   S    
C30   C123  A    
C50   C65   A    
O29   Zn4   S    
C6    H3    S    
C100  H28   S    
C39   O27   A    
C14   H10   S    
C18   H15   S    
C78   C190  A    
C158  C166  A    
C15   C140  A    
C26   H22   S    
C106  H52   S    
C8    H5    S    
C83   C92   A    
C117  C126  A    
C118  C197  A    
C58   C60   A    
C89   C97   A    
C87   C191  S    
C164  C173  A    
C62   C64   A    
C27   C36   A    
C191  O15   A    
C19   H16   S    
C24   C85   A    
C65   C76   A    
C156  C165  A    
O15   Zn9   S    
Br12  C79   S    
C186  O2    A    
C27   C182  A    
C47   O41   A    
C104  N7    S    
C161  H23   S    
O44   Zn8   S    
O19   Zn8   S    
H31   N5    S    
C51   C79   A    
C44   O32   A    
C116  C195  A    
C157  O24   A    
C53   C73   A    
C65   C67   A    
C69   C76   A    
C34   C128  A    
C51   C66   A    
C160  H12   S    
C123  C132  A    
O25   Zn7   S    
C175  C184  A    
O35   Zn12  S    
C149  C158  A    
C49   C58   A    
O18   Zn9   S    
C105  H46   S    
C83   C101  A    
C189  O5    A    
C72   C75   A    
Br14  C101  S    
C124  O20   A    
C112  O19   A    
C9    H6    S    
H75   N4    S    
O38   Zn4   S    
C120  C132  A    
C64   N1    S    
C26   C34   A    
C129  C138  A    
C109  H65   S    
C100  N1    S    
C110  H70   S    
C168  C174  S    
C148  C156  A    
C103  H38   S    
C106  H50   S    
C107  H55   S    
C116  C125  A    
O3    Zn11  S    
C170  C178  A    
C115  C138  A    
O39   Zn3   S    
C12   H9    S    
C109  H64   S    
C154  C163  A    
C124  C170  S    
C42   O30   A    
C73   C74   A    
C43   C153  S    
O17   Zn11  S    
C9    C147  A    
C10   C148  A    
C103  N6    S    
C175  C179  S    
C115  C123  A    
C111  N3    S    
C88   C97   A    
C21   C176  A    
C49   C101  A    
O31   Zn12  S    
C29   H26   S    
C107  H57   S    
C145  C198  A    
C191  O6    A    
C171  C180  A    
C117  C140  A    
C5    C142  A    
C8    C145  A    
C189  O14   A    
C167  C176  A    
O21   Zn10  S    
C25   H21   S    
C148  C200  A    
C135  C171  S    
C150  C159  A    
C45   O33   A    
C107  N10   S    
O32   Zn2   S    
C102  H35   S    
C105  H48   S    
C193  O17   A    
C23   H20   S    
C108  H59   S    
C41   O29   A    
C119  C198  A    
C152  C161  A    
O24   Zn1   S    
C89   C193  S    
C92   C98   A    
C47   O35   A    
C74   C190  A    
C147  C199  A    
C130  C139  A    
O34   Zn7   S    
C112  O12   A    
C110  H68   S    
C142  C151  A    
C185  O48   A    
C144  C153  A    
C121  C136  A    
C53   C57   A    
C2    C81   A    
C147  C155  A    
C193  O8    A    
C58   N10   S    
C41   O36   A    
C120  C199  A    
O48   Zn9   S    
C66   C77   A    
C40   C156  S    
O27   Zn3   S    
C57   C78   A    
C166  H78   S    
C182  C199  A    
H58   N11   S    
C111  H74   S    
C42   O37   A    
C105  N8    S    
C52   C68   A    
C44   O43   A    
Br16  C30   S    
C84   C113  A    
C114  H79   S    
C185  O9    A    
C143  C196  A    
C102  N5    S    
C99   N4    S    
C45   C151  S    
C135  O34   A    
C187  O11   A    
C39   C158  S    
O45   Zn9   S    
C1    C167  S    
Br15  C113  S    
C179  O47   A    
H27   N1    S    
O47   Zn11  S    
O6    Zn1   S    
O16   Zn10  S    
C131  C140  A    
C91   C192  S    
C164  H56   S    
C55   C71   A    
C162  C171  A    
C127  C136  A    
C78   C87   A    
C4    C141  A    
C121  C200  A    
C4    H80   S    
Br5   C34   S    
C166  C175  A    
H62   N12   S    
C7    H4    S    
C111  H72   S    
C26   C181  A    
C102  H33   S    
C103  H39   S    
C108  H61   S    
C11   C20   A    
C104  H43   S    
C5    C14   A    
C8    C17   A    
O2    Zn8   S    
O26   Zn6   S    
C7    C16   A    
C126  C134  A    
C93   C185  S    
O22   Zn5   S    
C146  C172  S    
C172  C181  A    
C146  O22   A    
C50   C59   A    
C33   C127  A    
C95   C98   A    
C27   H24   S    
C82   C91   A    
H53   N10   S    
O42   Zn2   S    
C114  H76   S    
C10   H7    S    
C169  C177  A    
C21   C30   A    
C94   C99   A    
O13   Zn7   S    
C13   C76   A    
C23   C32   A    
C173  C182  A    
C36   C129  A    
O46   Zn10  S    
C15   H11   S    
C2    C80   A    
C125  C133  A    
C21   H18   S    
C48   C67   A    
C157  O45   A    
C122  C134  A    
C114  H77   S    
C11   H8    S    
C44   C152  S    
O28   Zn4   S    
C42   C154  S    
C25   C180  A    
C59   N9    S    
C143  C152  A    
C68   C80   A    
C128  C137  A    
H40   N7    S    
C92   C186  S    
C56   N11   S    
C46   C82   A    
O4    Zn10  S    
C14   C137  A    
C63   N5    S    
C120  C129  A    
C168  O46   A    
O20   Zn11  S    
C141  C194  A    
C12   C138  A    
C53   C62   A    
C50   C90   A    
C103  H37   S    
C55   C64   A    
C106  H51   S    
C23   C178  A    
C6    C15   A    
Br9   C46   S    
H49   N9    S    
Br8   C38   S    
C109  H63   S    
C20   H17   S    
C119  C133  A    
O7    Zn7   S    
O9    Zn1   S    
C16   C139  A    
C122  C131  A    
C7    C144  A    
C116  C137  A    
C32   C126  A    
C100  H29   S    
O11   Zn6   S    
C22   C31   A    
C179  O26   A    
C135  O21   A    
C145  C154  A    
C119  C128  A    
C43   O31   A    
C29   C38   A    
C39   O38   A    
C5    H2    S    
C52   C72   A    
C155  C164  A    
C17   H14   S    
C54   C70   A    
C153  C162  A    
O8    Zn6   S    
H66   N2    S    
C186  O10   A    
C168  O25   A    
O14   Zn8   S    
C141  C150  A    
C49   C69   A    
C110  N2    S    
C43   O42   A    
C45   O40   A    
C71   C73   A    
C105  H47   S    
C180  C197  A    
C108  H60   S    
C3    C122  A    
C104  H42   S    
C144  C197  A    
C157  C173  S    
C192  O7    A    
C86   C90   A    
C48   C56   A    
C93   C99   A    
C79   C85   A    
C48   C113  A    
C28   C183  A    
C110  H69   S    
C117  C196  A    
C151  C160  A    
C108  N11   S    
C51   C60   A    
O33   Zn2   S    
C38   C131  A    
C41   C155  S    
