data_mof_unit_18863.cif
_audit_creation_date              2012-12-11T14:50:46-0500
_audit_creation_method            fapswitch 2.2
_symmetry_space_group_name_H-M    P1
_symmetry_Int_Tables_number       1
_space_group_crystal_system       triclinic
_cell_length_a                    20.715977
_cell_length_b                    7.084515
_cell_length_c                    20.348862
_cell_angle_alpha                 90.000036
_cell_angle_beta                  101.544152
_cell_angle_gamma                 90.000051
_cell_volume                      2926.03929815

loop_
_atom_site_label
_atom_site_type_symbol
_atom_type_description
_atom_site_fract_x
_atom_site_fract_y
_atom_site_fract_z
_atom_type_partial_charge
O1    O     O_R   0.423690 0.494470 0.435930 -0.534784
O2    O     O_R   0.576310 0.994470 0.564070 -0.534784
O3    O     O_R   0.556070 0.822310 0.435760 -0.534511
O4    O     O_R   0.443930 0.322310 0.564240 -0.534511
C1    C     C_R   0.575731 0.655402 0.420672 0.728210
C2    C     C_R   0.424269 0.155402 0.579328 0.728210
O5    O     O_R   0.422940 0.824080 0.428040 -0.544747
O6    O     O_R   0.577060 0.324080 0.571960 -0.544748
O7    O     O_R   0.442240 0.995960 0.556300 -0.535010
O8    O     O_R   0.557760 0.495960 0.443700 -0.535010
C3    C     C_R   0.398411 0.657043 0.410533 0.697848
C4    C     C_R   0.601589 0.157043 0.589467 0.697849
O9    O     O_3   0.506490 0.661310 0.542090 -0.372919
O10   O     O_3   0.493510 0.161310 0.457910 -0.372918
V1    V     V_3+5 0.498800 0.935560 0.492190 1.424023
V2    V     V_3+5 0.501200 0.435560 0.507810 1.424022
C5    C     C_R   0.837977 0.072802 0.856401 -0.066789
C6    C     C_R   0.162023 0.572803 0.143599 -0.066789
C7    C     C_R   0.661881 0.161157 0.643808 -0.063172
C8    C     C_R   0.338119 0.661156 0.356192 -0.063172
C9    C     C_R   0.753035 0.346884 0.707793 -0.192869
C10   C     C_R   0.246963 0.846878 0.292209 -0.192866
C11   C     C_R   0.700474 0.327063 0.653269 -0.146973
C12   C     C_R   0.299524 0.827058 0.346733 -0.146973
C13   C     C_R   0.678397 0.012605 0.689901 -0.236038
C14   C     C_R   0.321604 0.512607 0.310097 -0.236039
C15   C     C_R   0.731203 0.032512 0.745463 0.160692
C16   C     C_R   0.268797 0.532513 0.254536 0.160691
C17   C     C_R   0.768664 0.201413 0.754733 0.156073
C18   C     C_R   0.231335 0.701411 0.245268 0.156072
C19   C     C_R   0.821465 0.221331 0.810296 -0.236653
C20   C     C_R   0.178533 0.721329 0.189705 -0.236653
C21   C     C_R   0.799390 0.906886 0.846938 -0.160624
C22   C     C_R   0.200612 0.406892 0.153060 -0.160625
C23   C     C_R   0.746835 0.887044 0.792405 -0.199078
C24   C     C_R   0.253167 0.387049 0.207593 -0.199076
H1    H     H_    0.850818 0.349174 0.816334 0.125430
H2    H     H_    0.149179 0.849169 0.183669 0.125430
H3    H     H_    0.810396 0.789754 0.881589 0.127594
H4    H     H_    0.189606 0.289761 0.118408 0.127593
H5    H     H_    0.781056 0.477116 0.713530 0.127204
H6    H     H_    0.218941 0.977108 0.286474 0.127205
H7    H     H_    0.718818 0.756805 0.786667 0.118702
H8    H     H_    0.281185 0.256814 0.213329 0.118703
H9    H     H_    0.689472 0.444210 0.618624 0.136183
H10   H     H_    0.310526 0.944202 0.381379 0.136183
H11   H     H_    0.649042 0.884767 0.683858 0.121401
H12   H     H_    0.350961 0.384772 0.316139 0.121401
C25   C     C_3   0.262652 0.253328 0.817874 -0.296655
C26   C     C_3   0.737348 0.753328 0.182126 -0.296655
C27   C     C_3   0.238985 0.915012 0.783451 -0.327864
C28   C     C_3   0.761015 0.415012 0.216549 -0.327864
C29   C     C_3   0.288500 0.927964 0.735263 -0.394993
C30   C     C_3   0.711500 0.427964 0.264737 -0.394995
H13   H     H_    0.361912 0.206648 0.801145 0.073746
H14   H     H_    0.638088 0.706647 0.198855 0.073745
H15   H     H_    0.287791 0.212430 0.869480 0.106149
H16   H     H_    0.712209 0.712431 0.130520 0.106149
H17   H     H_    0.200118 0.809501 0.763716 0.156095
H18   H     H_    0.799882 0.309500 0.236284 0.156095
H19   H     H_    0.265169 0.863927 0.833421 0.153651
H20   H     H_    0.734830 0.363928 0.166578 0.153650
H21   H     H_    0.338089 0.881388 0.762180 0.164886
H22   H     H_    0.661911 0.381388 0.237820 0.164886
H23   H     H_    0.273106 0.828979 0.692546 0.178675
H24   H     H_    0.726894 0.328978 0.307454 0.178676
C31   C     C_1   0.378724 0.146818 0.624997 -0.161470
C32   C     C_1   0.621275 0.646818 0.375003 -0.161471
C33   C     C_3   0.206984 0.109964 0.790946 0.203677
C34   C     C_3   0.793016 0.609964 0.209054 0.203678
C35   C     C_3   0.314248 0.261419 0.771655 0.205094
C36   C     C_3   0.685752 0.761419 0.228345 0.205094
C37   C     C_3   0.292110 0.132727 0.708658 0.150857
C38   C     C_3   0.707890 0.632726 0.291342 0.150860
C39   C     C_3   0.220704 0.185939 0.671237 -0.101824
C40   C     C_3   0.779296 0.685938 0.328763 -0.101825
C41   C     C_3   0.171611 0.177139 0.720368 -0.397667
C42   C     C_3   0.828389 0.677138 0.279632 -0.397668
C43   C     C_1   0.340087 0.140163 0.662743 -0.058728
C44   C     C_1   0.659913 0.640163 0.337257 -0.058725
C45   C     C_1   0.159627 0.097650 0.837194 -0.066210
C46   C     C_1   0.840373 0.597650 0.162806 -0.066210
C47   C     C_1   0.121228 0.089029 0.875161 -0.185874
C48   C     C_1   0.878772 0.589029 0.124839 -0.185874
H25   H     H_    0.148456 0.317207 0.724899 0.138589
H26   H     H_    0.851544 0.817206 0.275102 0.138589
H27   H     H_    0.130786 0.078125 0.699958 0.155406
H28   H     H_    0.869214 0.578123 0.300042 0.155407
H29   H     H_    0.240806 0.395565 0.821704 0.164329
H30   H     H_    0.759195 0.895566 0.178297 0.164328
H31   H     H_    0.204793 0.077737 0.631488 0.147256
H32   H     H_    0.795207 0.577736 0.368512 0.147256
O11   O     O_R   0.942280 0.741210 0.056360 -0.533774
O12   O     O_R   0.057720 0.241210 0.943640 -0.533774
O13   O     O_R   0.077070 0.409690 0.071960 -0.541543
O14   O     O_R   0.922930 0.909690 0.928040 -0.541544
C49   C     C_R   0.101732 0.576948 0.089252 0.694120
C50   C     C_R   0.898268 0.076948 0.910748 0.694120
O15   O     O_R   0.943940 0.411580 0.064250 -0.535600
O16   O     O_R   0.056060 0.911580 0.935750 -0.535600
O17   O     O_R   0.923670 0.239840 0.935920 -0.537323
O18   O     O_R   0.076330 0.739840 0.064080 -0.537322
C51   C     C_R   0.924175 0.580068 0.079008 0.723162
C52   C     C_R   0.075825 0.080068 0.920991 0.723163
O19   O     O_3   0.993540 0.572620 0.957940 -0.370670
O20   O     O_3   0.006460 0.072620 0.042060 -0.370670
V3    V     V_3+5 0.001200 0.298330 0.007800 1.409668
V4    V     V_3+5 0.998800 0.798330 0.992200 1.409668
C53   C     C_2   0.217107 0.375540 0.636637 0.407800
H33   H     H_    0.221635 0.505015 0.665596 0.090411
O21   O     O_2   0.207834 0.384984 0.575562 -0.529116
C54   C     C_2   0.782893 0.875539 0.363363 0.407803
H34   H     H_    0.778366 0.005015 0.334404 0.090411
O22   O     O_2   0.792166 0.884984 0.424438 -0.529117
O23   O     O_3   0.323193 0.449629 0.753489 -0.665314
H35   H     H_    0.367269 0.457798 0.741525 0.281858
O24   O     O_3   0.676807 0.949628 0.246512 -0.665314
H36   H     H_    0.632730 0.957798 0.258473 0.281858

loop_
_geom_bond_atom_site_label_1
_geom_bond_atom_site_label_2
_ccdc_geom_bond_type
O17   V3    S    
O15   C51   A    
C28   C34   S    
C32   C44   T    
C11   H9    S    
C34   C42   S    
C33   C41   S    
O1    C3    A    
O2    C4    A    
C23   H7    S    
O11   C51   A    
C2    O7    A    
C54   O22   D    
O8    V2    S    
O5    C3    A    
O19   V3    S    
C21   H3    S    
C38   C40   S    
C22   H4    S    
C30   H22   S    
C40   C42   S    
C53   O21   D    
O11   V4    S    
C15   C17   A    
O20   V3    S    
O23   H35   S    
O16   C52   A    
C25   H15   S    
C26   C36   S    
C28   H18   S    
C30   C38   S    
C26   H30   S    
C8    C12   A    
H14   C36   S    
O14   C50   A    
C36   O24   S    
O18   V4    S    
C6    C49   S    
C20   H2    S    
C29   H23   S    
C5    C50   S    
C13   H11   S    
C49   O18   A    
C14   H12   S    
C42   H26   S    
O5    V1    S    
O14   V4    S    
O12   C52   A    
O6    V2    S    
C25   C33   S    
C40   C54   S    
C37   C39   S    
C5    C21   A    
C1    C32   S    
C7    C13   A    
C54   H34   S    
C45   C47   T    
C28   C30   S    
C3    C8    S    
O19   V4    S    
O12   V3    S    
O16   V4    S    
C39   C53   S    
C47   C52   S    
C26   H16   S    
C31   C43   T    
C36   C38   S    
C35   C37   S    
C15   C23   A    
C9    C17   A    
C19   H1    S    
C27   C29   S    
O4    V2    S    
C7    C11   A    
C39   C41   S    
O6    C4    A    
C37   C43   S    
C35   O23   S    
O1    V2    S    
O2    V1    S    
C6    C22   A    
C41   H27   S    
O13   V3    S    
C40   H32   S    
C9    H5    S    
O4    C2    A    
C2    C31   S    
C46   C48   T    
C9    C11   A    
C5    C19   A    
C10   C12   A    
C24   H8    S    
C27   H17   S    
O3    V1    S    
O20   V4    S    
C42   H28   S    
C10   C18   A    
C29   C37   S    
C25   H29   S    
O3    C1    A    
O13   C49   A    
C30   H24   S    
C39   H31   S    
C13   C15   A    
C50   O17   A    
O15   V3    S    
C14   C16   A    
C12   H10   S    
C16   C18   A    
C26   C34   S    
C1    O8    A    
C17   C19   A    
C28   H20   S    
O24   H36   S    
C18   C20   A    
C27   H19   S    
C29   H21   S    
C10   H6    S    
C8    C14   A    
C4    C7    S    
C21   C23   A    
C22   C24   A    
O7    V1    S    
C34   C46   S    
C33   C45   S    
C41   H25   S    
C6    C20   A    
C16   C24   A    
C25   C35   S    
O9    V2    S    
C48   C51   S    
O10   V1    S    
C38   C44   S    
C27   C33   S    
C53   H33   S    
H13   C35   S    
