data_mof_unit_40537.cif
_audit_creation_date              2012-12-10T19:05:21-0500
_audit_creation_method            fapswitch 2.2
_symmetry_space_group_name_H-M    P1
_symmetry_Int_Tables_number       1
_space_group_crystal_system       triclinic
_cell_length_a                    9.550023
_cell_length_b                    10.879896
_cell_length_c                    17.244391
_cell_angle_alpha                 90.718933
_cell_angle_beta                  84.55376
_cell_angle_gamma                 91.263561
_cell_volume                      1783.12777675

loop_
_atom_site_label
_atom_site_type_symbol
_atom_type_description
_atom_site_fract_x
_atom_site_fract_y
_atom_site_fract_z
_atom_type_partial_charge
C1    C     C_R   0.501959 0.737614 0.500973 0.860997
C2    C     C_R   0.334987 0.473242 0.779944 0.475149
C3    C     C_R   0.582455 0.434987 0.135916 0.498697
C4    C     C_R   0.582814 0.424139 0.217105 -0.350206
C5    C     C_R   0.485410 0.627893 0.236212 0.426530
C6    C     C_R   0.480018 0.638676 0.155941 0.277763
C7    C     C_R   0.528986 0.542737 0.105763 -0.105117
C8    C     C_2   0.441361 0.471280 0.983888 0.287924
C9    C     C_2   0.521622 0.553171 0.021284 0.538506
C10   C     C_R   0.531783 0.518517 0.266525 -0.214113
C11   C     C_R   0.389944 0.933871 0.538827 -0.087439
C12   C     C_R   0.479920 0.494041 0.650317 0.839938
C13   C     C_R   0.507987 0.870786 0.507157 -0.153607
C14   C     C_R   0.632360 0.940479 0.484195 0.332098
C15   C     C_R   0.627077 0.068528 0.482953 -0.264175
C16   C     C_R   0.500193 0.129334 0.503181 -0.176224
C17   C     C_R   0.384803 0.059820 0.534826 0.040880
C18   C     C_3   0.230063 0.055358 0.524969 0.928157
C19   C     C_3   0.235878 0.914872 0.533230 -0.495047
C20   C     C_R   0.937530 0.476188 0.433087 0.274594
C21   C     C_R   0.915081 0.544679 0.561866 -0.197292
C22   C     C_R   0.066138 0.550690 0.561284 0.582811
C23   C     C_R   0.498959 0.262385 0.499870 0.813392
C24   C     C_R   0.084437 0.478338 0.432948 0.123017
C25   C     C_3   0.101111 0.370347 0.380406 -0.535403
C26   C     C_3   0.940993 0.362972 0.382861 0.276740
C27   C     C_R   0.519709 0.501772 0.350248 0.877139
C28   C     C_R   0.467002 0.478196 0.735582 -0.185780
C29   C     C_R   0.589655 0.461854 0.773049 -0.410003
C30   C     C_R   0.583845 0.453096 0.854675 0.542525
C31   C     C_R   0.452083 0.462579 0.898329 -0.033945
C32   C     C_R   0.329088 0.469693 0.860906 -0.305633
Cu1   Cu    Cu3+1 0.359330 0.500020 0.500000 1.034500
Cu2   Cu    Cu3+1 0.640670 0.499980 0.500000 0.982869
H1    H     H_    0.689576 0.454572 0.738370 0.175373
H2    H     H_    0.721467 0.119838 0.462325 0.184421
H3    H     H_    0.183159 0.881347 0.589275 0.197112
H4    H     H_    0.210955 0.858437 0.482229 0.209720
H5    H     H_    0.847916 0.576896 0.611302 0.159370
H6    H     H_    0.155167 0.395455 0.322622 0.234743
H7    H     H_    0.620082 0.342058 0.242347 0.165901
H8    H     H_    0.147627 0.293926 0.408848 0.244090
H9    H     H_    0.890293 0.281951 0.413947 0.088729
H10   H     H_    0.227614 0.474793 0.894609 0.206561
N1    N     N_R   0.852130 0.499070 0.499500 -0.237203
N2    N     N_R   0.148040 0.499110 0.499500 -0.227890
O1    O     O_R   0.381190 0.680360 0.500000 -0.553783
O2    O     O_R   0.618770 0.680320 0.499990 -0.533536
O3    O     O_R   0.367430 0.500040 0.613600 -0.488003
O4    O     O_R   0.605020 0.500000 0.613590 -0.614604
O5    O     O_R   0.381230 0.319680 0.500010 -0.560818
O6    O     O_R   0.618810 0.319640 0.500000 -0.607045
O7    O     O_R   0.394980 0.500000 0.386410 -0.568614
O8    O     O_R   0.632570 0.499960 0.386400 -0.548501
Cl1   Cl    Cl    0.405546 0.771430 0.120525 -0.592621
Cl2   Cl    Cl    0.794664 0.875537 0.449526 -0.673258
O9    O     O_3   0.155184 0.113189 0.589788 -0.619456
C33   C     C_3   0.008905 0.105590 0.583405 -0.270104
H11   H     H_    0.979088 0.168272 0.537561 0.192602
H12   H     H_    0.953222 0.136113 0.639481 0.163040
H13   H     H_    0.972296 0.009897 0.571845 0.192989
O10   O     O_3   0.194248 0.102486 0.452655 -0.618062
C34   C     C_3   0.250689 0.039366 0.384999 -0.343257
H14   H     H_    0.361249 0.012780 0.387566 0.158626
H15   H     H_    0.249631 0.101776 0.334704 0.193760
H16   H     H_    0.183229 0.958375 0.372883 0.223729
O11   O     O_3   0.135316 0.607926 0.620016 -0.510395
C35   C     C_3   0.049138 0.681710 0.671863 -0.299138
H17   H     H_    0.117699 0.735468 0.708840 0.203565
H18   H     H_    0.977831 0.623566 0.711509 0.156750
H19   H     H_    0.989565 0.748814 0.640375 0.139873
O12   O     O_3   0.893262 0.386784 0.309666 -0.532277
C36   C     C_3   0.896181 0.276919 0.265270 -0.246214
H20   H     H_    0.814023 0.210516 0.289923 0.137981
H21   H     H_    0.001426 0.233991 0.260971 0.176397
H22   H     H_    0.873641 0.298791 0.205136 0.212807
O13   O     O_3   0.441615 0.723571 0.285530 -0.552205
C37   C     C_3   0.559739 0.800393 0.295281 -0.235566
H23   H     H_    0.642213 0.750405 0.322831 0.190498
H24   H     H_    0.526480 0.877720 0.334418 0.168070
H25   H     H_    0.604525 0.840515 0.239002 0.190947
O14   O     O_3   0.612946 0.638053 0.982043 -0.566113
C38   C     C_3   0.539226 0.723691 0.940902 -0.258097
H26   H     H_    0.422558 0.719803 0.953938 0.175332
H27   H     H_    0.565075 0.709836 0.877357 0.147499
H28   H     H_    0.575931 0.817773 0.955723 0.217961
O15   O     O_3   0.640224 0.346601 0.083926 -0.542748
C39   C     C_3   0.600294 0.226036 0.107724 -0.181287
H29   H     H_    0.488689 0.218896 0.133056 0.182009
H30   H     H_    0.671879 0.192029 0.149389 0.125226
H31   H     H_    0.610875 0.164546 0.055797 0.209664
O16   O     O_3   0.210952 0.478190 0.745269 -0.554262
C40   C     C_3   0.158614 0.357106 0.736351 -0.232201
H32   H     H_    0.127115 0.314608 0.793911 0.154186
H33   H     H_    0.236356 0.298803 0.701509 0.187028
H34   H     H_    0.063513 0.360302 0.704201 0.175265
Cl3   Cl    Cl    0.313514 0.376144 0.036385 -0.638785
O17   O     O_3   0.700880 0.427525 0.893905 -0.538107
C41   C     C_3   0.824709 0.487574 0.861035 -0.190129
H35   H     H_    0.805843 0.583790 0.843969 0.146487
H36   H     H_    0.873326 0.433787 0.810797 0.132053
H37   H     H_    0.901546 0.492154 0.905410 0.213677

loop_
_geom_bond_atom_site_label_1
_geom_bond_atom_site_label_2
_ccdc_geom_bond_type
C10   C27   S    
C8    C9    D    
C14   Cl2   S    
O15   C39   S    
C34   H15   S    
C40   H32   S    
C26   O12   S    
C36   H20   S    
C6    Cl1   S    
C12   O3    A    
C23   O6    A    
C27   O8    A    
O13   C37   S    
C11   C19   S    
O10   C34   S    
C12   C28   S    
C28   C29   A    
C3    C7    A    
C25   H6    S    
C5    C6    A    
C37   H24   S    
C4    H7    S    
C33   H12   S    
C15   C16   A    
O17   C41   S    
C2    C32   A    
C18   C19   S    
C19   H3    S    
C20   C24   A    
C35   H17   S    
C20   N1    A    
C9    O14   S    
C33   H13   S    
C34   H16   S    
C40   H33   S    
C21   C22   A    
Cu1   N2    S    
C36   H21   S    
C26   H9    S    
Cu1   Cu2   S    
C21   N1    A    
Cu1   O7    S    
Cu2   O4    S    
C3    O15   S    
O11   C35   S    
C24   C25   S    
C37   H23   S    
C18   O10   S    
C33   H11   S    
Cu1   O5    S    
C8    Cl3   S    
C29   C30   A    
C19   H4    S    
C18   O9    S    
C23   O5    A    
C38   H26   S    
C21   H5    S    
C39   H31   S    
C30   C31   A    
C38   H28   S    
C17   C18   S    
C32   H10   S    
Cu2   N1    S    
C2    O16   S    
C22   N2    A    
C39   H30   S    
Cu2   O8    S    
C40   H34   S    
Cu1   O1    S    
C36   H22   S    
C1    C13   S    
C5    O13   S    
C3    C4    A    
C15   H2    S    
C7    C9    S    
C29   H1    S    
C11   C17   A    
C38   H27   S    
C8    C31   S    
C31   C32   A    
C1    O1    A    
O12   C36   S    
C25   H8    S    
C12   O4    A    
C27   O7    A    
C1    O2    A    
C6    C7    A    
C16   C23   S    
C30   O17   S    
Cu2   O6    S    
C41   H35   S    
C24   N2    A    
C25   C26   S    
C5    C10   A    
C11   C13   A    
C37   H25   S    
O9    C33   S    
C16   C17   A    
C20   C26   S    
C35   H19   S    
O16   C40   S    
C22   O11   S    
C34   H14   S    
C41   H37   S    
Cu2   O2    S    
C39   H29   S    
C35   H18   S    
O14   C38   S    
Cu1   O3    S    
C14   C15   A    
C2    C28   A    
C13   C14   A    
C4    C10   A    
C41   H36   S    
