data_mof_unit_62779.cif
_audit_creation_date              2013-03-05T16:27:40-0500
_audit_creation_method            fapswitch 2.2
_symmetry_space_group_name_H-M    P1
_symmetry_Int_Tables_number       1
_space_group_crystal_system       triclinic
_cell_length_a                    25.961094
_cell_length_b                    26.056916
_cell_length_c                    22.188105
_cell_angle_alpha                 90.002222
_cell_angle_beta                  54.253091
_cell_angle_gamma                 90.001369
_cell_volume                      12181.7924578

loop_
_atom_site_label
_atom_site_type_symbol
_atom_site_description
_atom_site_fract_x
_atom_site_fract_y
_atom_site_fract_z
_atom_type_partial_charge
Zn1   Zn    Zn3+2 0.675940 0.706640 0.561420 0.968579
Zn2   Zn    Zn3+2 0.675940 0.293360 0.561420 0.968553
Zn3   Zn    Zn3+2 0.175940 0.206640 0.561420 0.968574
Zn4   Zn    Zn3+2 0.175940 0.793360 0.561420 0.968557
Zn5   Zn    Zn3+2 0.824100 0.706650 0.438580 0.967004
Zn6   Zn    Zn3+2 0.824100 0.293350 0.438580 0.967314
Zn7   Zn    Zn3+2 0.324100 0.206650 0.438580 0.967032
Zn8   Zn    Zn3+2 0.324100 0.793350 0.438580 0.967314
Zn9   Zn    Zn3+2 0.762700 0.793390 0.561410 1.023812
Zn10  Zn    Zn3+2 0.762700 0.206610 0.561410 1.023558
Zn11  Zn    Zn3+2 0.262700 0.293390 0.561410 1.023787
Zn12  Zn    Zn3+2 0.262700 0.706610 0.561410 1.023559
Zn13  Zn    Zn3+2 0.737340 0.793410 0.438590 0.966966
Zn14  Zn    Zn3+2 0.737340 0.206590 0.438590 0.967060
Zn15  Zn    Zn3+2 0.237340 0.293410 0.438590 0.966981
Zn16  Zn    Zn3+2 0.237340 0.706590 0.438590 0.967050
O1    O     O_3   0.750020 0.750020 0.500000 -0.490599
O2    O     O_3   0.750020 0.249980 0.500000 -0.490557
O3    O     O_3   0.250020 0.250020 0.500000 -0.490596
O4    O     O_3   0.250020 0.749980 0.500000 -0.490555
O5    O     O_R   0.801620 0.780400 0.336040 -0.638099
O6    O     O_R   0.801620 0.219600 0.336040 -0.638133
O7    O     O_R   0.301620 0.280400 0.336040 -0.638099
O8    O     O_R   0.301620 0.719600 0.336040 -0.638136
O9    O     O_R   0.637700 0.719640 0.663960 -0.637862
O10   O     O_R   0.637700 0.280360 0.663960 -0.637805
O11   O     O_R   0.137700 0.219640 0.663960 -0.637860
O12   O     O_R   0.137700 0.780360 0.663960 -0.637798
O13   O     O_R   0.801870 0.634220 0.457010 -0.645976
O14   O     O_R   0.801870 0.365780 0.457010 -0.646004
O15   O     O_R   0.301870 0.134220 0.457010 -0.645979
O16   O     O_R   0.301870 0.865780 0.457010 -0.646004
O17   O     O_R   0.758890 0.865820 0.542980 -0.620293
O18   O     O_R   0.758890 0.134180 0.542980 -0.620324
O19   O     O_R   0.258890 0.365820 0.542980 -0.620293
O20   O     O_R   0.258890 0.634180 0.542980 -0.620324
O21   O     O_R   0.887320 0.719660 0.457000 -0.647593
O22   O     O_R   0.887320 0.280340 0.457000 -0.647517
O23   O     O_R   0.387320 0.219660 0.457000 -0.647584
O24   O     O_R   0.387320 0.780340 0.457000 -0.647515
O25   O     O_R   0.655700 0.780400 0.457020 -0.643710
O26   O     O_R   0.655700 0.219600 0.457020 -0.643814
O27   O     O_R   0.155700 0.280400 0.457020 -0.643714
O28   O     O_R   0.155700 0.719600 0.457020 -0.643821
O29   O     O_R   0.844340 0.780370 0.542980 -0.593081
O30   O     O_R   0.844340 0.219630 0.542980 -0.593405
O31   O     O_R   0.344340 0.280370 0.542980 -0.593108
O32   O     O_R   0.344340 0.719630 0.542980 -0.593403
O33   O     O_R   0.612730 0.719670 0.543000 -0.641182
O34   O     O_R   0.612730 0.280330 0.543000 -0.641271
O35   O     O_R   0.112730 0.219670 0.543000 -0.641182
O36   O     O_R   0.112730 0.780330 0.543000 -0.641277
O37   O     O_R   0.698170 0.634220 0.542990 -0.645803
O38   O     O_R   0.698170 0.365780 0.542990 -0.645816
O39   O     O_R   0.198170 0.134220 0.542990 -0.645805
O40   O     O_R   0.198170 0.865780 0.542990 -0.645817
O41   O     O_R   0.741140 0.865830 0.457020 -0.649103
O42   O     O_R   0.741140 0.134170 0.457020 -0.649109
O43   O     O_R   0.241140 0.365830 0.457020 -0.649102
O44   O     O_R   0.241140 0.634170 0.457020 -0.649109
O45   O     O_R   0.862350 0.719680 0.336040 -0.638264
O46   O     O_R   0.862350 0.280320 0.336040 -0.638182
O47   O     O_R   0.362350 0.219680 0.336040 -0.638258
O48   O     O_R   0.362350 0.780320 0.336040 -0.638181
O49   O     O_R   0.698420 0.780360 0.663960 -0.636523
O50   O     O_R   0.698420 0.219640 0.663960 -0.636795
O51   O     O_R   0.198420 0.280360 0.663960 -0.636548
O52   O     O_R   0.198420 0.719640 0.663960 -0.636799
C1    C     C_R   0.849488 0.750053 0.301017 0.827738
C2    C     C_R   0.849488 0.249946 0.301016 0.827881
C3    C     C_R   0.349488 0.250053 0.301017 0.827750
C4    C     C_R   0.349488 0.749946 0.301016 0.827880
C5    C     C_R   0.650563 0.750007 0.698987 0.810695
C6    C     C_R   0.650563 0.249994 0.698987 0.810673
C7    C     C_R   0.150563 0.250007 0.698987 0.810692
C8    C     C_R   0.150563 0.749994 0.698987 0.810675
C9    C     C_R   0.749952 0.610005 0.500060 0.805943
C10   C     C_R   0.749952 0.389994 0.500060 0.805889
C11   C     C_R   0.249952 0.110006 0.500060 0.805937
C12   C     C_R   0.249952 0.889994 0.500060 0.805888
C13   C     C_R   0.750103 0.890041 0.500000 0.823782
C14   C     C_R   0.750104 0.109959 0.499998 0.824205
C15   C     C_R   0.250103 0.390041 0.500000 0.823821
C16   C     C_R   0.250104 0.609959 0.499998 0.824205
C17   C     C_R   0.890932 0.751127 0.498505 0.847459
C18   C     C_R   0.890933 0.248881 0.498499 0.848358
C19   C     C_R   0.390932 0.251127 0.498504 0.847544
C20   C     C_R   0.390933 0.748881 0.498500 0.848351
C21   C     C_R   0.609964 0.749965 0.499844 0.826450
C22   C     C_R   0.609966 0.250038 0.499837 0.826555
C23   C     C_R   0.109964 0.249965 0.499843 0.826446
C24   C     C_R   0.109966 0.750039 0.499837 0.826565
C25   C     C_R   0.546337 0.785821 0.460038 0.147863
C26   C     C_R   0.546666 0.214483 0.459385 0.147594
C27   C     C_R   0.046337 0.285821 0.460038 0.147863
C28   C     C_R   0.046697 0.714512 0.459323 0.147567
C29   C     C_R   0.556878 0.746867 0.494618 -0.140715
C30   C     C_R   0.556894 0.253178 0.494589 -0.140888
C31   C     C_R   0.056878 0.246867 0.494617 -0.140712
C32   C     C_R   0.056895 0.753181 0.494588 -0.140900
C33   C     C_R   0.518704 0.702706 0.518283 -0.285281
C34   C     C_R   0.518381 0.297162 0.518928 -0.285228
C35   C     C_R   0.018706 0.202705 0.518277 -0.285286
C36   C     C_R   0.018348 0.797147 0.518992 -0.285228
H1    H     H_    0.529683 0.669991 0.539053 0.210121
H2    H     H_    0.529078 0.329725 0.540241 0.210263
H3    H     H_    0.029687 0.169989 0.539045 0.210120
H4    H     H_    0.029019 0.829696 0.540354 0.210265
C37   C     C_R   0.466073 0.700489 0.515383 0.293334
C38   C     C_R   0.465735 0.299395 0.516077 0.293412
C39   C     C_R   0.966076 0.200487 0.515377 0.293335
C40   C     C_R   0.965701 0.799381 0.516146 0.293437
C41   C     C_R   0.450215 0.744507 0.491488 -0.213053
C42   C     C_R   0.450214 0.255557 0.491490 -0.213235
C43   C     C_R   0.950215 0.244506 0.491486 -0.213050
C44   C     C_R   0.950213 0.755560 0.491493 -0.213255
C45   C     C_R   0.493782 0.784842 0.459150 0.109862
C46   C     C_R   0.494105 0.215467 0.458509 0.109766
C47   C     C_R   0.993781 0.284843 0.459150 0.109859
C48   C     C_R   0.994136 0.715495 0.458449 0.109757
C49   C     C_3   0.483794 0.841412 0.471227 -0.469019
C50   C     C_3   0.484600 0.158799 0.469625 -0.468471
C51   C     C_3   0.983792 0.341413 0.471230 -0.469021
C52   C     C_3   0.984680 0.658818 0.469471 -0.468429
C53   C     C_3   0.541799 0.842490 0.472263 -0.482508
C54   C     C_3   0.542612 0.157718 0.470649 -0.482126
C55   C     C_3   0.041797 0.342490 0.472265 -0.482509
C56   C     C_3   0.042691 0.657738 0.470494 -0.482091
H5    H     H_    0.491329 0.861490 0.422453 0.209674
H6    H     H_    0.492315 0.139113 0.420504 0.209693
H7    H     H_    0.991328 0.361491 0.422456 0.209675
H8    H     H_    0.992412 0.639170 0.420318 0.209695
H9    H     H_    0.438966 0.851343 0.525627 0.192942
H10   H     H_    0.439852 0.148426 0.523847 0.193059
H11   H     H_    0.938964 0.351342 0.525630 0.192942
H12   H     H_    0.939939 0.648402 0.523676 0.193075
H13   H     H_    0.582731 0.863212 0.424108 0.207643
H14   H     H_    0.583726 0.137385 0.422147 0.207696
H15   H     H_    0.082730 0.363213 0.424111 0.207644
H16   H     H_    0.083823 0.637443 0.421959 0.207703
H17   H     H_    0.530727 0.853049 0.527249 0.193786
H18   H     H_    0.531623 0.146716 0.525459 0.193841
H19   H     H_    0.030725 0.353048 0.527252 0.193786
H20   H     H_    0.031712 0.646693 0.525286 0.193850
C57   C     C_3   0.467517 0.735909 0.956809 -0.387351
C58   C     C_3   0.467882 0.265422 0.956812 -0.387213
C59   C     C_3   0.967910 0.234486 0.956809 -0.387265
C60   C     C_3   0.967226 0.762937 0.956812 -0.387355
C61   C     C_3   0.536385 0.803727 0.957003 -0.386335
C62   C     C_3   0.535046 0.195924 0.956994 -0.386507
C63   C     C_3   0.034953 0.304100 0.957000 -0.386477
C64   C     C_3   0.037532 0.696602 0.956999 -0.386278
C65   C     C_3   0.493284 0.803699 0.043146 -0.390312
C66   C     C_3   0.491946 0.195951 0.043138 -0.390331
C67   C     C_3   0.991852 0.304072 0.043143 -0.390347
C68   C     C_3   0.994432 0.696628 0.043142 -0.390274
H21   H     H_    0.385097 0.763902 0.063538 0.168022
H22   H     H_    0.384776 0.238151 0.063538 0.168114
H23   H     H_    0.884756 0.261703 0.063536 0.168090
H24   H     H_    0.885414 0.734331 0.063541 0.168005
H25   H     H_    0.448840 0.763944 0.936138 0.167927
H26   H     H_    0.448518 0.238111 0.936138 0.168081
H27   H     H_    0.948499 0.261745 0.936136 0.168054
H28   H     H_    0.949155 0.734291 0.936141 0.167866
H29   H     H_    0.585533 0.814757 0.936466 0.173489
H30   H     H_    0.583910 0.183940 0.936456 0.173394
H31   H     H_    0.083795 0.316151 0.936464 0.173471
H32   H     H_    0.086909 0.686402 0.936460 0.173397
H33   H     H_    0.518975 0.833008 0.936334 0.167384
H34   H     H_    0.516918 0.167336 0.936321 0.167287
H35   H     H_    0.016775 0.332638 0.936329 0.167271
H36   H     H_    0.020754 0.666737 0.936330 0.167484
H37   H     H_    0.455230 0.832967 0.063734 0.167294
H38   H     H_    0.453176 0.167375 0.063722 0.167272
H39   H     H_    0.953031 0.332597 0.063729 0.167262
H40   H     H_    0.957012 0.666776 0.063730 0.167330
H41   H     H_    0.521789 0.814717 0.063868 0.170432
H42   H     H_    0.520167 0.183977 0.063857 0.170364
H43   H     H_    0.020050 0.316111 0.063865 0.170401
H44   H     H_    0.023166 0.686440 0.063862 0.170405
C69   C     C_1   0.389190 0.749922 0.221582 -0.137641
C70   C     C_1   0.389191 0.250076 0.221582 -0.137637
C71   C     C_1   0.889190 0.249922 0.221582 -0.137639
C72   C     C_1   0.889191 0.750076 0.221582 -0.137641
C73   C     C_3   0.536642 0.749994 0.926843 0.344473
C74   C     C_3   0.536641 0.250007 0.926843 0.344512
C75   C     C_3   0.036642 0.249994 0.926843 0.344495
C76   C     C_3   0.036641 0.750008 0.926843 0.344485
C77   C     C_3   0.424416 0.735881 0.042952 -0.389190
C78   C     C_3   0.424782 0.265449 0.042955 -0.389128
C79   C     C_3   0.924809 0.234457 0.042952 -0.389156
C80   C     C_3   0.924127 0.762964 0.042955 -0.389181
C81   C     C_3   0.463429 0.749946 0.073168 0.346514
C82   C     C_3   0.463430 0.250052 0.073168 0.346529
C83   C     C_3   0.963429 0.249946 0.073168 0.346522
C84   C     C_3   0.963430 0.750053 0.073168 0.346519
C85   C     C_3   0.517755 0.710288 0.043135 -0.388057
C86   C     C_3   0.518728 0.288730 0.043140 -0.388099
C87   C     C_3   0.018794 0.211339 0.043138 -0.388059
C88   C     C_3   0.016898 0.790539 0.043135 -0.388099
C89   C     C_3   0.560856 0.710316 0.956991 -0.390998
C90   C     C_3   0.561828 0.288703 0.956997 -0.390996
C91   C     C_3   0.061895 0.211367 0.956994 -0.390971
C92   C     C_3   0.059998 0.790512 0.956992 -0.391042
C93   C     C_1   0.422610 0.749924 0.154756 -0.126872
C94   C     C_1   0.422612 0.250074 0.154756 -0.126898
C95   C     C_1   0.922610 0.249924 0.154756 -0.126873
C96   C     C_1   0.922612 0.750074 0.154756 -0.126899
C97   C     C_1   0.577458 0.750017 0.845253 -0.125484
C98   C     C_1   0.577457 0.249985 0.845253 -0.125533
C99   C     C_1   0.077459 0.250016 0.845253 -0.125492
C100  C     C_1   0.077457 0.749985 0.845253 -0.125530
C101  C     C_1   0.610872 0.750022 0.778425 -0.130071
C102  C     C_1   0.610870 0.249980 0.778425 -0.130143
C103  C     C_1   0.110872 0.250022 0.778425 -0.130083
C104  C     C_1   0.110870 0.749981 0.778425 -0.130140
H45   H     H_    0.561346 0.671270 0.936313 0.168103
H46   H     H_    0.563290 0.327981 0.936325 0.167996
H47   H     H_    0.063425 0.172075 0.936318 0.167990
H48   H     H_    0.059654 0.829340 0.936316 0.168196
H49   H     H_    0.610454 0.719630 0.936455 0.169542
H50   H     H_    0.611183 0.278423 0.936458 0.169616
H51   H     H_    0.111232 0.221715 0.936458 0.169696
H52   H     H_    0.109787 0.782037 0.936454 0.169337
H53   H     H_    0.497602 0.671228 0.063714 0.168699
H54   H     H_    0.499547 0.328020 0.063726 0.168667
H55   H     H_    0.999682 0.172033 0.063719 0.168679
H56   H     H_    0.995911 0.829379 0.063717 0.168704
H57   H     H_    0.466292 0.697333 0.936128 0.171932
H58   H     H_    0.467618 0.304271 0.936137 0.171904
H59   H     H_    0.967714 0.195618 0.936130 0.171875
H60   H     H_    0.965178 0.801258 0.936133 0.172005
H61   H     H_    0.402550 0.697291 0.063529 0.170008
H62   H     H_    0.403877 0.304312 0.063538 0.170002
H63   H     H_    0.903971 0.195576 0.063531 0.169981
H64   H     H_    0.901437 0.801298 0.063535 0.170054
H65   H     H_    0.546710 0.719589 0.063855 0.169519
H66   H     H_    0.547441 0.278463 0.063859 0.169502
H67   H     H_    0.047488 0.221674 0.063858 0.169559
H68   H     H_    0.046045 0.782078 0.063854 0.169419
C105  C     C_R   0.737785 0.974107 0.457710 0.132178
C106  C     C_R   0.737786 0.025889 0.457708 0.132115
C107  C     C_R   0.237785 0.474107 0.457710 0.132176
C108  C     C_R   0.237786 0.525889 0.457708 0.132119
C109  C     C_R   0.750930 0.945571 0.500027 -0.097313
C110  C     C_R   0.750932 0.054429 0.500024 -0.097277
C111  C     C_R   0.250931 0.445571 0.500026 -0.097312
C112  C     C_R   0.250932 0.554429 0.500024 -0.097279
C113  C     C_R   0.765180 0.973010 0.543529 -0.185393
C114  C     C_R   0.765181 0.026993 0.543528 -0.185254
C115  C     C_R   0.265181 0.473010 0.543529 -0.185377
C116  C     C_R   0.265182 0.526993 0.543527 -0.185252
H69   H     H_    0.776181 0.953049 0.577528 0.205787
H70   H     H_    0.776182 0.046958 0.577526 0.205619
H71   H     H_    0.276182 0.453049 0.577527 0.205770
H72   H     H_    0.276184 0.546958 0.577525 0.205618
C117  C     C_3   0.719098 0.029562 0.405890 -0.475485
C118  C     C_3   0.719098 0.970427 0.405892 -0.475378
C119  C     C_3   0.219097 0.529562 0.405891 -0.475489
C120  C     C_3   0.219097 0.470428 0.405893 -0.475379
H73   H     H_    0.671117 0.046595 0.432826 0.200962
H74   H     H_    0.671116 0.953394 0.432829 0.200927
H75   H     H_    0.171116 0.546594 0.432828 0.200965
H76   H     H_    0.171116 0.453394 0.432831 0.200926
H77   H     H_    0.757156 0.046648 0.351576 0.212532
H78   H     H_    0.757155 0.953339 0.351580 0.212527
H79   H     H_    0.257154 0.546648 0.351577 0.212532
H80   H     H_    0.257154 0.453339 0.351580 0.212530
C121  C     C_R   0.804483 0.525897 0.457314 0.133270
C122  C     C_R   0.804483 0.474103 0.457314 0.133265
C123  C     C_R   0.304483 0.025897 0.457313 0.133270
C124  C     C_R   0.304483 0.974103 0.457314 0.133264
C125  C     C_R   0.749160 0.554448 0.500386 -0.087710
C126  C     C_R   0.749160 0.445551 0.500386 -0.087694
C127  C     C_R   0.249160 0.054448 0.500386 -0.087707
C128  C     C_R   0.249160 0.945551 0.500386 -0.087693
C129  C     C_R   0.691586 0.526992 0.544972 -0.214286
C130  C     C_R   0.691586 0.473007 0.544973 -0.214299
C131  C     C_R   0.191586 0.026992 0.544974 -0.214290
C132  C     C_R   0.191586 0.973007 0.544974 -0.214304
H81   H     H_    0.646705 0.546940 0.579764 0.186148
H82   H     H_    0.646705 0.453059 0.579764 0.186143
H83   H     H_    0.146705 0.046940 0.579766 0.186147
H84   H     H_    0.146705 0.953059 0.579766 0.186142
C133  C     C_3   0.874792 0.470433 0.403855 -0.477672
C134  C     C_3   0.874792 0.529568 0.403854 -0.477730
C135  C     C_3   0.374792 0.970433 0.403853 -0.477671
C136  C     C_3   0.374792 0.029568 0.403852 -0.477727
H85   H     H_    0.896990 0.453390 0.429492 0.202952
H86   H     H_    0.896990 0.546615 0.429491 0.203001
H87   H     H_    0.396991 0.953390 0.429488 0.202952
H88   H     H_    0.396990 0.046615 0.429488 0.202997
H89   H     H_    0.889792 0.453356 0.349960 0.210082
H90   H     H_    0.889791 0.546642 0.349960 0.210068
H91   H     H_    0.389790 0.953356 0.349959 0.210083
H92   H     H_    0.389790 0.046642 0.349958 0.210069
N1    N     N_R   0.430163 0.653716 0.536305 0.228741
O53   O     O_R   0.416169 0.634318 0.493476 -0.382975
O54   O     O_R   0.421449 0.625926 0.590283 -0.378897
N2    N     N_R   0.429441 0.345999 0.537803 0.228927
O55   O     O_R   0.415649 0.365933 0.495067 -0.382336
O56   O     O_R   0.420149 0.373167 0.592575 -0.379077
N3    N     N_R   0.930170 0.153712 0.536291 0.228737
O57   O     O_R   0.916173 0.134321 0.493462 -0.382989
O58   O     O_R   0.921464 0.125916 0.590259 -0.378898
N4    N     N_R   0.929369 0.845966 0.537950 0.228940
O59   O     O_R   0.915612 0.865961 0.495213 -0.382289
O60   O     O_R   0.919999 0.873063 0.592818 -0.379092

loop_
_geom_bond_atom_site_label_1
_geom_bond_atom_site_label_2
_geom_bond_distance
_ccdc_geom_bond_type
C31   C35   1.404964 A    
C113  H69   1.083017 S    
Zn5   O21   1.938922 S    
C122  C126  1.387750 A    
O23   C19   1.276703 A    
C120  H76   1.111732 S    
N3    O58   1.301300 A    
Zn9   O29   1.939538 S    
C105  C109  1.387576 A    
C119  H75   1.111729 S    
O42   C14   1.273126 A    
C27   C31   1.392566 A    
C123  C124  1.349602 A    
C65   H37   1.113087 S    
C32   C36   1.404970 A    
O46   C2    1.282542 A    
C61   C65   1.551266 S    
C59   H59   1.113092 S    
O34   C22   1.274973 A    
C64   C68   1.551268 S    
C38   N2    1.436707 S    
C112  C116  1.413133 A    
C114  H70   1.083027 S    
Zn3   O3    1.941979 S    
C63   C67   1.551266 S    
Zn16  O28   1.939494 S    
O28   C24   1.274107 A    
C64   C76   1.550141 S    
C57   C77   1.551264 S    
Zn4   O40   1.945630 S    
O11   C7    1.282510 A    
C9    C125  1.447750 S    
C117  H77   1.111532 S    
C14   C110  1.447103 S    
C52   H12   1.112231 S    
C27   C47   1.376230 A    
C30   C34   1.404977 A    
C97   C101  1.203437 T    
C63   C75   1.550133 S    
O16   C12   1.273934 A    
N3    O57   1.301490 A    
Zn16  O4    1.940921 S    
Zn12  O4    1.940691 S    
N4    O59   1.301513 A    
Zn13  O5    1.908013 S    
Zn2   O10   1.907268 S    
C55   H19   1.112235 S    
C56   H20   1.112289 S    
Zn6   O14   1.945879 S    
C75   C99   1.469268 S    
Zn7   O3    1.941822 S    
C73   C97   1.469268 S    
C80   C84   1.550143 S    
N2    O55   1.301507 A    
C17   C44   1.458198 S    
C47   C51   1.493537 S    
C60   C76   1.550179 S    
O24   C20   1.276553 A    
Zn11  O19   1.945827 S    
C68   H44   1.113093 S    
C62   H34   1.113089 S    
C57   H25   1.113084 S    
Zn10  O2    1.940691 S    
C63   H31   1.113086 S    
C7    C103  1.430515 S    
C135  H91   1.111532 S    
C107  C120  1.489360 S    
C136  H92   1.111528 S    
Zn9   O49   1.908120 S    
Zn4   O4    1.941971 S    
O5    C1    1.282631 A    
Zn7   O23   1.938922 S    
C35   H3    1.083446 S    
Zn8   O24   1.938942 S    
C70   C94   1.203410 T    
C79   H63   1.113092 S    
C86   H54   1.113083 S    
O25   C21   1.274115 A    
C71   C95   1.203408 T    
C69   C93   1.203406 T    
C12   C128  1.447748 S    
C123  C136  1.489338 S    
Zn12  O52   1.908103 S    
C74   C90   1.550152 S    
C113  C114  1.406633 A    
O22   C18   1.276549 A    
C61   H33   1.113087 S    
H22   C78   1.113091 S    
C64   H36   1.113090 S    
Zn13  O41   1.945496 S    
C62   H30   1.113087 S    
C133  H85   1.111715 S    
C63   H35   1.113087 S    
C52   H8    1.111765 S    
C105  C106  1.349264 A    
Zn16  O44   1.945531 S    
C20   C41   1.458080 S    
Zn1   O37   1.945626 S    
C50   H10   1.112234 S    
Zn2   O34   1.938759 S    
Zn3   O39   1.945626 S    
C59   C79   1.551264 S    
C86   C90   1.551269 S    
Zn6   O22   1.938942 S    
C120  H80   1.111525 S    
C77   H61   1.113092 S    
C38   C42   1.421823 A    
C129  C130  1.406675 A    
N1    O54   1.301306 A    
C118  H74   1.111734 S    
C25   C45   1.376228 A    
C83   C87   1.550146 S    
Zn10  O50   1.908103 S    
C51   H11   1.112190 S    
C65   H41   1.113096 S    
C81   C93   1.469234 S    
C105  C118  1.489358 S    
C66   H38   1.113090 S    
C60   H28   1.113092 S    
C128  C132  1.413121 A    
C121  C134  1.489339 S    
C61   H29   1.113086 S    
C36   C40   1.405814 A    
C76   C92   1.550153 S    
C44   C48   1.396724 A    
C57   C73   1.550183 S    
C18   C43   1.458082 S    
O26   C22   1.274108 A    
O31   C19   1.273918 A    
C84   C96   1.469237 S    
C49   C53   1.519669 S    
C51   C55   1.519667 S    
C88   C92   1.551269 S    
Zn5   O45   1.907361 S    
Zn14  O26   1.939494 S    
Zn7   O47   1.907361 S    
Zn8   O48   1.907338 S    
C41   C45   1.396612 A    
C131  H83   1.082947 S    
O51   C7    1.282558 A    
C10   C126  1.447748 S    
C15   C111  1.447099 S    
C118  H78   1.111524 S    
C25   C29   1.392567 A    
C40   C44   1.421820 A    
O8    C4    1.282613 A    
C57   H57   1.113093 S    
C11   C127  1.447750 S    
C87   H67   1.113091 S    
C62   C74   1.550141 S    
C85   H65   1.113090 S    
C111  C115  1.413121 A    
O52   C8    1.282576 A    
C43   C47   1.396611 A    
O40   C12   1.271400 A    
Zn13  O1    1.940992 S    
C16   C112  1.447103 S    
C90   H46   1.113084 S    
Zn3   O11   1.907245 S    
C56   H16   1.111755 S    
Zn15  O27   1.939481 S    
C59   H27   1.113084 S    
C26   C46   1.376214 A    
C82   C86   1.550151 S    
C28   C32   1.392677 A    
O9    C5    1.282510 A    
O41   C13   1.273115 A    
C79   C83   1.550143 S    
C77   C81   1.550144 S    
C65   C81   1.550162 S    
O18   C14   1.270433 A    
C23   C31   1.451229 S    
O6    C2    1.282613 A    
C6    C102  1.430517 S    
C85   H53   1.113087 S    
C60   C80   1.551266 S    
C87   C91   1.551271 S    
C61   C73   1.550133 S    
Zn11  O31   1.939538 S    
Zn12  O32   1.939526 S    
Zn13  O25   1.939481 S    
C115  C116  1.406633 A    
C124  C135  1.489341 S    
Zn15  O3    1.940992 S    
C58   H26   1.113093 S    
Zn11  O3    1.940620 S    
C106  C110  1.387575 A    
C92   H48   1.113087 S    
C136  H88   1.111726 S    
C68   C84   1.550160 S    
O43   C15   1.273113 A    
C4    C69   1.430454 S    
C110  C114  1.413133 A    
Zn5   O1    1.941822 S    
C26   C30   1.392652 A    
C33   C37   1.406078 A    
C107  C108  1.349264 A    
C75   C91   1.550151 S    
C28   C56   1.493533 S    
C35   C39   1.406085 A    
C88   H56   1.113083 S    
C73   C89   1.550152 S    
C90   H50   1.113082 S    
C109  C113  1.413120 A    
C86   H66   1.113086 S    
O35   C23   1.274996 A    
C67   H43   1.113096 S    
N4    O60   1.301440 A    
C131  C132  1.406675 A    
O32   C20   1.274087 A    
C60   H60   1.113093 S    
C89   H49   1.113086 S    
C52   C56   1.519693 S    
C121  C122  1.349605 A    
Zn9   O17   1.945827 S    
C5    C101  1.430515 S    
C64   H32   1.113087 S    
N2    O56   1.301411 A    
C80   H64   1.113086 S    
Zn14  O42   1.945531 S    
C134  H86   1.111726 S    
H23   C79   1.113082 S    
H24   C80   1.113091 S    
Zn2   O38   1.945630 S    
Zn3   O35   1.938778 S    
C59   C75   1.550183 S    
C54   H18   1.112291 S    
C125  C129  1.413124 A    
C108  C112  1.387576 A    
C127  C131  1.413125 A    
C88   H68   1.113091 S    
C133  C134  1.540889 S    
O7    C3    1.282631 A    
O39   C11   1.271397 A    
C8    C104  1.430517 S    
C115  H71   1.083016 S    
C135  C136  1.540891 S    
C76   C100  1.469270 S    
C91   H51   1.113084 S    
O47   C3    1.282560 A    
C107  C111  1.387576 A    
C66   H42   1.113096 S    
C106  C117  1.489356 S    
C34   C38   1.405837 A    
C122  C133  1.489341 S    
O12   C8    1.282529 A    
C36   H4    1.083557 S    
C67   H39   1.113085 S    
C129  H81   1.082949 S    
C68   H40   1.113089 S    
O19   C15   1.270446 A    
C51   H7    1.111670 S    
Zn15  O43   1.945496 S    
C58   C74   1.550180 S    
C49   H5    1.111673 S    
C72   C96   1.203408 T    
C121  C125  1.387745 A    
C53   H13   1.111666 S    
Zn6   O46   1.907338 S    
Zn14  O6    1.908030 S    
C25   C53   1.493495 S    
C119  H79   1.111533 S    
C27   C55   1.493495 S    
C83   C95   1.469232 S    
C124  C128  1.387751 A    
C87   H55   1.113088 S    
O38   C10   1.271400 A    
O50   C6    1.282576 A    
C99   C103  1.203437 T    
Zn2   O2    1.941971 S    
N1    O53   1.301483 A    
Zn14  O2    1.940921 S    
O37   C9    1.271397 A    
C84   C88   1.550151 S    
C123  C127  1.387744 A    
C134  H90   1.111530 S    
Zn8   O4    1.941830 S    
Zn4   O36   1.938759 S    
O21   C17   1.276706 A    
C117  C118  1.540873 S    
C46   C50   1.493628 S    
C81   C85   1.550146 S    
O49   C5    1.282558 A    
C45   C49   1.493538 S    
C19   C42   1.458177 S    
C100  C104  1.203438 T    
Zn10  O30   1.939526 S    
C85   C89   1.551271 S    
C78   H62   1.113088 S    
Zn12  O20   1.945792 S    
C37   C41   1.421711 A    
C116  H72   1.083027 S    
Zn15  O7    1.908013 S    
Zn16  O8    1.908030 S    
C92   H52   1.113079 S    
Zn1   O9    1.907245 S    
C3    C70   1.430458 S    
C108  C119  1.489357 S    
C55   H15   1.111663 S    
Zn4   O12   1.907268 S    
Zn11  O51   1.908120 S    
Zn5   O13   1.945883 S    
C26   C54   1.493531 S    
C33   H1    1.083440 S    
C82   C94   1.469236 S    
Zn6   O2    1.941830 S    
Zn7   O15   1.945883 S    
Zn8   O16   1.945879 S    
C13   C109  1.447099 S    
C53   H17   1.112235 S    
C98   C102  1.203438 T    
O27   C23   1.274115 A    
C117  H73   1.111731 S    
C21   C29   1.451225 S    
O14   C10   1.273934 A    
C50   C54   1.519691 S    
O29   C17   1.273909 A    
O13   C9    1.273940 A    
Zn10  O18   1.945792 S    
C42   C46   1.396720 A    
Zn9   O1    1.940620 S    
C37   N1    1.436785 S    
C62   C66   1.551268 S    
C135  H87   1.111717 S    
C119  C120  1.540873 S    
C24   C32   1.451232 S    
C58   H58   1.113091 S    
O45   C1    1.282562 A    
C54   H14   1.111756 S    
C126  C130  1.413121 A    
C28   C48   1.376215 A    
C132  H84   1.082951 S    
O33   C21   1.274997 A    
O15   C11   1.273940 A    
C91   H47   1.113083 S    
C74   C98   1.469271 S    
C89   H45   1.113082 S    
O44   C16   1.273126 A    
Zn1   O33   1.938778 S    
O20   C16   1.270433 A    
C39   N3    1.436783 S    
O10   C6    1.282529 A    
C22   C30   1.451246 S    
C34   H2    1.083545 S    
O48   C4    1.282542 A    
H21   C77   1.113082 S    
O36   C24   1.274981 A    
C78   C82   1.550143 S    
C1    C72   1.430458 S    
C66   C82   1.550159 S    
C2    C71   1.430454 S    
Zn1   O1    1.941979 S    
C40   N4    1.436670 S    
C130  H82   1.082951 S    
C133  H89   1.111531 S    
C58   C78   1.551264 S    
C39   C43   1.421715 A    
C49   H9    1.112190 S    
O17   C13   1.270444 A    
C50   H6    1.111767 S    
C67   C83   1.550163 S    
C29   C33   1.404965 A    
C48   C52   1.493639 S    
O30   C18   1.274089 A    
