data_mof_unit_67620.cif
_audit_creation_date              2012-12-10T18:19:54-0500
_audit_creation_method            fapswitch 2.2
_symmetry_space_group_name_H-M    P1
_symmetry_Int_Tables_number       1
_space_group_crystal_system       triclinic
_cell_length_a                    11.159674
_cell_length_b                    11.117037
_cell_length_c                    9.836378
_cell_angle_alpha                 89.768721
_cell_angle_beta                  90.175895
_cell_angle_gamma                 88.086336
_cell_volume                      1219.62892597

loop_
_atom_site_label
_atom_site_type_symbol
_atom_type_description
_atom_site_fract_x
_atom_site_fract_y
_atom_site_fract_z
_atom_type_partial_charge
C1    C     C_R   0.502307 0.260317 0.499949 0.871131
C2    C     C_R   0.497058 0.739614 0.500108 0.874150
C3    C     C_3   0.467856 0.961588 0.624320 0.057095
C4    C     C_3   0.530474 0.038053 0.376064 0.057115
C5    C     C_3   0.531482 0.601026 0.047974 0.248266
C6    C     C_3   0.468032 0.399123 0.951076 0.240066
C7    C     C_3   0.427728 0.582255 0.949444 0.233134
C8    C     C_3   0.571834 0.417324 0.050323 0.265952
C9    C     C_3   0.603536 0.518861 0.952311 0.180834
C10   C     C_3   0.396350 0.480764 0.047663 0.201882
C11   C     C_R   0.260418 0.496479 0.499674 0.874234
C12   C     C_R   0.739548 0.503083 0.500356 0.879529
C13   C     C_3   0.040190 0.426813 0.600017 0.069314
C14   C     C_3   0.959651 0.571897 0.400247 0.065964
C15   C     C_3   0.957129 0.390380 0.482467 0.353341
C16   C     C_3   0.042528 0.608243 0.517937 0.352843
C17   C     C_3   0.877131 0.505511 0.501384 -0.330868
C18   C     C_3   0.122737 0.493214 0.498777 -0.329122
C19   C     C_3   0.961900 0.541719 0.619585 0.426987
C20   C     C_3   0.037824 0.456743 0.380541 0.424827
C21   C     C_3   0.579900 0.034088 0.591423 0.384091
C22   C     C_3   0.418460 0.965721 0.408963 0.380989
C23   C     C_3   0.605907 0.951675 0.468301 0.383402
C24   C     C_3   0.392386 0.048078 0.532102 0.381664
C25   C     C_3   0.494522 0.877155 0.501345 -0.331168
C26   C     C_3   0.503823 0.122674 0.498971 -0.328674
Cu1   Cu    Cu3+1 0.500030 0.499990 0.643150 0.965435
Cu2   Cu    Cu3+1 0.499970 0.500010 0.356850 0.987598
N1    N     N_3   0.500090 0.499970 0.858290 -0.285240
N2    N     N_3   0.499910 0.500030 0.141710 -0.272948
O1    O     O_R   0.500060 0.316850 0.620870 -0.578496
O2    O     O_R   0.499940 0.683150 0.379130 -0.558010
O3    O     O_R   0.500000 0.316860 0.379090 -0.607530
O4    O     O_R   0.500000 0.683140 0.620910 -0.608281
O5    O     O_R   0.316880 0.499960 0.620870 -0.617894
O6    O     O_R   0.683120 0.500040 0.379130 -0.600737
O7    O     O_R   0.316830 0.499970 0.379090 -0.554077
O8    O     O_R   0.683170 0.500030 0.620910 -0.551663
O9    O     O_3   0.906807 0.278061 0.460532 -0.587586
C27   C     C_3   0.997830 0.188166 0.465804 -0.353043
H1    H     H_    0.090736 0.220242 0.452777 0.206400
H2    H     H_    0.985008 0.124331 0.382101 0.140173
H3    H     H_    0.989479 0.139467 0.562795 0.188110
O10   O     O_3   0.092216 0.720716 0.540676 -0.588030
C28   C     C_3   0.000357 0.809907 0.539577 -0.353658
H4    H     H_    0.907700 0.776931 0.551816 0.205312
H5    H     H_    0.007561 0.860883 0.443995 0.185850
H6    H     H_    0.013473 0.871691 0.625281 0.142623
N3    N     N_2   0.082709 0.346290 0.706813 -0.419524
H7    H     H_    0.146123 0.283195 0.675096 0.279578
C29   C     C_3   0.990245 0.297881 0.791463 -0.676517
H8    H     H_    0.028909 0.226009 0.858658 0.188842
H9    H     H_    0.917163 0.259913 0.730262 0.270312
H10   H     H_    0.951544 0.370583 0.854668 0.263245
N4    N     N_2   0.916974 0.653123 0.294209 -0.409503
H11   H     H_    0.853326 0.715705 0.326608 0.289850
C30   C     C_3   0.009399 0.702910 0.210642 -0.676954
H12   H     H_    0.970268 0.774149 0.142934 0.188965
H13   H     H_    0.049676 0.630678 0.147936 0.260790
H14   H     H_    0.081106 0.742290 0.272756 0.269879
O11   O     O_3   0.920910 0.584597 0.745543 -0.567617
C31   C     C_3   0.010808 0.649730 0.809462 -0.297019
H15   H     H_    0.103438 0.624534 0.776336 0.198244
H16   H     H_    0.990782 0.747194 0.798582 0.166918
H17   H     H_    0.009607 0.633271 0.918791 0.151907
O12   O     O_3   0.078529 0.413350 0.254541 -0.568713
C32   C     C_3   0.989564 0.345179 0.192944 -0.297458
H18   H     H_    0.896637 0.373907 0.221618 0.197667
H19   H     H_    0.008166 0.248474 0.211109 0.172218
H20   H     H_    0.993883 0.353729 0.082528 0.147163
O13   O     O_3   0.718991 0.899877 0.438961 -0.616896
C33   C     C_3   0.803090 0.991387 0.434706 -0.322311
H21   H     H_    0.852097 0.993357 0.532073 0.193408
H22   H     H_    0.765159 0.084190 0.417333 0.235013
H23   H     H_    0.865364 0.971341 0.349805 0.148361
O14   O     O_3   0.278865 0.099050 0.561103 -0.623709
C34   C     C_3   0.195213 0.006940 0.564034 -0.323443
H24   H     H_    0.132628 0.025855 0.648857 0.147579
H25   H     H_    0.233582 0.914196 0.580489 0.236155
H26   H     H_    0.146465 0.005354 0.466530 0.194200
O15   O     O_3   0.669964 0.072498 0.681167 -0.577234
C35   C     C_3   0.714068 0.975411 0.761853 -0.371370
H27   H     H_    0.730447 0.891153 0.703246 0.194000
H28   H     H_    0.651989 0.958060 0.846370 0.174071
H29   H     H_    0.800860 0.000399 0.807191 0.168948
O16   O     O_3   0.328440 0.927585 0.318944 -0.582717
C36   C     C_3   0.284528 0.024824 0.238288 -0.355888
H30   H     H_    0.346305 0.041751 0.153321 0.181811
H31   H     H_    0.268824 0.109246 0.296803 0.195130
H32   H     H_    0.197397 0.000252 0.193477 0.166509
N5    N     N_2   0.439684 0.923184 0.761604 -0.419691
H33   H     H_    0.479798 0.844358 0.796560 0.292480
C37   C     C_3   0.330315 0.964942 0.827881 -0.674103
H34   H     H_    0.257903 0.901769 0.809108 0.240753
H35   H     H_    0.299561 0.055832 0.795980 0.263817
H36   H     H_    0.346748 0.974268 0.937283 0.204582
N6    N     N_2   0.558325 0.075960 0.238626 -0.417736
H37   H     H_    0.519868 0.155877 0.204625 0.297573
C38   C     C_3   0.666117 0.031889 0.170931 -0.688171
H38   H     H_    0.739850 0.093957 0.187934 0.242021
H39   H     H_    0.648025 0.022474 0.061797 0.201054
H40   H     H_    0.695957 0.940900 0.203393 0.267269
N7    N     N_2   0.344844 0.674790 0.896777 -0.409916
H41   H     H_    0.311557 0.656735 0.801756 0.293048
C39   C     C_3   0.255823 0.725298 0.990225 -0.756242
H42   H     H_    0.172380 0.750203 0.936951 0.195921
H43   H     H_    0.282780 0.811435 0.031545 0.245044
H44   H     H_    0.237838 0.665464 0.076635 0.276028
N8    N     N_2   0.654919 0.325039 0.103095 -0.409940
H45   H     H_    0.689447 0.344217 0.197212 0.290077
C40   C     C_3   0.742612 0.272970 0.009156 -0.751459
H46   H     H_    0.826640 0.248678 0.061558 0.194928
H47   H     H_    0.759715 0.331538 0.921215 0.277464
H48   H     H_    0.714827 0.186177 0.970311 0.244885
N9    N     N_2   0.581185 0.711464 0.094722 -0.429256
H49   H     H_    0.641957 0.747976 0.029134 0.226041
C41   C     C_3   0.495373 0.800779 0.137608 -0.525592
H50   H     H_    0.476221 0.865740 0.054739 0.202818
H51   H     H_    0.414040 0.759486 0.177607 0.283429
H52   H     H_    0.534318 0.847368 0.222478 0.274539
N10   N     N_2   0.415353 0.292084 0.899906 -0.456838
H53   H     H_    0.352954 0.309025 0.824191 0.279979
C42   C     C_3   0.499489 0.197505 0.867921 -0.556624
H54   H     H_    0.513891 0.139055 0.957492 0.228977
H55   H     H_    0.463732 0.145782 0.785156 0.263806
H56   H     H_    0.582324 0.234420 0.826490 0.286170
N11   N     N_2   0.720491 0.549931 0.906738 -0.381245
H57   H     H_    0.716748 0.620221 0.838039 0.294598
C43   C     C_3   0.804627 0.567195 0.016926 -0.607377
H58   H     H_    0.884002 0.508243 0.001740 0.237959
H59   H     H_    0.768231 0.543998 0.118224 0.257099
H60   H     H_    0.830275 0.662507 0.019942 0.213860
N12   N     N_2   0.280253 0.448449 0.094482 -0.370567
H61   H     H_    0.285008 0.377587 0.162412 0.303375
C44   C     C_3   0.195076 0.431488 0.985695 -0.616945
H62   H     H_    0.112461 0.483016 0.008290 0.242807
H63   H     H_    0.177777 0.334342 0.974960 0.226441
H64   H     H_    0.225516 0.466315 0.886313 0.237684

loop_
_geom_bond_atom_site_label_1
_geom_bond_atom_site_label_2
_ccdc_geom_bond_type
C7    C10   S    
C21   C26   S    
C11   C18   S    
C37   H34   S    
C7    N1    S    
C44   H64   S    
C40   H46   S    
C10   N12   S    
C36   H30   S    
N6    H37   S    
C1    O3    A    
C44   H62   S    
C28   H4    S    
C43   H59   S    
C39   H43   S    
C9    N11   S    
C13   C18   S    
C2    O2    A    
C20   O12   S    
C24   C26   S    
C43   H58   S    
C41   H51   S    
C42   H55   S    
Cu1   N1    S    
Cu1   O8    S    
N9    H49   S    
C2    C25   S    
C1    O1    A    
C3    N5    S    
C11   O7    A    
C31   H16   S    
N8    C40   S    
C27   H3    S    
C8    C9    S    
N3    C29   S    
C22   C25   S    
C12   C17   S    
C12   O6    A    
C16   O10   S    
C18   C20   S    
C9    N1    S    
C43   H60   S    
C2    O4    A    
C28   H5    S    
C14   N4    S    
C37   H35   S    
C7    N7    S    
C4    N6    S    
C5    N9    S    
C14   C17   S    
C3    C24   S    
C33   H23   S    
N6    C38   S    
O15   C35   S    
C34   H25   S    
Cu1   O4    S    
C15   C20   S    
C39   H44   S    
C13   C19   S    
Cu1   O1    S    
C32   H18   S    
C14   C20   S    
C42   H54   S    
O14   C34   S    
N7    C39   S    
C41   H52   S    
N5    H33   S    
C5    C7    S    
C4    C23   S    
O16   C36   S    
C24   O14   S    
C30   H14   S    
C6    C8    S    
N9    C41   S    
C34   H24   S    
C29   H8    S    
C32   H19   S    
N11   C43   S    
C5    C9    S    
C31   H15   S    
C23   O13   S    
N5    C37   S    
C4    C22   S    
C10   N2    S    
C27   H2    S    
C38   H38   S    
C13   C15   S    
Cu2   O2    S    
C6    N1    S    
N4    H11   S    
C40   H47   S    
N4    C30   S    
C15   O9    S    
N10   H53   S    
C13   N3    S    
C33   H22   S    
C27   H1    S    
C38   H39   S    
C21   O15   S    
Cu2   O3    S    
N3    H7    S    
C37   H36   S    
C35   H28   S    
C21   C23   S    
N12   H61   S    
C22   C24   S    
C3    C21   S    
N11   H57   S    
O9    C27   S    
O10   C28   S    
C5    N2    S    
C28   H6    S    
C44   H63   S    
C31   H17   S    
C23   C25   S    
C33   H21   S    
C42   H56   S    
C6    C10   S    
C4    C26   S    
C15   C17   S    
C35   H29   S    
C39   H42   S    
C41   H50   S    
C29   H10   S    
Cu1   O5    S    
C32   H20   S    
C11   O5    A    
C8    N2    S    
O13   C33   S    
C8    N8    S    
C34   H26   S    
C30   H12   S    
C1    C26   S    
Cu2   O7    S    
C19   O11   S    
C16   C19   S    
Cu2   N2    S    
C17   C19   S    
O12   C32   S    
C40   H48   S    
C14   C16   S    
C22   O16   S    
C12   O8    A    
O11   C31   S    
N10   C42   S    
C30   H13   S    
C3    C25   S    
Cu2   O6    S    
C16   C18   S    
C35   H27   S    
C36   H32   S    
N7    H41   S    
N12   C44   S    
C36   H31   S    
C6    N10   S    
C29   H9    S    
N8    H45   S    
C38   H40   S    
Cu1   Cu2   S    
