data_mof_unit_28887.cif
_audit_creation_date              2012-12-11T14:42:19-0500
_audit_creation_method            fapswitch 2.2
_symmetry_space_group_name_H-M    P1
_symmetry_Int_Tables_number       1
_space_group_crystal_system       triclinic
_cell_length_a                    18.992872
_cell_length_b                    10.858831
_cell_length_c                    18.836415
_cell_angle_alpha                 89.797987
_cell_angle_beta                  90.22013
_cell_angle_gamma                 90.154779
_cell_volume                      3884.76267261

loop_
_atom_site_label
_atom_site_type_symbol
_atom_type_description
_atom_site_fract_x
_atom_site_fract_y
_atom_site_fract_z
_atom_type_partial_charge
C1    C     C_R   0.727424 0.954217 0.853492 0.549060
C2    C     C_R   0.250823 0.401344 0.921189 0.028453
C3    C     C_1   0.981461 0.452023 0.575277 0.221604
C4    C     C_R   0.262503 0.934430 0.070007 0.033056
C5    C     C_R   0.750814 0.901284 0.921183 0.028039
C6    C     C_R   0.821530 0.413575 0.027137 -0.131026
C7    C     C_R   0.211262 0.306429 0.952270 -0.127872
C8    C     C_R   0.321536 0.913726 0.027123 -0.131025
C9    C     C_R   0.711125 0.806571 0.952320 -0.127645
C10   C     C_R   0.814318 0.405281 0.954589 -0.128418
C11   C     C_R   0.221550 0.275945 0.023019 -0.127492
C12   C     C_R   0.314312 0.905415 0.954576 -0.128686
C13   C     C_R   0.274753 0.959773 0.144583 0.535024
C14   C     C_R   0.721423 0.776077 0.023062 -0.127467
C15   C     C_R   0.747544 0.413250 0.923651 0.032126
C16   C     C_R   0.271951 0.338704 0.063742 0.018151
C17   C     C_R   0.247527 0.913234 0.923657 0.031940
C18   C     C_R   0.771954 0.838638 0.063735 0.018294
C19   C     C_R   0.524923 0.280624 0.525758 -0.044202
C20   C     C_R   0.533639 0.266817 0.453437 -0.051931
C21   C     C_R   0.032339 0.779136 0.523351 -0.045998
C22   C     C_R   0.038625 0.766437 0.450555 -0.052049
C23   C     C_R   0.508701 0.159256 0.421473 -0.031307
C24   C     C_R   0.227425 0.454222 0.853492 0.540622
C25   C     C_R   0.509772 0.175044 0.568671 -0.029993
C26   C     C_R   0.012954 0.659211 0.418857 -0.030885
C27   C     C_R   0.016457 0.673515 0.566117 -0.026964
C28   C     C_R   0.495045 0.052383 0.462881 -0.058685
C29   C     C_R   0.493082 0.061808 0.536678 -0.072641
C30   C     C_R   0.002808 0.550983 0.459781 -0.054842
C31   C     C_R   0.001916 0.559273 0.533642 -0.063595
C32   C     C_R   0.790072 0.314604 0.529892 -0.117254
C33   C     C_R   0.186201 0.388018 0.457536 -0.143726
C34   C     C_R   0.281078 0.802037 0.527600 -0.110505
C35   C     C_R   0.774756 0.459782 0.144580 0.535288
C36   C     C_R   0.678333 0.913488 0.450471 -0.131601
C37   C     C_R   0.791911 0.327831 0.457424 -0.130202
C38   C     C_R   0.180426 0.396756 0.529969 -0.130601
C39   C     C_R   0.284352 0.818865 0.455210 -0.129428
C40   C     C_R   0.667390 0.940056 0.521422 -0.132876
C41   C     C_R   0.560103 0.182073 0.858142 0.563630
C42   C     C_R   0.442299 0.181833 0.141464 0.535189
C43   C     C_R   0.060098 0.682072 0.858143 0.562681
C44   C     C_R   0.942294 0.681834 0.141465 0.534809
C45   C     C_R   0.754848 0.423593 0.425312 0.028157
C46   C     C_R   0.696075 0.450278 0.038999 -0.149733
C47   C     C_R   0.238748 0.431378 0.571562 0.023510
C48   C     C_R   0.253935 0.923155 0.424908 0.029892
C49   C     C_R   0.723626 0.977162 0.564492 0.021653
C50   C     C_R   0.713424 0.503379 0.466564 -0.114594
C51   C     C_R   0.303070 0.458821 0.539149 -0.150597
C52   C     C_R   0.217825 0.008534 0.467488 -0.113525
C53   C     C_R   0.790830 0.992670 0.534880 -0.140029
C54   C     C_R   0.708955 0.486204 0.539503 -0.135130
C55   C     C_R   0.309359 0.447095 0.465914 -0.138527
C56   C     C_R   0.213645 0.990493 0.540322 -0.136846
C57   C     C_R   0.305578 0.456934 0.960038 -0.130960
C58   C     C_R   0.801988 0.965640 0.463662 -0.140358
C59   C     C_R   0.748085 0.392494 0.571400 0.026530
C60   C     C_R   0.251057 0.408824 0.425144 0.018532
C61   C     C_R   0.246430 0.888270 0.570574 0.029732
C62   C     C_R   0.746141 0.921959 0.421674 0.019464
C63   C     C_R   0.738097 0.364627 0.852626 0.543121
C64   C     C_R   0.275862 0.312949 0.139993 0.540110
C65   C     C_R   0.238094 0.864624 0.852628 0.540798
C66   C     C_R   0.775864 0.812935 0.139994 0.540088
C67   C     C_R   0.710426 0.000208 0.639622 0.553477
C68   C     C_R   0.196055 0.950095 0.039023 -0.149750
C69   C     C_R   0.272445 0.956573 0.353016 0.558153
C70   C     C_R   0.226273 0.458403 0.645856 0.544073
C71   C     C_R   0.772586 0.456786 0.353154 0.559191
C72   C     C_R   0.530680 0.177571 0.643287 0.548041
C73   C     C_R   0.473175 0.174365 0.353421 0.560047
C74   C     C_R   0.032727 0.677482 0.642020 0.556872
C75   C     C_R   0.974075 0.674447 0.352602 0.560650
C76   C     C_R   0.738967 0.359900 0.645324 0.544087
C77   C     C_R   0.260905 0.362684 0.353740 0.554649
C78   C     C_R   0.238630 0.858817 0.644984 0.548964
C79   C     C_R   0.805710 0.956602 0.959964 -0.131120
C80   C     C_R   0.760250 0.864075 0.353340 0.554384
C81   C     C_2   0.539270 0.177984 0.932260 -0.098856
C82   C     C_2   0.466884 0.177139 0.068544 -0.102800
C83   C     C_2   0.039255 0.677979 0.932259 -0.098196
C84   C     C_2   0.966871 0.677139 0.068542 -0.102615
C85   C     C_2   0.493890 0.075154 0.039142 -0.154938
C86   C     C_2   0.519978 0.074030 0.965664 -0.153925
C87   C     C_2   0.993858 0.575146 0.039132 -0.154849
C88   C     C_2   0.019949 0.574026 0.965656 -0.153438
C89   C     C_R   0.688512 0.439421 0.965783 -0.147586
C90   C     C_R   0.762504 0.434442 0.070003 0.033023
C91   C     C_R   0.316385 0.425204 0.031028 -0.140311
C92   C     C_R   0.188486 0.939246 0.965807 -0.147666
C93   C     C_R   0.816524 0.924865 0.030957 -0.140293
C94   C     C_1   0.527159 0.405859 0.553268 0.242045
C95   C     C_1   0.561207 0.368036 0.410723 0.229695
C96   C     C_1   0.037685 0.903712 0.551381 0.250126
C97   C     C_1   0.064965 0.868037 0.407369 0.229302
C98   C     C_1   0.483335 0.932582 0.430636 0.230642
C99   C     C_1   0.470635 0.956673 0.579053 0.220241
C100  C     C_1   0.992292 0.431476 0.426756 0.227109
Cr1   Cr    Cr6+3 0.769270 0.163730 0.750710 1.032858
Cr2   Cr    Cr6+3 0.385840 0.322500 0.252290 1.039073
Cr3   Cr    Cr6+3 0.114160 0.822500 0.747710 1.042281
Cr4   Cr    Cr6+3 0.885840 0.822500 0.252290 1.039939
Cr5   Cr    Cr6+3 0.230730 0.163730 0.249290 1.042094
Cr6   Cr    Cr6+3 0.269270 0.663730 0.750710 1.036088
Cr7   Cr    Cr6+3 0.730730 0.663730 0.249290 1.040495
Cr8   Cr    Cr6+3 0.612620 0.009790 0.748780 1.040913
Cr9   Cr    Cr6+3 0.387380 0.009790 0.251220 1.044510
Cr10  Cr    Cr6+3 0.112620 0.509790 0.748780 1.044630
Cr11  Cr    Cr6+3 0.887380 0.509790 0.251220 1.045537
Cr12  Cr    Cr6+3 0.614160 0.322500 0.747710 1.036467
H1    H     H_    0.495878 0.989273 0.068767 0.149942
H2    H     H_    0.348038 0.488661 0.570234 0.143708
H3    H     H_    0.195473 0.091724 0.445019 0.160897
H4    H     H_    0.835251 0.021171 0.567118 0.146102
H5    H     H_    0.676224 0.546527 0.570883 0.154906
H6    H     H_    0.360357 0.462390 0.441855 0.151799
H7    H     H_    0.186256 0.056729 0.572938 0.147192
H8    H     H_    0.854956 0.971866 0.442796 0.147753
H9    H     H_    0.636257 0.444946 0.942801 0.125912
H10   H     H_    0.356964 0.472571 0.060932 0.134636
H11   H     H_    0.136222 0.944651 0.942838 0.125816
H12   H     H_    0.523368 0.985681 0.939058 0.148488
H13   H     H_    0.857228 0.972013 0.060813 0.134615
H14   H     H_    0.650414 0.470023 0.071264 0.126896
H15   H     H_    0.337201 0.529861 0.937010 0.136016
H16   H     H_    0.150387 0.969713 0.071302 0.127015
H17   H     H_    0.837456 0.029319 0.936879 0.135930
H18   H     H_    0.873883 0.405146 0.049478 0.132259
H19   H     H_    0.169486 0.260561 0.923219 0.133627
H20   H     H_    0.373899 0.905432 0.049454 0.132236
H21   H     H_    0.669241 0.760888 0.923323 0.134159
H22   H     H_    0.860582 0.385751 0.923096 0.134584
H23   H     H_    0.995833 0.489257 0.068752 0.150078
H24   H     H_    0.187876 0.206797 0.046803 0.134398
H25   H     H_    0.360581 0.886003 0.923065 0.134471
H26   H     H_    0.687654 0.707091 0.046881 0.134383
H27   H     H_    0.820816 0.241116 0.553179 0.153968
H28   H     H_    0.140638 0.358297 0.427346 0.154934
H29   H     H_    0.305255 0.720400 0.549892 0.154675
H30   H     H_    0.634440 0.879867 0.419160 0.152088
H31   H     H_    0.461178 0.261877 0.038549 0.098735
H32   H     H_    0.540572 0.265490 0.959738 0.096704
H33   H     H_    0.961176 0.761888 0.038553 0.098873
H34   H     H_    0.023334 0.485681 0.939046 0.148532
H35   H     H_    0.040562 0.765481 0.959740 0.096591
H36   H     H_    0.825077 0.266700 0.426932 0.153438
H37   H     H_    0.129321 0.378388 0.553003 0.158703
H38   H     H_    0.312893 0.752965 0.423301 0.147785
H39   H     H_    0.615373 0.927697 0.543346 0.142882
H40   H     H_    0.686494 0.581312 0.442960 0.165884
N1    N     N_1   0.528525 0.505596 0.574754 -0.286579
N2    N     N_1   0.582104 0.448250 0.376052 -0.283331
N3    N     N_1   0.041399 0.003027 0.573260 -0.284856
N4    N     N_1   0.085155 0.948738 0.372636 -0.277912
N5    N     N_1   0.474221 0.836884 0.405276 -0.277593
N6    N     N_1   0.452668 0.872901 0.612631 -0.265810
N7    N     N_1   0.984046 0.336099 0.400713 -0.282944
N8    N     N_1   0.965079 0.366533 0.608231 -0.274762
O1    O     O_R   0.784320 0.290430 0.830510 -0.515531
O2    O     O_R   0.456080 0.282180 0.333210 -0.497835
O3    O     O_R   0.043920 0.782180 0.666790 -0.497996
O4    O     O_R   0.956080 0.782180 0.333210 -0.497982
O5    O     O_R   0.679040 0.374160 0.674430 -0.496425
O6    O     O_R   0.320960 0.374160 0.325570 -0.497606
O7    O     O_R   0.179040 0.874160 0.674430 -0.495745
O8    O     O_R   0.820960 0.874160 0.325570 -0.495352
O9    O     O_3   0.665350 0.165340 0.749070 -0.294027
O10   O     O_3   0.334650 0.165340 0.250930 -0.294696
O11   O     O_3   0.165350 0.665340 0.749070 -0.277440
O12   O     O_R   0.215680 0.290430 0.169490 -0.502483
O13   O     O_3   0.834650 0.665340 0.250930 -0.293820
O14   O     O_R   0.762640 0.040960 0.825200 -0.497950
O15   O     O_R   0.237360 0.040960 0.174800 -0.520610
O16   O     O_R   0.262640 0.540960 0.825200 -0.502314
O17   O     O_R   0.737360 0.540960 0.174800 -0.520798
O18   O     O_R   0.667400 0.923970 0.829950 -0.524972
O19   O     O_R   0.332600 0.923970 0.170050 -0.525614
O20   O     O_R   0.167400 0.423970 0.829950 -0.528268
O21   O     O_R   0.832600 0.423970 0.170050 -0.525238
O22   O     O_R   0.553960 0.081340 0.821780 -0.490407
O23   O     O_R   0.284320 0.790430 0.830510 -0.515817
O24   O     O_R   0.446040 0.081340 0.178220 -0.495147
O25   O     O_R   0.053960 0.581340 0.821780 -0.490234
O26   O     O_R   0.946040 0.581340 0.178220 -0.495269
O27   O     O_R   0.543180 0.283240 0.826740 -0.510082
O28   O     O_R   0.456820 0.283240 0.173260 -0.509252
O29   O     O_R   0.043180 0.783240 0.826740 -0.509835
O30   O     O_R   0.956820 0.783240 0.173260 -0.509819
O31   O     O_R   0.678360 0.375140 0.822710 -0.519748
O32   O     O_R   0.321640 0.375140 0.177290 -0.510090
O33   O     O_R   0.178360 0.875140 0.822710 -0.522449
O34   O     O_R   0.715680 0.790430 0.169490 -0.503487
O35   O     O_R   0.821640 0.875140 0.177290 -0.510270
O36   O     O_R   0.785050 0.289380 0.670560 -0.514258
O37   O     O_R   0.214950 0.289380 0.329440 -0.510286
O38   O     O_R   0.285050 0.789380 0.670560 -0.502565
O39   O     O_R   0.714950 0.789380 0.329440 -0.510853
O40   O     O_R   0.763320 0.039990 0.676930 -0.500238
O41   O     O_R   0.236680 0.039990 0.323070 -0.485725
O42   O     O_R   0.263320 0.539990 0.676930 -0.502601
O43   O     O_R   0.736680 0.539990 0.323070 -0.486246
O44   O     O_R   0.668130 0.922920 0.670000 -0.500587
O45   O     O_R   0.554640 0.080370 0.673500 -0.502162
O46   O     O_R   0.331870 0.922920 0.330000 -0.498740
O47   O     O_R   0.168130 0.422920 0.670000 -0.516304
O48   O     O_R   0.831870 0.422920 0.330000 -0.501975
O49   O     O_R   0.445360 0.080370 0.326500 -0.485508
O50   O     O_R   0.054640 0.580370 0.673500 -0.485888
O51   O     O_R   0.945360 0.580370 0.326500 -0.484336
O52   O     O_R   0.543920 0.282180 0.666790 -0.498595

loop_
_geom_bond_atom_site_label_1
_geom_bond_atom_site_label_2
_ccdc_geom_bond_type
C70   O42   A    
C87   C88   S    
C49   C53   A    
Cr10  O25   S    
C58   C62   A    
Cr5   O12   S    
C45   C71   S    
C43   C83   S    
Cr6   O11   S    
C14   C18   A    
C2    C7    A    
C42   C82   S    
C84   C87   D    
C48   C69   S    
C6    H18   S    
Cr12  O27   S    
C66   O35   A    
C2    C57   A    
C34   H29   S    
C46   C89   A    
C72   O52   A    
C84   H33   S    
Cr9   O10   S    
Cr3   O7    S    
C39   H38   S    
C75   O51   A    
C78   O7    A    
C50   C54   A    
C74   O50   A    
C1    C5    S    
Cr12  O52   S    
C73   O49   A    
C28   C29   A    
C79   C93   A    
C10   C15   A    
C30   C31   A    
C36   C62   A    
C96   N3    T    
C15   C89   A    
C43   O25   A    
C33   H28   S    
C28   C98   S    
C40   C49   A    
C79   H17   S    
C30   C100  S    
Cr11  O21   S    
C41   O27   A    
C63   O1    A    
C11   C16   A    
C97   N4    T    
C4    C13   S    
C36   H30   S    
C67   O44   A    
C76   O36   A    
C44   O30   A    
C54   C59   A    
C81   H32   S    
C14   H26   S    
C91   H10   S    
C71   O43   A    
C12   C17   A    
C24   O20   A    
Cr2   O32   S    
C20   C23   A    
Cr1   O9    S    
Cr10  O47   S    
Cr3   O29   S    
C5    C79   A    
C27   C74   S    
C57   C91   A    
C68   H16   S    
C38   H37   S    
C7    H19   S    
C81   C86   D    
Cr1   O36   S    
C4    C8    A    
Cr6   O38   S    
C55   C60   A    
Cr10  O11   S    
Cr5   O37   S    
C83   C88   D    
C21   C27   A    
Cr4   O30   S    
Cr2   O6    S    
C22   C97   S    
Cr8   O9    S    
Cr7   O17   S    
Cr3   O11   S    
Cr1   O14   S    
Cr10  O50   S    
C17   C92   A    
C23   C73   S    
Cr9   O49   S    
C64   O32   A    
C65   O33   A    
C35   O17   A    
C25   C29   A    
C69   O41   A    
C60   C77   S    
C1    O14   A    
Cr1   O40   S    
C51   H2    S    
Cr5   O10   S    
C29   C99   S    
C27   C31   A    
C34   C39   A    
C87   H23   S    
C36   C40   A    
C32   H27   S    
C67   O40   A    
C92   H11   S    
C4    C68   A    
Cr8   O45   S    
C47   C51   A    
Cr7   O13   S    
C42   O24   A    
C70   O47   A    
C85   C86   S    
C80   O39   A    
C34   C61   A    
Cr2   O28   S    
C40   H39   S    
C75   O4    A    
C62   C80   S    
C64   O12   A    
C7    C11   A    
C9    C14   A    
C2    C24   S    
C47   C70   S    
C8    H20   S    
C73   O2    A    
Cr6   O42   S    
C1    O18   A    
Cr9   O19   S    
Cr5   O41   S    
Cr12  O9    S    
C98   N5    T    
Cr10  O20   S    
C61   C78   S    
C8    C12   A    
C41   C81   S    
C58   H8    S    
C26   C75   S    
C69   O46   A    
Cr8   O18   S    
C76   O5    A    
C56   C61   A    
C25   C72   S    
C93   H13   S    
C32   C37   A    
C3    C31   S    
C38   C47   A    
C72   O45   A    
C19   C94   S    
C83   H35   S    
Cr9   O24   S    
C71   O48   A    
C20   C95   S    
C26   C30   A    
C33   C60   A    
C85   H1    S    
C86   H12   S    
C3    N8    T    
C56   H7    S    
C41   O22   A    
C54   H5    S    
C23   C28   A    
C37   C45   A    
C24   O16   A    
Cr2   O2    S    
C65   O23   A    
C52   H3    S    
C42   O28   A    
C13   O15   A    
C15   C63   S    
C18   C66   S    
Cr11  O26   S    
C88   H34   S    
C49   C67   S    
Cr11  O13   S    
Cr3   O3    S    
C46   H14   S    
C10   H22   S    
C5    C9    A    
C82   H31   S    
C44   C84   S    
C57   H15   S    
Cr5   O15   S    
C53   C58   A    
C53   H4    S    
Cr4   O13   S    
C46   C90   A    
C21   C96   S    
C35   O21   A    
C82   C85   D    
Cr7   O43   S    
C17   C65   S    
C33   C38   A    
Cr8   O22   S    
C95   N2    T    
C21   C22   A    
C19   C20   A    
Cr1   O1    S    
C77   O6    A    
Cr4   O8    S    
Cr8   O44   S    
C6    C90   A    
C11   H24   S    
Cr12  O31   S    
Cr7   O39   S    
C100  N7    T    
Cr4   O4    S    
C74   O3    A    
C89   H9    S    
Cr2   O10   S    
C94   N1    T    
C63   O31   A    
Cr12  O5    S    
C59   C76   S    
C13   O19   A    
C68   C92   A    
Cr4   O35   S    
C78   O38   A    
C51   C55   A    
C37   H36   S    
Cr9   O46   S    
C19   C25   A    
Cr11  O51   S    
Cr6   O23   S    
C6    C10   A    
C35   C90   S    
C50   H40   S    
C48   C52   A    
C43   O29   A    
C16   C91   A    
C22   C26   A    
C99   N6    T    
C44   O26   A    
C18   C93   A    
Cr6   O16   S    
C12   H25   S    
C45   C50   A    
C16   C64   S    
C32   C59   A    
C66   O34   A    
C77   O37   A    
Cr11  O48   S    
C80   O8    A    
Cr7   O34   S    
C52   C56   A    
Cr3   O33   S    
C39   C48   A    
C55   H6    S    
C9    H21   S    
