data_mof_unit_61025.cif
_audit_creation_date              2012-12-10T18:00:51-0500
_audit_creation_method            fapswitch 2.2
_symmetry_space_group_name_H-M    P1
_symmetry_Int_Tables_number       1
_space_group_crystal_system       triclinic
_cell_length_a                    30.668606
_cell_length_b                    30.806579
_cell_length_c                    24.680597
_cell_angle_alpha                 90.087987
_cell_angle_beta                  128.121574
_cell_angle_gamma                 90.003277
_cell_volume                      18344.3743918

loop_
_atom_site_label
_atom_site_type_symbol
_atom_type_description
_atom_site_fract_x
_atom_site_fract_y
_atom_site_fract_z
_atom_type_partial_charge
C1    C     C_R   0.809088 0.809335 0.499499 0.808753
C2    C     C_R   0.534686 0.749513 0.069961 0.406583
C3    C     C_R   0.908182 0.092829 0.501715 -0.147335
C4    C     C_R   0.626020 0.620498 0.553721 0.068522
C5    C     C_R   0.352743 0.599271 0.446714 0.071741
C6    C     C_R   0.148182 0.097454 0.551043 0.070914
C7    C     C_R   0.873826 0.120243 0.446263 0.069017
C8    C     C_3   0.647252 0.630754 0.625451 -0.015662
C9    C     C_3   0.303899 0.580896 0.379400 -0.041355
C10   C     C_3   0.198091 0.076029 0.613538 -0.047900
C11   C     C_3   0.852056 0.129985 0.374215 -0.014056
C12   C     C_3   0.682887 0.666449 0.624784 -0.066360
C13   C     C_R   0.965462 0.249325 0.929971 0.406236
C14   C     C_3   0.268855 0.615965 0.382294 -0.055698
C15   C     C_3   0.232767 0.111564 0.610853 -0.049164
C16   C     C_3   0.816401 0.165648 0.374890 -0.066728
C17   C     C_R   0.440632 0.559581 0.500083 0.817584
C18   C     C_R   0.559421 0.559521 0.499848 0.826676
C19   C     C_R   0.940631 0.059541 0.500227 0.827484
C20   C     C_R   0.059583 0.059386 0.499993 0.824987
C21   C     C_R   0.940522 0.940504 0.500130 0.812454
C22   C     C_R   0.059846 0.940689 0.499844 0.801806
C23   C     C_R   0.440390 0.440626 0.499987 0.802163
C24   C     C_R   0.035287 0.249426 0.069955 0.406037
C25   C     C_R   0.559442 0.440509 0.499789 0.808312
C26   C     C_R   0.816156 0.749980 0.632595 0.774473
C27   C     C_R   0.183622 0.750142 0.367429 0.767401
C28   C     C_R   0.316271 0.250105 0.632574 0.770589
C29   C     C_R   0.683803 0.249945 0.367404 0.774787
C30   C     C_R   0.612522 0.786026 0.254956 -0.183541
C31   C     C_R   0.386632 0.786568 0.745251 -0.184299
C32   C     C_R   0.112042 0.285853 0.254826 -0.183565
C33   C     C_R   0.887406 0.286133 0.745284 -0.183648
C34   C     C_R   0.576827 0.786089 0.183012 -0.156237
C35   C     C_R   0.898733 0.845695 0.553323 0.064735
C36   C     C_R   0.422105 0.786668 0.817218 -0.156636
C37   C     C_R   0.076496 0.285888 0.182866 -0.154431
C38   C     C_R   0.923118 0.286142 0.817236 -0.155798
C39   C     C_R   0.572771 0.749470 0.146122 0.055764
C40   C     C_R   0.426521 0.749814 0.853812 0.056393
C41   C     C_R   0.073266 0.249517 0.146101 0.055501
C42   C     C_R   0.927454 0.249327 0.853825 0.055915
C43   C     C_R   0.605468 0.712891 0.182683 -0.154103
C44   C     C_R   0.394244 0.713056 0.816960 -0.153995
C45   C     C_R   0.106686 0.213269 0.182763 -0.155248
C46   C     C_R   0.166302 0.853457 0.560174 0.068290
C47   C     C_R   0.895059 0.212603 0.816984 -0.154296
C48   C     C_R   0.641933 0.713134 0.254675 -0.183620
C49   C     C_R   0.357999 0.713267 0.745002 -0.184047
C50   C     C_R   0.143004 0.213563 0.254733 -0.184044
C51   C     C_R   0.858560 0.212903 0.745007 -0.183703
C52   C     C_3   0.964213 0.796974 0.653768 -0.875431
C53   C     C_3   0.240684 0.833454 0.683721 -0.864096
C54   C     C_3   0.218855 0.397026 0.361820 -0.880033
C55   C     C_3   0.535474 0.295404 0.347952 -0.874470
C56   C     C_3   0.618151 0.636391 0.375473 -0.848600
C57   C     C_R   0.318237 0.375366 0.451199 0.067322
C58   C     C_3   0.429098 0.684575 0.620622 -0.837998
C59   C     C_3   0.068601 0.188482 0.384518 -0.834526
C60   C     C_3   0.882561 0.137212 0.625033 -0.849321
C61   C     C_3   0.601217 0.645869 0.628673 -0.804825
C62   C     C_3   0.308592 0.585038 0.321222 -0.769269
C63   C     C_3   0.198519 0.076636 0.676012 -0.772359
C64   C     C_3   0.897639 0.145124 0.370161 -0.807218
C65   C     C_3   0.670090 0.713918 0.628798 -0.782924
C66   C     C_3   0.243191 0.652226 0.328356 -0.788749
C67   C     C_3   0.262877 0.145194 0.669155 -0.788590
C68   C     C_R   0.601094 0.345188 0.447065 0.065125
C69   C     C_3   0.828773 0.213103 0.370158 -0.782997
C70   C     C_3   0.994267 0.838878 0.536600 -0.867030
C71   C     C_3   0.203294 0.949137 0.623283 -0.890748
C72   C     C_3   0.330036 0.476530 0.488067 -0.887979
C73   C     C_3   0.506954 0.338529 0.466164 -0.872382
C74   C     C_R   0.842012 0.843082 0.499928 -0.094401
C75   C     C_R   0.156436 0.841477 0.499140 -0.079816
C76   C     C_R   0.343113 0.341830 0.499240 -0.101134
C77   C     C_R   0.190606 0.809141 0.499923 0.804788
C78   C     C_R   0.657951 0.343112 0.499965 -0.095007
C79   C     C_R   0.816234 0.876706 0.451181 -0.200057
C80   C     C_R   0.109556 0.857669 0.436532 -0.209686
C81   C     C_R   0.401155 0.337749 0.542143 -0.195316
C82   C     C_R   0.683737 0.377228 0.548034 -0.200343
C83   C     C_R   0.848439 0.908911 0.451054 -0.207745
C84   C     C_R   0.077134 0.889679 0.436515 -0.195438
C85   C     C_R   0.433446 0.370270 0.542828 -0.215481
C86   C     C_R   0.651519 0.409432 0.548122 -0.208019
C87   C     C_R   0.906449 0.908357 0.501013 -0.077068
C88   C     C_R   0.309664 0.309270 0.500388 0.808475
C89   C     C_R   0.091829 0.905969 0.499265 -0.095366
C90   C     C_R   0.407723 0.406338 0.499131 -0.071245
C91   C     C_R   0.593463 0.408384 0.498768 -0.075679
C92   C     C_R   0.930469 0.877828 0.554054 0.074435
C93   C     C_R   0.135522 0.885998 0.560542 0.069712
C94   C     C_R   0.349978 0.407039 0.450977 0.077084
C95   C     C_R   0.569322 0.377324 0.446272 0.073197
C96   C     C_3   0.979158 0.847990 0.584256 -0.058131
C97   C     C_3   0.185292 0.903820 0.628062 -0.012497
C98   C     C_3   0.308585 0.441958 0.432080 -0.067017
C99   C     C_R   0.690914 0.309343 0.500506 0.808704
C100  C     C_3   0.521086 0.347126 0.417444 -0.054243
C101  C     C_3   0.943406 0.812376 0.582571 -0.046789
C102  C     C_3   0.218945 0.867427 0.627259 -0.084251
C103  C     C_3   0.273661 0.406637 0.432656 -0.034765
C104  C     C_3   0.556854 0.311551 0.419125 -0.047135
C105  C     C_R   0.683689 0.749860 0.367436 0.777036
C106  C     C_R   0.316261 0.749964 0.632551 0.770227
C107  C     C_R   0.183756 0.249930 0.367428 0.777779
C108  C     C_R   0.816364 0.249872 0.632555 0.776975
C109  C     C_R   0.836332 0.765984 0.745500 -0.185358
C110  C     C_R   0.645637 0.749657 0.291438 -0.028725
C111  C     C_R   0.163842 0.764694 0.254530 -0.184634
C112  C     C_R   0.335939 0.264732 0.745485 -0.183009
C113  C     C_R   0.663504 0.265858 0.254495 -0.185339
C114  C     C_R   0.872100 0.765619 0.817487 -0.155549
C115  C     C_R   0.128008 0.764210 0.182558 -0.154974
C116  C     C_R   0.371710 0.264229 0.817468 -0.154916
C117  C     C_R   0.627658 0.265487 0.182513 -0.155353
C118  C     C_R   0.926544 0.750025 0.853931 0.055413
C119  C     C_R   0.072967 0.749991 0.146155 0.055937
C120  C     C_R   0.426665 0.249884 0.853851 0.056299
C121  C     C_R   0.354130 0.749920 0.708521 -0.034200
C122  C     C_R   0.573162 0.249922 0.146072 0.055364
C123  C     C_R   0.944280 0.734321 0.816971 -0.154005
C124  C     C_R   0.054689 0.735757 0.183157 -0.157493
C125  C     C_R   0.444913 0.235535 0.816831 -0.156826
C126  C     C_R   0.555449 0.234249 0.183031 -0.153998
C127  C     C_R   0.908175 0.733874 0.745039 -0.187328
C128  C     C_R   0.090843 0.735435 0.255109 -0.183269
C129  C     C_R   0.408831 0.235241 0.744888 -0.183720
C130  C     C_R   0.591637 0.233805 0.254967 -0.186991
C131  C     C_R   0.853998 0.749986 0.708620 -0.026990
C132  C     C_R   0.145832 0.249779 0.291417 -0.028973
C133  C     C_R   0.145625 0.750168 0.291434 -0.034271
C134  C     C_R   0.354143 0.250111 0.708569 -0.033008
C135  C     C_R   0.645869 0.249893 0.291380 -0.026939
C136  C     C_R   0.034814 0.750029 0.070026 0.405211
C137  C     C_R   0.964661 0.750090 0.930060 0.405312
C138  C     C_R   0.534996 0.249978 0.069945 0.405309
C139  C     C_R   0.464806 0.249934 0.929979 0.405275
C140  C     C_R   0.656321 0.651855 0.552835 0.009866
C141  C     C_R   0.321963 0.629458 0.448947 0.014314
C142  C     C_R   0.178650 0.127854 0.548616 0.015308
C143  C     C_R   0.854542 0.249628 0.708534 -0.028445
C144  C     C_R   0.843474 0.151563 0.447110 0.009604
C145  C     C_R   0.656343 0.657924 0.497293 -0.088922
C146  C     C_R   0.344337 0.658206 0.503277 -0.092339
C147  C     C_R   0.155395 0.158337 0.496585 -0.096994
C148  C     C_R   0.843723 0.157955 0.502816 -0.088685
C149  C     C_R   0.621703 0.630859 0.438755 0.153686
C150  C     C_R   0.401738 0.654855 0.559110 0.148533
C151  C     C_R   0.097175 0.156841 0.443585 0.149915
C152  C     C_R   0.878721 0.131291 0.561584 0.153879
C153  C     C_R   0.690795 0.690838 0.500115 0.824989
C154  C     C_R   0.464604 0.749699 0.929969 0.405789
C155  C     C_R   0.309761 0.690856 0.500916 0.827264
C156  C     C_R   0.190019 0.190872 0.498707 0.827002
C157  C     C_R   0.809231 0.190841 0.499938 0.825040
C158  C     C_R   0.589421 0.598549 0.439751 -0.196996
C159  C     C_R   0.433344 0.622106 0.557651 -0.197593
C160  C     C_R   0.065758 0.123983 0.445199 -0.201145
C161  C     C_R   0.911047 0.098999 0.560623 -0.196831
C162  C     C_R   0.591978 0.592744 0.498469 -0.146746
C163  C     C_R   0.408637 0.593607 0.500819 -0.145308
C164  C     C_R   0.091494 0.093530 0.499428 -0.142197
Cu1   Cu    Cu3+1 0.780910 0.719090 0.500000 0.939353
Cu2   Cu    Cu3+1 0.534240 0.500000 0.568430 0.938639
Cu3   Cu    Cu3+1 0.965760 0.000000 0.431570 0.936156
Cu4   Cu    Cu3+1 0.034240 0.000000 0.568430 0.927880
Cu5   Cu    Cu3+1 0.219090 0.719090 0.500000 0.945677
Cu6   Cu    Cu3+1 0.280910 0.219090 0.500000 0.942557
Cu7   Cu    Cu3+1 0.719090 0.219090 0.500000 0.938777
Cu8   Cu    Cu3+1 0.719070 0.780890 0.500010 0.944945
Cu9   Cu    Cu3+1 0.280930 0.780890 0.499990 0.942311
Cu10  Cu    Cu3+1 0.219070 0.280890 0.500010 0.937991
Cu11  Cu    Cu3+1 0.780930 0.280890 0.499990 0.945262
Cu12  Cu    Cu3+1 0.465760 0.500000 0.431570 0.933839
H1    H     H_    0.794664 0.778351 0.718711 0.146623
H2    H     H_    0.333493 0.684540 0.717885 0.150765
H3    H     H_    0.728350 0.377843 0.587201 0.148791
H4    H     H_    0.828246 0.933606 0.411428 0.156545
H5    H     H_    0.042018 0.902684 0.387663 0.168445
H6    H     H_    0.478207 0.367644 0.578013 0.157011
H7    H     H_    0.671747 0.434515 0.587279 0.156233
H8    H     H_    0.956822 0.831166 0.483427 0.242653
H9    H     H_    0.015147 0.867670 0.534945 0.234962
H10   H     H_    0.023294 0.810993 0.556863 0.242123
H11   H     H_    0.202100 0.951965 0.577481 0.236578
H12   H     H_    0.175686 0.974034 0.620006 0.253640
H13   H     H_    0.168422 0.185242 0.281684 0.150850
H14   H     H_    0.246181 0.955672 0.670334 0.238696
H15   H     H_    0.350620 0.461463 0.539452 0.250242
H16   H     H_    0.360230 0.497926 0.490350 0.229848
H17   H     H_    0.294875 0.496716 0.475436 0.235815
H18   H     H_    0.544826 0.331424 0.519257 0.238957
H19   H     H_    0.486043 0.367353 0.467652 0.235624
H20   H     H_    0.478264 0.310425 0.446958 0.245856
H21   H     H_    0.015322 0.858269 0.636912 0.181215
H22   H     H_    0.181221 0.900991 0.669707 0.176385
H23   H     H_    0.289779 0.455961 0.380414 0.176379
H24   H     H_    0.833940 0.184221 0.717865 0.150556
H25   H     H_    0.484455 0.356816 0.364801 0.183316
H26   H     H_    0.931862 0.785281 0.546007 0.190085
H27   H     H_    0.250791 0.878406 0.622040 0.182443
H28   H     H_    0.269244 0.410147 0.473962 0.189996
H29   H     H_    0.569044 0.284842 0.456364 0.189983
H30   H     H_    0.614694 0.814663 0.282050 0.148991
H31   H     H_    0.384119 0.815364 0.718325 0.150012
H32   H     H_    0.113516 0.314260 0.281824 0.147184
H33   H     H_    0.206014 0.775921 0.281318 0.151549
H34   H     H_    0.884984 0.314915 0.718394 0.148632
H35   H     H_    0.973554 0.824813 0.688175 0.241676
H36   H     H_    0.932055 0.776385 0.648442 0.243820
H37   H     H_    0.002382 0.777373 0.677573 0.241282
H38   H     H_    0.207576 0.822385 0.686445 0.241102
H39   H     H_    0.256506 0.804969 0.673052 0.240687
H40   H     H_    0.275230 0.847530 0.734235 0.246147
H41   H     H_    0.225088 0.392155 0.322375 0.240092
H42   H     H_    0.200002 0.367199 0.364620 0.247497
H43   H     H_    0.189869 0.424530 0.345869 0.239538
H44   H     H_    0.293841 0.276075 0.718701 0.150939
H45   H     H_    0.525520 0.322880 0.312843 0.241686
H46   H     H_    0.567567 0.274854 0.353086 0.244056
H47   H     H_    0.497564 0.275574 0.325070 0.241833
H48   H     H_    0.857343 0.778037 0.844614 0.149519
H49   H     H_    0.143206 0.775472 0.155412 0.149838
H50   H     H_    0.356545 0.275582 0.844639 0.149843
H51   H     H_    0.642400 0.277882 0.155391 0.149605
H52   H     H_    0.985893 0.721866 0.843657 0.149788
H53   H     H_    0.012588 0.724400 0.156490 0.149837
H54   H     H_    0.486943 0.224075 0.843475 0.149408
H55   H     H_    0.705208 0.278211 0.281274 0.146682
H56   H     H_    0.513794 0.221817 0.156338 0.149885
H57   H     H_    0.605150 0.670052 0.355734 0.224904
H58   H     H_    0.659179 0.629967 0.388273 0.241405
H59   H     H_    0.587625 0.613688 0.333748 0.227833
H60   H     H_    0.427229 0.718607 0.604643 0.246168
H61   H     H_    0.407556 0.682157 0.643750 0.221372
H62   H     H_    0.473352 0.676042 0.660808 0.225895
H63   H     H_    0.072218 0.221876 0.403832 0.247224
H64   H     H_    0.087874 0.187264 0.358461 0.221005
H65   H     H_    0.023822 0.180852 0.345727 0.224374
H66   H     H_    0.922884 0.721298 0.717942 0.148327
H67   H     H_    0.895490 0.170987 0.644455 0.225218
H68   H     H_    0.841646 0.130740 0.612554 0.240941
H69   H     H_    0.913258 0.114749 0.666872 0.228033
H70   H     H_    0.563041 0.577692 0.395259 0.165747
H71   H     H_    0.477041 0.619006 0.600539 0.160188
H72   H     H_    0.021439 0.122226 0.404396 0.158249
H73   H     H_    0.937675 0.078428 0.605277 0.165893
H74   H     H_    0.577298 0.617319 0.624666 0.235974
H75   H     H_    0.619805 0.662129 0.678750 0.232388
H76   H     H_    0.571963 0.668455 0.586014 0.238836
H77   H     H_    0.075726 0.724143 0.282340 0.150664
H78   H     H_    0.333557 0.557819 0.324025 0.240117
H79   H     H_    0.266762 0.582964 0.270601 0.226459
H80   H     H_    0.328575 0.616066 0.324523 0.239638
H81   H     H_    0.172808 0.049570 0.671955 0.237604
H82   H     H_    0.241443 0.071776 0.723886 0.227991
H83   H     H_    0.181922 0.107612 0.679642 0.241597
H84   H     H_    0.921543 0.116611 0.374068 0.235972
H85   H     H_    0.878631 0.161094 0.319858 0.232443
H86   H     H_    0.926977 0.167964 0.412511 0.238694
H87   H     H_    0.672616 0.603858 0.661781 0.145393
H88   H     H_    0.423944 0.223864 0.717660 0.149001
H89   H     H_    0.293619 0.547392 0.384835 0.141591
H90   H     H_    0.205227 0.043189 0.601721 0.138139
H91   H     H_    0.826734 0.102817 0.338309 0.145131
H92   H     H_    0.679232 0.720114 0.679210 0.229701
H93   H     H_    0.696979 0.735449 0.624753 0.232981
H94   H     H_    0.626193 0.722269 0.586559 0.245723
H95   H     H_    0.210483 0.638586 0.276578 0.238200
H96   H     H_    0.223751 0.676409 0.340717 0.220315
H97   H     H_    0.274727 0.669189 0.327521 0.239527
H98   H     H_    0.296500 0.129211 0.718189 0.237413
H99   H     H_    0.576952 0.221259 0.282072 0.148143
H100  H     H_    0.281832 0.170121 0.657149 0.223053
H101  H     H_    0.234178 0.161782 0.675596 0.239014
H102  H     H_    0.819173 0.218977 0.319446 0.229694
H103  H     H_    0.801996 0.234632 0.374416 0.232750
H104  H     H_    0.872700 0.221757 0.411962 0.245813
H105  H     H_    0.551967 0.814672 0.156279 0.149939
H106  H     H_    0.446560 0.815433 0.844200 0.149379
H107  H     H_    0.051074 0.314220 0.156019 0.149788
H108  H     H_    0.947761 0.314836 0.844216 0.149955
H109  H     H_    0.728006 0.659086 0.660126 0.139756
H110  H     H_    0.666756 0.684561 0.281590 0.150755
H111  H     H_    0.239392 0.601919 0.389582 0.150520
H112  H     H_    0.259133 0.098289 0.598029 0.151229
H113  H     H_    0.771329 0.158005 0.339976 0.139697
H114  H     H_    0.603349 0.684246 0.155653 0.150359
H115  H     H_    0.396558 0.684261 0.843740 0.150307
H116  H     H_    0.105247 0.184847 0.155822 0.150511
H117  H     H_    0.897407 0.183810 0.843790 0.150151
H118  H     H_    0.771674 0.876927 0.411582 0.148372
H119  H     H_    0.099082 0.846544 0.388103 0.140959
H120  H     H_    0.421499 0.310625 0.577271 0.152712
N1    N     N_R   0.517077 0.711644 0.034028 -0.239310
N2    N     N_R   0.979050 0.750707 0.034751 -0.239675
N3    N     N_R   0.520568 0.250530 0.965237 -0.239603
N4    N     N_R   0.479235 0.249220 0.034689 -0.239618
N5    N     N_R   0.054803 0.749402 0.033930 -0.240574
N6    N     N_R   0.944670 0.750913 0.966153 -0.240359
N7    N     N_R   0.554966 0.250729 0.033830 -0.240412
N8    N     N_R   0.444830 0.249380 0.966093 -0.240224
N9    N     N_R   0.482569 0.711736 0.965428 -0.239249
N10   N     N_R   0.018137 0.211487 0.034204 -0.239318
N11   N     N_R   0.983741 0.211434 0.965601 -0.239309
N12   N     N_R   0.482391 0.787562 0.965906 -0.241090
N13   N     N_R   0.516560 0.787467 0.034496 -0.240534
N14   N     N_R   0.982786 0.287257 0.965729 -0.240128
N15   N     N_R   0.016828 0.287305 0.034318 -0.240166
N16   N     N_R   0.020419 0.749251 0.965339 -0.239985
O1    O     O_R   0.821190 0.768980 0.500000 -0.588868
O2    O     O_R   0.074010 0.954920 0.557790 -0.594653
O3    O     O_R   0.425990 0.454920 0.442210 -0.591455
O4    O     O_R   0.574010 0.454920 0.557790 -0.588938
O5    O     O_R   0.983760 0.954940 0.557800 -0.588159
O6    O     O_R   0.016240 0.954940 0.442200 -0.587880
O7    O     O_R   0.483760 0.454940 0.557800 -0.581145
O8    O     O_R   0.516240 0.454940 0.442200 -0.587378
O9    O     O_R   0.768960 0.821170 0.500020 -0.579924
O10   O     O_R   0.231040 0.821170 0.499980 -0.586981
O11   O     O_R   0.268960 0.321170 0.500020 -0.589515
O12   O     O_R   0.178810 0.768980 0.500000 -0.577263
O13   O     O_R   0.731040 0.321170 0.499980 -0.579919
O14   O     O_R   0.726180 0.723900 0.400140 -0.585565
O15   O     O_R   0.273820 0.723900 0.599860 -0.585721
O16   O     O_R   0.226180 0.223900 0.400140 -0.583651
O17   O     O_R   0.773820 0.223900 0.599860 -0.585699
O18   O     O_R   0.673950 0.776090 0.400160 -0.586787
O19   O     O_R   0.326050 0.776090 0.599840 -0.586462
O20   O     O_R   0.173950 0.276090 0.400160 -0.590915
O21   O     O_R   0.826050 0.276090 0.599840 -0.586632
O22   O     O_R   0.731010 0.678810 0.499990 -0.586511
O23   O     O_R   0.321190 0.268980 0.500000 -0.581929
O24   O     O_R   0.268990 0.678810 0.500010 -0.589693
O25   O     O_R   0.231010 0.178810 0.499990 -0.590481
O26   O     O_R   0.768990 0.178810 0.500010 -0.586654
O27   O     O_R   0.678790 0.731000 0.500010 -0.583070
O28   O     O_R   0.321210 0.731000 0.499990 -0.582431
O29   O     O_R   0.178790 0.231000 0.500010 -0.582127
O30   O     O_R   0.821210 0.231000 0.499990 -0.582918
O31   O     O_R   0.826030 0.723890 0.599860 -0.589200
O32   O     O_R   0.173970 0.723890 0.400140 -0.587409
O33   O     O_R   0.326030 0.223890 0.599860 -0.590003
O34   O     O_R   0.678810 0.268980 0.500000 -0.589158
O35   O     O_R   0.673970 0.223890 0.400140 -0.589343
O36   O     O_R   0.773800 0.776080 0.599870 -0.589046
O37   O     O_R   0.226200 0.776080 0.400130 -0.583073
O38   O     O_R   0.273800 0.276080 0.599870 -0.582262
O39   O     O_R   0.726200 0.276080 0.400130 -0.588936
O40   O     O_R   0.425940 0.545090 0.442170 -0.586585
O41   O     O_R   0.574060 0.545090 0.557830 -0.593406
O42   O     O_R   0.925940 0.045090 0.442170 -0.593418
O43   O     O_R   0.074060 0.045090 0.557830 -0.588428
O44   O     O_R   0.483700 0.545120 0.557760 -0.594288
O45   O     O_R   0.516300 0.545120 0.442240 -0.590634
O46   O     O_R   0.983700 0.045120 0.557760 -0.589863
O47   O     O_R   0.016300 0.045120 0.442240 -0.595114
O48   O     O_R   0.925990 0.954920 0.442210 -0.586785

loop_
_geom_bond_atom_site_label_1
_geom_bond_atom_site_label_2
_ccdc_geom_bond_type
C105  C110  S    
C53   H38   S    
Cu1   O22   S    
C10   C63   S    
Cu6   O33   S    
C157  O26   A    
C85   H6    S    
C83   H4    S    
C57   C76   A    
C16   C144  S    
C69   H103  S    
C43   H114  S    
C100  C104  S    
N2    N6    A    
C156  O29   A    
Cu7   O26   S    
Cu11  O39   S    
C70   H9    S    
C146  C150  A    
Cu1   O1    S    
C61   H74   S    
Cu3   O42   S    
C56   H59   S    
C3    C19   S    
C72   H15   S    
Cu8   O27   S    
Cu9   O37   S    
C13   N11   A    
C73   H18   S    
C24   C41   S    
C62   H79   S    
C127  H66   S    
C160  H72   S    
C13   C42   S    
C54   H42   S    
C52   C101  S    
C68   C95   A    
C150  C159  A    
C54   C103  S    
C31   C121  A    
C63   H82   S    
C71   H11   S    
C120  C125  A    
C106  O19   A    
C9    H89   S    
C108  O21   A    
C124  H53   S    
C102  H27   S    
C31   H31   S    
C15   C142  S    
C100  H25   S    
C78   C82   A    
C53   C102  S    
N10   N11   A    
C137  N6    A    
C20   O47   A    
C104  H29   S    
C24   N15   A    
Cu8   O9    S    
C29   C135  S    
C138  N7    A    
C53   H40   S    
C74   C79   A    
C86   H7    S    
Cu4   O2    S    
C138  N4    A    
Cu11  O30   S    
C155  O24   A    
Cu6   Cu10  S    
C60   H67   S    
C21   O48   A    
C21   O5    A    
C33   C38   A    
C112  C134  A    
C140  C145  A    
C85   C90   A    
C51   C143  A    
C3    C7    A    
C119  C136  S    
Cu10  O38   S    
Cu6   O16   S    
C45   C50   A    
C61   H76   S    
Cu2   O4    S    
C23   O7    A    
C64   H85   S    
C22   C89   S    
C71   H14   S    
C127  C131  A    
C125  C129  A    
C113  C135  A    
C73   H20   S    
C78   C99   S    
C52   H36   S    
C126  C130  A    
C31   C36   A    
C66   H97   S    
Cu12  O40   S    
C65   H92   S    
C58   C150  S    
C18   O45   A    
C48   C110  A    
C16   H113  S    
C147  C151  A    
C71   C97   S    
C98   H23   S    
C1    C74   S    
C5    C163  A    
C115  H49   S    
C92   C96   S    
C67   H100  S    
C153  O27   A    
C50   H13   S    
C19   O42   A    
Cu7   O17   S    
C32   H32   S    
C129  H88   S    
C149  C158  A    
C152  C161  A    
C8    C12   S    
C99   O13   A    
C49   C121  A    
C60   H69   S    
C56   H58   S    
N1    N9    A    
C46   C75   A    
C27   O32   A    
C30   C34   A    
C34   C39   A    
C107  O20   A    
Cu11  O13   S    
Cu1   O14   S    
C55   C104  S    
C116  C120  A    
C70   C96   S    
C117  C122  A    
C5    C9    S    
C63   H83   S    
C33   H34   S    
C123  C127  A    
Cu5   O15   S    
Cu10  O29   S    
C15   C67   S    
C112  H44   S    
Cu6   O23   S    
C32   C37   A    
C65   H94   S    
C75   C77   S    
C88   O11   A    
Cu6   O25   S    
C109  C114  A    
C55   H46   S    
C113  C117  A    
C70   H8    S    
C115  C119  A    
C57   C94   A    
C6    C142  A    
C2    N1    A    
C26   O36   A    
C153  O22   A    
C93   C97   S    
C112  C116  A    
C28   O38   A    
Cu5   O32   S    
C41   C45   A    
C10   H90   S    
C142  C147  A    
Cu4   O5    S    
C148  C152  A    
C107  C132  S    
C25   O4    A    
C38   H108  S    
C67   H98   S    
C59   H64   S    
C137  N16   A    
C161  H73   S    
C69   H102  S    
C105  O14   A    
C148  C157  S    
C89   C93   A    
C107  O16   A    
C47   H117  S    
C51   H24   S    
C70   H10   S    
C88   O23   A    
C91   C95   A    
C40   C44   A    
Cu12  O3    S    
Cu2   O7    S    
C29   O39   A    
Cu5   Cu9   S    
C114  H48   S    
C96   C101  S    
C72   H16   S    
C81   C85   A    
C26   C131  S    
C73   C100  S    
C83   C87   A    
C35   C74   A    
C44   H115  S    
C22   O6    A    
C130  C135  A    
C80   C84   A    
C54   H43   S    
C17   O40   A    
C33   C143  A    
C30   C110  A    
C28   C134  S    
C160  C164  A    
C81   H120  S    
C58   H60   S    
C86   C91   A    
C63   H81   S    
C64   H86   S    
C27   O37   A    
C94   C98   S    
C98   C103  S    
C20   C164  S    
C60   C152  S    
C103  H28   S    
C155  O28   A    
C66   H95   S    
C17   C163  S    
C48   H110  S    
C146  C155  S    
N5    N16   A    
C2    N13   A    
C82   H3    S    
C109  C131  A    
C12   C140  S    
C90   C94   A    
C67   H101  S    
C58   H61   S    
C37   H107  S    
C97   C102  S    
C144  C148  A    
C124  C128  A    
C35   C92   A    
Cu5   O24   S    
Cu10  O20   S    
C53   H39   S    
C87   C92   A    
C113  H55   S    
C68   C78   A    
C57   C103  S    
C17   O44   A    
C60   H68   S    
Cu12  O8    S    
C27   C133  S    
C122  C138  S    
Cu3   Cu4   S    
C95   C100  S    
C47   C51   A    
C123  H52   S    
C82   C86   A    
C69   H104  S    
C126  H56   S    
C9    C14   S    
C139  N3    A    
C11   C16   S    
C80   H119  S    
C61   H75   S    
C23   C90   S    
C15   H112  S    
C8    H87   S    
C147  C156  S    
C50   C132  A    
C141  C146  A    
Cu2   O41   S    
C6    C164  A    
Cu5   O12   S    
C59   C151  S    
C73   H19   S    
C4    C162  A    
Cu7   O34   S    
Cu12  O45   S    
C72   H17   S    
C54   H41   S    
C55   H47   S    
C49   H2    S    
C154  N9    A    
N14   N15   A    
C136  N5    A    
C68   C104  S    
C26   O31   A    
C35   C101  S    
C6    C10   S    
C1    O9    A    
C28   O33   A    
C12   C65   S    
C10   C15   S    
C36   H106  S    
C79   C83   A    
C18   C162  S    
C157  O30   A    
C118  C123  A    
C24   N10   A    
Cu9   O28   S    
C3    C161  A    
C129  C134  A    
C109  H1    S    
C34   H105  S    
Cu3   O6    S    
C11   H91   S    
C156  O25   A    
N3    N7    A    
Cu1   O31   S    
C108  C143  S    
C145  C149  A    
N4    N8    A    
C25   O8    A    
C44   C49   A    
C21   C87   S    
Cu3   O47   S    
C1    O1    A    
C71   H12   S    
Cu9   O19   S    
Cu10  O11   S    
C72   C98   S    
C119  C124  A    
C7    C11   S    
C46   C102  S    
C105  O18   A    
C84   H5    S    
C38   C42   A    
C101  H26   S    
C79   H118  S    
Cu4   O46   S    
C30   H30   S    
C29   O35   A    
C13   N14   A    
Cu9   O10   S    
C2    C39   S    
C45   H116  S    
C106  O15   A    
C11   C64   S    
C22   O2    A    
C52   H35   S    
C77   O10   A    
C108  O17   A    
C118  C137  S    
C65   H93   S    
C43   C48   A    
C76   C88   S    
C99   O34   A    
C8    C61   S    
C55   H45   S    
C145  C153  S    
Cu1   Cu8   S    
C14   C141  S    
C37   C41   A    
C40   C154  S    
C20   O43   A    
C7    C144  A    
C136  N2    A    
C96   H21   S    
C25   C91   S    
C9    C62   S    
C36   C40   A    
C125  H54   S    
C158  C162  A    
C111  C133  A    
C39   C43   A    
Cu7   Cu11  S    
C116  H50   S    
C122  C126  A    
C59   H63   S    
C111  H33   S    
C12   H109  S    
C4    C140  A    
C5    C141  A    
Cu8   O36   S    
C14   H111  S    
C128  H77   S    
C14   C66   S    
C120  C139  S    
C23   O3    A    
C159  H71   S    
C139  N8    A    
C114  C118  A    
C19   O46   A    
C159  C163  A    
C56   H57   S    
C84   C89   A    
C32   C132  A    
N12   N13   A    
Cu2   O44   S    
C75   C80   A    
C62   H80   S    
C62   H78   S    
C117  H51   S    
C97   H22   S    
Cu7   O35   S    
C16   C69   S    
C76   C81   A    
C4    C8    S    
C18   O41   A    
C154  N12   A    
Cu2   Cu12  S    
C59   H65   S    
C151  C160  A    
C56   C149  S    
C128  C133  A    
Cu8   O18   S    
C46   C93   A    
Cu4   O43   S    
C106  C121  S    
C52   H37   S    
C77   O12   A    
C42   C47   A    
C66   H96   S    
Cu11  O21   S    
Cu3   O48   S    
C111  C115  A    
C158  H70   S    
C130  H99   S    
C58   H62   S    
C64   H84   S    
