data_mof_unit_36565.cif
_audit_creation_date              2012-12-10T17:49:33-0500
_audit_creation_method            fapswitch 2.2
_symmetry_space_group_name_H-M    P1
_symmetry_Int_Tables_number       1
_space_group_crystal_system       triclinic
_cell_length_a                    10.487236
_cell_length_b                    10.609905
_cell_length_c                    9.93841
_cell_angle_alpha                 89.862454
_cell_angle_beta                  90.517662
_cell_angle_gamma                 91.611234
_cell_volume                      1105.3478572

loop_
_atom_site_label
_atom_site_type_symbol
_atom_type_description
_atom_site_fract_x
_atom_site_fract_y
_atom_site_fract_z
_atom_type_partial_charge
C1    C     C_R   0.503146 0.260822 0.500211 0.848613
C2    C     C_R   0.616838 0.069029 0.558933 0.100432
C3    C     C_R   0.511335 0.128703 0.500308 -0.084190
C4    C     C_R   0.257658 0.498504 0.499338 0.851012
C5    C     C_R   0.411105 0.062071 0.438293 -0.220206
C6    C     C_R   0.411219 0.933310 0.437917 -0.206426
C7    C     C_R   0.511714 0.871864 0.499272 -0.097136
C8    C     C_R   0.331008 0.336834 0.138698 -0.159121
C9    C     C_R   0.247511 0.256549 0.068136 -0.192935
C10   C     C_R   0.248222 0.255655 0.928862 -0.208833
C11   C     C_R   0.332092 0.335416 0.859252 -0.167131
C12   C     C_3   0.960384 0.592718 0.419633 -0.192259
C13   C     C_R   0.417079 0.419193 0.927238 0.172992
C14   C     C_R   0.416805 0.419569 0.071675 0.170495
C15   C     C_R   0.579756 0.576853 0.071960 -0.108470
C16   C     C_R   0.503304 0.739322 0.499832 0.866324
C17   C     C_R   0.579526 0.577011 0.929032 -0.119650
C18   C     C_R   0.742516 0.501415 0.500871 0.832645
C19   C     C_3   0.040863 0.406430 0.581765 -0.207997
C20   C     C_3   0.952882 0.387945 0.457227 -0.212076
C21   C     C_3   0.877741 0.501406 0.503147 -0.005412
C22   C     C_3   0.964124 0.520084 0.626462 0.166041
C23   C     C_3   0.037950 0.479184 0.373637 -0.134206
C24   C     C_3   0.048336 0.611936 0.544001 -0.201721
C25   C     C_3   0.921368 0.544548 0.770589 -0.422690
C26   C     C_3   0.035850 0.563988 0.865799 -0.333635
C27   C     C_3   0.992591 0.589472 0.009077 -0.894350
C28   C     C_3   0.122829 0.498186 0.498267 0.018170
C29   C     C_R   0.722600 0.137082 0.614581 -0.186720
C30   C     C_R   0.826207 0.073903 0.668557 -0.141360
C31   C     C_R   0.826659 0.942675 0.667301 -0.146027
C32   C     C_R   0.723431 0.874246 0.612215 -0.195703
C33   C     C_R   0.617161 0.936952 0.558048 0.097859
H1    H     H_    0.909528 0.297137 0.421828 0.142962
H2    H     H_    0.644319 0.640290 0.875971 0.142760
H3    H     H_    0.078060 0.330810 0.647497 0.118519
H4    H     H_    0.091801 0.702887 0.578897 0.124233
H5    H     H_    0.923190 0.668255 0.353797 0.142814
H6    H     H_    0.073315 0.460902 0.270839 0.148860
H7    H     H_    0.331605 0.110055 0.392471 0.135314
H8    H     H_    0.727125 0.238970 0.615335 0.148053
H9    H     H_    0.906791 0.126982 0.710419 0.127930
H10   H     H_    0.933324 0.674564 0.011727 0.256036
H11   H     H_    0.936290 0.507359 0.048436 0.265410
H12   H     H_    0.907585 0.893726 0.708143 0.130669
H13   H     H_    0.077489 0.605947 0.074906 0.254036
H14   H     H_    0.094539 0.478504 0.866015 0.239155
H15   H     H_    0.096150 0.645310 0.831066 0.225365
H16   H     H_    0.862908 0.630238 0.770878 0.195541
H17   H     H_    0.861755 0.462772 0.805397 0.218490
H18   H     H_    0.728632 0.772616 0.610717 0.132190
H19   H     H_    0.331686 0.881175 0.392077 0.148136
H20   H     H_    0.645056 0.639734 0.125865 0.146629
H21   H     H_    0.325780 0.331008 0.245399 0.197210
H22   H     H_    0.182273 0.194200 0.122071 0.143734
H23   H     H_    0.183389 0.192737 0.874189 0.142156
H24   H     H_    0.327387 0.328596 0.752536 0.202673
N1    N     N_R   0.498800 0.498800 0.142780 -0.121995
N2    N     N_R   0.498760 0.498720 0.857170 -0.121153
O1    O     O_R   0.500000 0.316780 0.614690 -0.636643
O2    O     O_R   0.499990 0.316750 0.385360 -0.627605
O3    O     O_R   0.313960 0.499980 0.614650 -0.639728
O4    O     O_R   0.313940 0.499960 0.385310 -0.644029
O5    O     O_R   0.500010 0.683250 0.614640 -0.613884
O6    O     O_R   0.500000 0.683220 0.385310 -0.610989
O7    O     O_R   0.686060 0.500040 0.614690 -0.643046
O8    O     O_R   0.686040 0.500020 0.385350 -0.608951
Zn1   Zn    Zn3+2 0.500010 0.500020 0.653130 0.919492
Zn2   Zn    Zn3+2 0.499990 0.499980 0.346870 0.933331

loop_
_geom_bond_atom_site_label_1
_geom_bond_atom_site_label_2
_ccdc_geom_bond_type
O7    Zn1   S    
N1    Zn2   S    
C6    C7    A    
C13   N2    A    
C26   H15   S    
N2    Zn1   S    
C18   O7    A    
C18   C21   S    
C10   H23   S    
C9    C10   A    
C12   C24   S    
C31   C32   A    
C12   C23   S    
C20   C23   S    
O3    Zn1   S    
C30   C31   A    
C3    C5    A    
C25   C26   S    
C20   H1    S    
C32   C33   A    
C24   H4    S    
C5    H7    S    
O4    Zn2   S    
C32   H18   S    
C6    H19   S    
C11   H24   S    
C21   C22   S    
C27   H11   S    
C19   C28   S    
C11   C13   A    
C4    O4    A    
O1    Zn1   S    
C26   C27   S    
C29   C30   A    
C26   H14   S    
C17   N2    A    
C2    C29   A    
C23   H6    S    
C15   H20   S    
C2    C33   A    
C7    C16   S    
C4    C28   S    
C16   O5    A    
C2    C3    A    
C22   C24   S    
C19   H3    S    
O5    Zn1   S    
C12   H5    S    
C5    C6    A    
C14   N1    A    
C15   N1    A    
C25   H16   S    
C9    H22   S    
C10   C11   A    
C7    C33   A    
O2    Zn2   S    
C4    O3    A    
C19   C22   S    
C20   C21   S    
C27   H13   S    
C24   C28   S    
C15   C17   A    
C31   H12   S    
C1    O1    A    
C8    H21   S    
C1    C3    S    
O6    Zn2   S    
C27   H10   S    
C25   H17   S    
C30   H9    S    
C8    C14   A    
C16   O6    A    
C17   H2    S    
C13   C14   A    
C29   H8    S    
C18   O8    A    
C23   C28   S    
C12   C21   S    
C19   C20   S    
C8    C9    A    
O8    Zn2   S    
C22   C25   S    
C1    O2    A    
