data_mof_unit_33340.cif
_audit_creation_date              2012-12-10T20:28:47-0500
_audit_creation_method            fapswitch 2.2
_symmetry_space_group_name_H-M    P1
_symmetry_Int_Tables_number       1
_space_group_crystal_system       triclinic
_cell_length_a                    10.62818
_cell_length_b                    10.667966
_cell_length_c                    9.874894
_cell_angle_alpha                 89.937188
_cell_angle_beta                  90.05088
_cell_angle_gamma                 90.130127
_cell_volume                      1119.62197821

loop_
_atom_site_label
_atom_site_type_symbol
_atom_type_description
_atom_site_fract_x
_atom_site_fract_y
_atom_site_fract_z
_atom_type_partial_charge
C1    C     C_R   0.504316 0.259915 0.500063 0.845161
C2    C     C_R   0.065761 0.386624 0.554887 0.023801
C3    C     C_R   0.128096 0.491567 0.499060 -0.235019
C4    C     C_R   0.064099 0.591267 0.438210 0.513561
C5    C     C_R   0.934703 0.590905 0.441452 -0.321498
C6    C     C_R   0.871487 0.490387 0.499744 -0.170032
C7    C     C_R   0.533183 0.063730 0.622379 0.128527
C8    C     C_R   0.526476 0.128668 0.500188 -0.098851
C9    C     C_R   0.546022 0.065046 0.377737 -0.218509
C10   C     C_R   0.546265 0.935449 0.377599 -0.225599
C11   C     C_R   0.526950 0.871303 0.499918 -0.100887
C12   C     C_R   0.260545 0.497927 0.499906 0.956167
C13   C     C_R   0.533337 0.935807 0.622197 0.127149
C14   C     C_3   0.450975 0.927857 0.744531 -0.466402
C15   C     C_3   0.450752 0.069882 0.744765 -0.497781
C16   C     C_R   0.390378 0.484904 0.071144 0.211627
C17   C     C_R   0.606533 0.525972 0.071921 -0.143154
C18   C     C_R   0.606561 0.525867 0.928148 -0.140387
C19   C     C_R   0.390264 0.485388 0.928717 0.221848
C20   C     C_3   0.303472 0.375608 0.922874 -0.513293
C21   C     C_3   0.304370 0.374464 0.076691 -0.507347
C22   C     C_R   0.504646 0.740033 0.499885 0.909183
C23   C     C_R   0.739394 0.497471 0.500027 0.894389
C24   C     C_R   0.131113 0.281648 0.607181 -0.174462
C25   C     C_R   0.065642 0.179254 0.660014 -0.131775
C26   C     C_R   0.934725 0.178959 0.660468 -0.131493
C27   C     C_R   0.868934 0.281043 0.608108 -0.161712
C28   C     C_R   0.934037 0.386102 0.555218 0.095681
H1    H     H_    0.500914 0.886730 0.832954 0.201897
H2    H     H_    0.356747 0.110367 0.722720 0.193915
H3    H     H_    0.500477 0.110872 0.833421 0.204276
H4    H     H_    0.693063 0.545219 0.125703 0.153742
H5    H     H_    0.693118 0.544926 0.874470 0.157850
H6    H     H_    0.210398 0.400783 0.879343 0.213433
H7    H     H_    0.348199 0.291809 0.877321 0.210621
H8    H     H_    0.211607 0.398135 0.121623 0.198730
H9    H     H_    0.350366 0.290121 0.120573 0.216074
H10   H     H_    0.232660 0.276992 0.606297 0.136211
H11   H     H_    0.116566 0.099488 0.699698 0.133720
H12   H     H_    0.883945 0.099037 0.700508 0.135790
H13   H     H_    0.767350 0.276122 0.608251 0.140457
H14   H     H_    0.883167 0.670466 0.401486 0.157624
H15   H     H_    0.551416 0.114093 0.281784 0.171534
H16   H     H_    0.551792 0.886735 0.281591 0.170151
H17   H     H_    0.357104 0.886287 0.722398 0.210875
N1    N     N_R   0.499160 0.499140 0.142800 -0.106932
N2    N     N_R   0.499160 0.499180 0.857150 -0.107367
O1    O     O_R   0.500020 0.316790 0.614690 -0.627811
O2    O     O_R   0.500000 0.316760 0.385350 -0.622955
O3    O     O_R   0.316770 0.500020 0.614690 -0.626888
O4    O     O_R   0.316760 0.499980 0.385350 -0.601030
O5    O     O_R   0.500000 0.683240 0.614650 -0.617519
O6    O     O_R   0.499980 0.683210 0.385310 -0.616308
O7    O     O_R   0.683240 0.500020 0.614650 -0.630285
O8    O     O_R   0.683230 0.499980 0.385310 -0.627064
Zn1   Zn    Zn3+2 0.500010 0.500020 0.653130 0.937239
Zn2   Zn    Zn3+2 0.499990 0.499980 0.346870 0.947015
O9    O     O_3   0.129470 0.694635 0.389748 -0.606798
C29   C     C_3   0.114243 0.702367 0.248036 -0.284041
H18   H     H_    0.137656 0.612242 0.197259 0.154144
H19   H     H_    0.180128 0.774415 0.208536 0.190282
H20   H     H_    0.017338 0.732251 0.220885 0.150523

loop_
_geom_bond_atom_site_label_1
_geom_bond_atom_site_label_2
_ccdc_geom_bond_type
C12   O3    A    
C5    H14   S    
C1    O1    A    
C23   O8    A    
C16   C21   S    
O4    Zn2   S    
C22   O6    A    
C1    C8    S    
O3    Zn1   S    
C9    C10   A    
C27   H13   S    
C11   C22   S    
C24   H10   S    
C19   C20   S    
C7    C13   A    
C20   H6    S    
C18   N2    A    
C7    C15   S    
C17   C18   A    
O9    C29   S    
C24   C25   A    
C21   H9    S    
C29   H18   S    
C21   H8    S    
C13   C14   S    
C20   C21   S    
C15   H3    S    
C4    C5    A    
C11   C13   A    
C26   H12   S    
C26   C27   A    
C25   H11   S    
C23   O7    A    
C16   C19   A    
C6    C23   S    
N2    Zn1   S    
C2    C3    A    
C14   H17   S    
O7    Zn1   S    
O8    Zn2   S    
N1    Zn2   S    
C2    C24   A    
C5    C6    A    
C18   H5    S    
C19   N2    A    
C9    H15   S    
C29   H19   S    
C10   C11   A    
C14   H1    S    
C10   H16   S    
C3    C4    A    
C7    C8    A    
C12   O4    A    
O2    Zn2   S    
C17   N1    A    
C15   H2    S    
C22   O5    A    
C4    O9    S    
C27   C28   A    
O1    Zn1   S    
C17   H4    S    
O6    Zn2   S    
C14   C15   S    
C16   N1    A    
C29   H20   S    
C2    C28   A    
C3    C12   S    
C25   C26   A    
C20   H7    S    
C1    O2    A    
C6    C28   A    
O5    Zn1   S    
C8    C9    A    
