data_mof_unit_43617.cif
_audit_creation_date              2012-12-10T17:52:39-0500
_audit_creation_method            fapswitch 2.2
_symmetry_space_group_name_H-M    P1
_symmetry_Int_Tables_number       1
_space_group_crystal_system       triclinic
_cell_length_a                    14.701099
_cell_length_b                    14.503897
_cell_length_c                    23.496915
_cell_angle_alpha                 76.728211
_cell_angle_beta                  102.617256
_cell_angle_gamma                 114.783307
_cell_volume                      4384.6317642

loop_
_atom_site_label
_atom_site_type_symbol
_atom_type_description
_atom_site_fract_x
_atom_site_fract_y
_atom_site_fract_z
_atom_type_partial_charge
C1    C     C_R   0.880607 0.311098 0.507686 0.814005
C2    C     C_R   0.119579 0.688783 0.487335 0.822398
C3    C     C_R   0.088886 0.533517 0.768148 0.304418
C4    C     C_R   0.908613 0.471968 0.231012 0.301846
C5    C     C_R   0.087816 0.534659 0.708338 -0.351102
C6    C     C_R   0.911216 0.476115 0.290234 -0.354731
C7    C     C_R   0.996104 0.495584 0.671383 -0.092973
C8    C     C_R   0.002986 0.502627 0.328502 -0.102006
C9    C     C_R   0.903713 0.453974 0.694743 0.234725
C10   C     C_R   0.094330 0.529303 0.306393 0.236759
C11   C     C_R   0.905170 0.453421 0.754611 -0.238944
C12   C     C_R   0.091003 0.522607 0.247408 -0.242505
C13   C     C_R   0.996916 0.492395 0.791257 0.309239
C14   C     C_R   0.999031 0.494273 0.209830 0.312452
C15   C     C_R   0.814630 0.200972 0.506172 -0.134423
C16   C     C_R   0.186420 0.798689 0.473566 -0.131000
C17   C     C_R   0.784831 0.021301 0.506813 0.195014
C18   C     C_R   0.217169 0.978940 0.433267 0.193272
C19   C     C_R   0.852301 0.125896 0.506132 0.201740
C20   C     C_R   0.150079 0.874051 0.440924 0.203927
C21   C     C_R   0.710998 0.172665 0.502244 -0.303889
C22   C     C_R   0.289987 0.826517 0.490834 -0.311265
C23   C     C_R   0.998791 0.498859 0.608882 0.837238
C24   C     C_R   0.001382 0.501426 0.391021 0.806717
C25   C     C_R   0.641296 0.073223 0.494312 0.021836
C26   C     C_R   0.359769 0.926742 0.475612 0.017020
C27   C     C_R   0.677861 0.993950 0.500573 0.004502
C28   C     C_R   0.323257 0.006451 0.451982 0.017596
C29   C     C_R   0.535509 0.051511 0.481575 0.037775
C30   C     C_R   0.465435 0.948789 0.485028 0.037222
C31   C     C_R   0.502301 0.870538 0.494069 -0.248101
C32   C     C_R   0.498075 0.130218 0.462838 -0.250282
C33   C     C_R   0.605126 0.890984 0.500827 0.255412
C34   C     C_R   0.395184 0.109812 0.447984 0.253891
C35   C     C_R   0.707214 0.656178 0.394836 -0.341332
C36   C     C_R   0.293512 0.345606 0.606297 -0.324457
C37   C     C_R   0.790835 0.629752 0.412297 0.085090
C38   C     C_R   0.207443 0.367770 0.586769 0.092723
C39   C     C_R   0.718493 0.514928 0.495098 0.007215
C40   C     C_R   0.284130 0.489397 0.507065 -0.000489
C41   C     C_R   0.630395 0.537953 0.479566 -0.025119
C42   C     C_R   0.373852 0.469329 0.524150 -0.040537
C43   C     C_R   0.626602 0.610234 0.428016 0.164756
C44   C     C_R   0.377150 0.396545 0.575487 0.164970
C45   C     C_R   0.999746 0.579400 0.108681 0.575356
C46   C     C_R   0.990053 0.404877 0.891952 0.541932
C47   C     C_R   0.546323 0.491788 0.512518 0.082606
C48   C     C_R   0.459307 0.517740 0.492341 0.085647
C49   C     C_R   0.460294 0.590439 0.440778 -0.213342
C50   C     C_R   0.546305 0.420875 0.564905 -0.252648
C51   C     C_R   0.542233 0.635730 0.409510 -0.194983
C52   C     C_R   0.463510 0.374598 0.595651 -0.217399
C53   C     C_R   0.998862 0.409921 0.132436 0.541842
C54   C     C_R   0.000499 0.577826 0.868949 0.579652
C55   C     C_R   0.996911 0.407394 0.072945 -0.034012
C56   C     C_R   0.999553 0.579286 0.928206 -0.041101
C57   C     C_R   0.997146 0.493616 0.030494 -0.066647
C58   C     C_R   0.996908 0.492170 0.970469 -0.067028
C59   C     C_R   0.997895 0.581171 0.048048 -0.051911
C60   C     C_R   0.993995 0.403820 0.952729 -0.045709
C61   C     C_R   0.995221 0.320620 0.055408 -0.240511
C62   C     C_R   0.000556 0.665805 0.945667 -0.235321
C63   C     C_R   0.994452 0.317945 0.996173 0.254287
C64   C     C_R   0.997843 0.667175 0.004590 0.251735
Cu1   Cu    Cu3+1 0.081740 0.475680 0.515360 0.942427
Cu2   Cu    Cu3+1 0.918260 0.524320 0.484640 0.946920
H1    H     H_    0.539256 0.691223 0.370134 0.138963
H2    H     H_    0.466620 0.319686 0.635296 0.145269
H3    H     H_    0.398446 0.614170 0.423142 0.131265
H4    H     H_    0.609267 0.398814 0.583364 0.142004
H5    H     H_    0.834815 0.421821 0.773013 0.146931
H6    H     H_    0.160537 0.543154 0.229947 0.145942
N1    N     N_R   0.998830 0.494307 0.148808 -0.448548
N2    N     N_R   0.996038 0.491750 0.852219 -0.449332
N3    N     N_R   0.795430 0.560810 0.461550 -0.175508
N4    N     N_R   0.204570 0.439190 0.538450 -0.175461
O1    O     O_R   0.977900 0.338110 0.520250 -0.550721
O2    O     O_R   0.022100 0.661890 0.479750 -0.547577
O3    O     O_R   0.839850 0.379180 0.494310 -0.587643
O4    O     O_R   0.160150 0.620820 0.505690 -0.592636
O5    O     O_R   0.069020 0.479430 0.595090 -0.594253
O6    O     O_R   0.930980 0.520570 0.404910 -0.599832
O7    O     O_R   0.930970 0.520500 0.569150 -0.551706
O8    O     O_R   0.069030 0.479500 0.430850 -0.553791
O9    O     O_2   0.003793 0.661943 0.127947 -0.511910
O10   O     O_2   0.979955 0.320279 0.872271 -0.516198
O11   O     O_2   0.000590 0.328629 0.173764 -0.563588
O12   O     O_2   0.005129 0.661496 0.828126 -0.548476
H7    H     H_    0.995755 0.254267 0.087867 0.184146
H8    H     H_    0.001274 0.732621 0.913283 0.184859
N5    N     N_2   0.825250 0.944309 0.516325 -0.427298
H9    H     H_    0.872355 0.940951 0.555630 0.247738
C65   C     C_3   0.860641 0.932712 0.466450 -0.727093
H10   H     H_    0.846347 0.850545 0.468815 0.241551
H11   H     H_    0.943423 0.976745 0.468087 0.215765
H12   H     H_    0.820577 0.957862 0.423856 0.230838
N6    N     N_2   0.177793 0.055434 0.405571 -0.438132
H13   H     H_    0.119654 0.053898 0.424107 0.238211
C66   C     C_3   0.162668 0.073402 0.341620 -0.700153
H14   H     H_    0.169728 0.154027 0.325851 0.235375
H15   H     H_    0.085539 0.022512 0.324403 0.236395
H16   H     H_    0.220149 0.061234 0.323715 0.230870
H17   H     H_    0.451742 0.791471 0.491727 0.159173
H18   H     H_    0.547723 0.210311 0.455672 0.164774
H19   H     H_    0.275516 0.544916 0.469469 0.150384
H20   H     H_    0.727544 0.460162 0.533061 0.147394
H21   H     H_    0.143134 0.329077 0.610787 0.133380
H22   H     H_    0.851784 0.663165 0.386091 0.146825
H23   H     H_    0.705151 0.711457 0.355247 0.139932
H24   H     H_    0.294790 0.289149 0.645385 0.140837
N7    N     N_2   0.996187 0.228958 0.981374 -0.373740
H25   H     H_    0.951780 0.161079 0.004665 0.242524
C67   C     C_3   0.097002 0.233691 0.983058 -0.611887
H26   H     H_    0.092023 0.165005 0.967246 0.226137
H27   H     H_    0.137330 0.234987 0.028962 0.201029
H28   H     H_    0.140854 0.303396 0.953951 0.234522
N8    N     N_2   0.994256 0.755469 0.019133 -0.377106
H29   H     H_    0.039215 0.823812 0.996484 0.242792
C68   C     C_3   0.892693 0.749830 0.015970 -0.602619
H30   H     H_    0.896057 0.818048 0.031550 0.224001
H31   H     H_    0.848107 0.679663 0.044536 0.246535
H32   H     H_    0.854093 0.748735 0.969683 0.199513
N9    N     N_2   0.182191 0.576851 0.804586 -0.417417
H33   H     H_    0.232621 0.643133 0.783454 0.254410
C69   C     C_3   0.228701 0.504722 0.833223 -0.682273
H34   H     H_    0.298397 0.543398 0.862771 0.224729
H35   H     H_    0.249299 0.476370 0.799759 0.222981
H36   H     H_    0.176728 0.438591 0.860390 0.253625
N10   N     N_2   0.815528 0.448420 0.192368 -0.424747
H37   H     H_    0.769198 0.479708 0.200617 0.252373
C70   C     C_3   0.761807 0.340328 0.188171 -0.678729
H38   H     H_    0.692317 0.329248 0.155586 0.224212
H39   H     H_    0.739759 0.295776 0.231733 0.221251
H40   H     H_    0.809280 0.310614 0.173063 0.262340
H41   H     H_    0.158865 0.567161 0.690554 0.167238
H42   H     H_    0.840939 0.457074 0.306511 0.173633
N11   N     N_2   0.809479 0.411677 0.658659 -0.428575
H43   H     H_    0.750219 0.418635 0.671575 0.243890
C71   C     C_3   0.784196 0.308242 0.648916 -0.679282
H44   H     H_    0.772659 0.254189 0.691205 0.231760
H45   H     H_    0.845035 0.304485 0.629797 0.222312
H46   H     H_    0.713315 0.283902 0.617419 0.211485
N12   N     N_2   0.189836 0.568381 0.341967 -0.422707
H47   H     H_    0.245567 0.553146 0.330655 0.246059
C72   C     C_3   0.223146 0.675596 0.347291 -0.683379
H48   H     H_    0.232082 0.724257 0.303179 0.229725
H49   H     H_    0.296896 0.700813 0.376079 0.211357
H50   H     H_    0.168250 0.687210 0.367595 0.222541
N13   N     N_2   0.630388 0.804615 0.506296 -0.420088
H51   H     H_    0.674395 0.806769 0.477196 0.287768
C73   C     C_3   0.642776 0.750754 0.565525 -0.617847
H52   H     H_    0.660668 0.684186 0.564275 0.226876
H53   H     H_    0.571590 0.721618 0.585047 0.223370
H54   H     H_    0.705310 0.802513 0.593755 0.228509
N14   N     N_2   0.368642 0.196905 0.431478 -0.426275
H55   H     H_    0.332688 0.208421 0.389372 0.282949
C74   C     C_3   0.338969 0.224764 0.477680 -0.629353
H56   H     H_    0.328055 0.298036 0.461342 0.227006
H57   H     H_    0.398998 0.235262 0.516410 0.237806
H58   H     H_    0.267318 0.164308 0.491645 0.223867
H59   H     H_    0.315639 0.768466 0.517493 0.175720
H60   H     H_    0.685689 0.230055 0.506830 0.168955
N15   N     N_2   0.048155 0.843911 0.412295 -0.410645
H61   H     H_    0.013738 0.893559 0.410586 0.247959
C75   C     C_3   0.032362 0.809345 0.356372 -0.684548
H62   H     H_    0.093814 0.860335 0.329562 0.229592
H63   H     H_    0.959412 0.809341 0.330595 0.206372
H64   H     H_    0.029768 0.730101 0.364061 0.231895
N16   N     N_2   0.957936 0.155593 0.505858 -0.413115
H65   H     H_    0.988682 0.104160 0.530084 0.245918
C76   C     C_3   0.991690 0.198916 0.448432 -0.613976
H66   H     H_    0.957924 0.140608 0.418391 0.207183
H67   H     H_    0.075392 0.226482 0.453467 0.219546
H68   H     H_    0.969972 0.264976 0.427713 0.232690

loop_
_geom_bond_atom_site_label_1
_geom_bond_atom_site_label_2
_ccdc_geom_bond_type
C39   H20   S    
C76   H66   S    
C74   H56   S    
N14   C74   S    
C1    O1    A    
N16   H65   S    
N7    H25   S    
C17   N5    S    
C70   H40   S    
C72   H48   S    
N9    H33   S    
C39   C41   A    
C75   H62   S    
C38   N4    A    
C34   N14   S    
C27   C33   A    
C15   C19   A    
Cu2   O3    S    
C76   H67   S    
C59   C64   A    
C65   H10   S    
Cu1   N4    S    
C23   O7    A    
C60   C63   A    
N15   C75   S    
N10   H37   S    
C29   C32   A    
N13   C73   S    
C2    O4    A    
C30   C31   A    
C71   H46   S    
C11   H5    S    
C57   C59   A    
N5    C65   S    
C58   C60   A    
N12   H47   S    
N12   C72   S    
C11   C13   A    
C45   N1    A    
C73   H54   S    
C38   H21   S    
C61   C63   A    
C24   O6    A    
C6    H42   S    
N6    C66   S    
Cu2   O7    S    
C54   N2    A    
C9    N11   S    
C47   C48   A    
C61   H7    S    
C49   C51   A    
C69   H36   S    
C50   C52   A    
C73   H52   S    
C32   H18   S    
C1    C15   S    
C18   N6    S    
C39   N3    A    
C2    C16   S    
C62   C64   A    
C3    C13   A    
C67   H28   S    
C46   C60   A    
C44   C52   A    
C40   C42   A    
C37   N3    A    
C28   C34   A    
C74   H57   S    
Cu1   O4    S    
C49   H3    S    
C4    C14   A    
C41   C43   A    
C42   C44   A    
C53   O11   S    
C72   H49   S    
C3    N9    S    
N6    H13   S    
C47   C50   A    
C53   C55   A    
C25   C29   A    
Cu2   O2    S    
C76   H68   S    
C54   C56   A    
Cu1   O1    S    
C17   C27   A    
C14   N1    S    
C18   C28   A    
C37   H22   S    
C4    C6    A    
N5    H9    S    
C5    C7    A    
C22   H59   S    
C17   C19   A    
Cu1   O8    S    
C6    C8    A    
C3    C5    A    
C20   N15   S    
C64   N8    S    
C40   N4    A    
C31   H17   S    
C42   C48   A    
C45   O9    S    
C29   C30   A    
C2    O2    A    
Cu2   O6    S    
N11   C71   S    
Cu1   O5    S    
C66   H14   S    
C16   C20   A    
C31   C33   A    
C41   C47   A    
N7    C67   S    
C51   H1    S    
N10   C70   S    
C68   H30   S    
C9    C11   A    
C62   H8    S    
C68   H31   S    
C10   C12   A    
C8    C10   A    
C48   C49   A    
C66   H15   S    
C12   C14   A    
C26   C30   A    
C65   H12   S    
C75   H64   S    
C55   C57   A    
C36   H24   S    
C69   H34   S    
C1    O3    A    
C56   C62   A    
C36   C44   A    
C70   H38   S    
C46   N2    A    
C72   H50   S    
C35   C43   A    
C67   H26   S    
N16   C76   S    
C68   H32   S    
C5    H41   S    
C21   C25   A    
C45   C59   A    
C16   C22   A    
C21   H60   S    
C23   O5    A    
C35   C37   A    
C53   N1    A    
C19   N16   S    
C70   H39   S    
C52   H2    S    
C71   H44   S    
C4    N10   S    
C74   H58   S    
C25   C27   A    
N11   H43   S    
C26   C28   A    
N8    C68   S    
C24   O8    A    
C33   N13   S    
N13   H51   S    
C54   O12   S    
C71   H45   S    
C43   C51   A    
C57   C58   A    
C65   H11   S    
C7    C23   S    
Cu2   N3    S    
C55   C61   A    
C36   C38   A    
C8    C24   S    
C56   C58   A    
C35   H23   S    
C18   C20   A    
C10   N12   S    
C73   H53   S    
C63   N7    S    
C12   H6    S    
C50   H4    S    
N15   H61   S    
N9    C69   S    
C7    C9    A    
C15   C21   A    
C66   H16   S    
C13   N2    S    
C75   H63   S    
Cu1   Cu2   S    
C22   C26   A    
N14   H55   S    
C69   H35   S    
C67   H27   S    
N8    H29   S    
C32   C34   A    
C40   H19   S    
C46   O10   S    
