data_mof_unit_66161.cif
_audit_creation_date              2012-10-26T21:18:51-0400
_audit_creation_method            fapswitch 2.2
_symmetry_space_group_name_H-M    P1
_symmetry_Int_Tables_number       1
_space_group_crystal_system       triclinic
_cell_length_a                    15.900957
_cell_length_b                    15.899106
_cell_length_c                    17.044882
_cell_angle_alpha                 91.538204
_cell_angle_beta                  96.570844
_cell_angle_gamma                 91.965325
_cell_volume                      4276.25454555

loop_
_atom_site_label
_atom_site_type_symbol
_atom_type_description
_atom_site_fract_x
_atom_site_fract_y
_atom_site_fract_z
_atom_type_partial_charge
Br1   Br    Br    0.663569 0.623688 0.923395 -0.429676
Br2   Br    Br    0.395667 0.351075 0.712622 -0.382274
Br3   Br    Br    0.098537 0.339968 0.360617 -0.362943
Br4   Br    Br    0.922285 0.647445 0.625286 -0.357547
Br5   Br    Br    0.299793 0.623449 0.610506 -0.343988
Br6   Br    Br    0.362717 0.900626 0.596096 -0.435599
Br7   Br    Br    0.320983 0.094113 0.415539 -0.475809
Br8   Br    Br    0.642646 0.103765 0.398786 -0.598225
C1    C     C_R   0.510599 0.498500 0.651175 0.579814
C2    C     C_R   0.468633 0.434291 0.773791 0.189197
C3    C     C_R   0.475907 0.432241 0.856421 0.121302
C4    C     C_R   0.499605 0.659672 0.499969 0.561172
C5    C     C_R   0.531600 0.490946 0.902629 0.212441
C6    C     C_R   0.583039 0.546691 0.864902 0.170457
C7    C     C_R   0.575359 0.548288 0.782888 -0.141349
C8    C     C_R   0.529684 0.557965 0.143091 0.102521
C9    C     C_R   0.533042 0.558211 0.225706 0.083049
C10   C     C_R   0.476413 0.497987 0.096467 0.184471
C11   C     C_R   0.483099 0.499500 0.262107 -0.003394
C12   C     C_3   0.557037 0.051473 0.572522 0.177214
C13   C     C_R   0.427941 0.441552 0.215451 0.082443
C14   C     C_R   0.424309 0.441583 0.133182 0.137783
C15   C     C_R   0.244175 0.541066 0.536465 0.292147
C16   C     C_R   0.489357 0.499033 0.348631 0.564833
C17   C     C_R   0.155413 0.534575 0.531549 -0.100163
C18   C     C_R   0.109041 0.475109 0.479401 0.191371
C19   C     C_R   0.155207 0.423205 0.433128 0.149302
C20   C     C_R   0.244280 0.431544 0.439781 0.036588
C21   C     C_R   0.838129 0.450351 0.463408 0.054298
C22   C     C_R   0.748406 0.452883 0.462852 0.205876
C23   C     C_3   0.498638 0.083071 0.496381 0.112488
C24   C     C_R   0.891475 0.508368 0.512209 0.221121
C25   C     C_R   0.763862 0.567734 0.555980 0.210215
C26   C     C_R   0.852730 0.566345 0.558584 0.172368
C27   C     C_R   0.500373 0.340352 0.499849 0.559902
C28   C     C_3   0.554623 0.952810 0.568510 -0.219851
C29   C     C_3   0.403040 0.947273 0.499150 0.262989
C30   C     C_3   0.402746 0.048306 0.499732 0.225162
C31   C     C_1   0.501025 0.251050 0.499172 0.031376
C32   C     C_3   0.496700 0.916634 0.494065 0.061911
C33   C     C_3   0.532352 0.048841 0.416065 0.226856
C34   C     C_3   0.534619 0.947750 0.416782 0.220398
C35   C     C_1   0.500448 0.175655 0.498142 0.032798
C36   C     C_1   0.497698 0.824228 0.496673 0.046181
C37   C     C_1   0.498545 0.748954 0.498501 0.037752
C38   C     C_R   0.517281 0.493923 0.737100 -0.033490
Cu1   Cu    Cu3+1 0.584780 0.504030 0.503820 1.004496
Cu2   Cu    Cu3+1 0.415220 0.495970 0.496180 1.063668
H1    H     H_    0.619197 0.928115 0.570552 0.137663
H2    H     H_    0.502377 0.060336 0.295070 0.270531
H3    H     H_    0.472996 0.140266 0.347650 0.270172
H4    H     H_    0.648518 0.612939 0.261289 0.264355
H5    H     H_    0.567229 0.679617 0.256707 0.255861
H6    H     H_    0.628275 0.591520 0.084047 0.298387
H7    H     H_    0.540339 0.649424 0.063372 0.287563
H8    H     H_    0.330896 0.411540 0.278180 0.256340
H9    H     H_    0.414727 0.347309 0.291980 0.233701
H10   H     H_    0.470252 0.337911 0.933753 0.250346
H11   H     H_    0.381187 0.395519 0.919394 0.259933
H12   H     H_    0.614077 0.593161 0.754801 0.162829
H13   H     H_    0.403393 0.343044 0.055162 0.242907
H14   H     H_    0.326804 0.415438 0.047874 0.250887
H15   H     H_    0.705433 0.405900 0.353199 0.221564
H16   H     H_    0.709093 0.334127 0.425710 0.241590
H17   H     H_    0.855435 0.328793 0.431212 0.257527
H18   H     H_    0.851458 0.397332 0.355947 0.249070
H19   H     H_    0.686014 0.609035 0.635271 0.264823
H20   H     H_    0.703762 0.677932 0.562315 0.260394
H21   H     H_    0.281645 0.917255 0.446697 0.294299
H22   H     H_    0.348834 0.935977 0.380638 0.302400
H23   H     H_    0.533888 0.926231 0.622972 0.164397
H24   H     H_    0.306196 0.061746 0.570566 0.302021
H25   H     H_    0.371500 0.146071 0.573465 0.281627
H26   H     H_    0.665195 0.946667 0.458291 0.254283
H27   H     H_    0.643001 0.927624 0.361320 0.279214
H28   H     H_    0.512173 0.923366 0.295136 0.247197
H29   H     H_    0.483540 0.843909 0.347884 0.250373
H30   H     H_    0.278853 0.390602 0.404453 0.157293
H31   H     H_    0.123383 0.576222 0.568644 0.192845
H32   H     H_    0.575666 0.087126 0.692193 0.273308
H33   H     H_    0.482507 0.039320 0.666883 0.282779
H34   H     H_    0.684163 0.049237 0.543965 0.267832
H35   H     H_    0.649994 0.147744 0.564832 0.283178
N1    N     N_2   0.539394 0.492888 0.986338 -0.210503
N2    N     N_3   0.585988 0.619596 0.273199 -0.584339
N3    N     N_3   0.578904 0.620829 0.108036 -0.591213
N4    N     N_3   0.376448 0.380249 0.250241 -0.538750
N5    N     N_3   0.429185 0.367811 0.891966 -0.544305
N6    N     N_3   0.367612 0.382306 0.087298 -0.537728
N7    N     N_3   0.694554 0.395927 0.411605 -0.533873
N8    N     N_3   0.874072 0.388977 0.415121 -0.540881
N9    N     N_3   0.730104 0.633365 0.600647 -0.546663
N10   N     N_3   0.343764 0.908258 0.434545 -0.545299
N11   N     N_3   0.370144 0.080260 0.571885 -0.553028
N12   N     N_2   0.469678 0.496353 0.012789 -0.255987
N13   N     N_3   0.621312 0.916820 0.415960 -0.616722
N14   N     N_3   0.483734 0.909560 0.345851 -0.579594
N15   N     N_R   0.287860 0.489910 0.490440 -0.246605
N16   N     N_2   0.017858 0.466384 0.471646 -0.116626
N17   N     N_2   0.982854 0.513015 0.517573 -0.180758
N18   N     N_R   0.712150 0.510100 0.509550 -0.221643
N19   N     N_3   0.525784 0.081907 0.646389 -0.547462
N20   N     N_3   0.645763 0.083828 0.577104 -0.591314
N21   N     N_3   0.475895 0.074644 0.346961 -0.531188
O1    O     O_R   0.579470 0.503770 0.617500 -0.525771
O2    O     O_R   0.436280 0.496960 0.611050 -0.423402
O3    O     O_R   0.571630 0.623970 0.503220 -0.523906
O4    O     O_R   0.428430 0.617160 0.496770 -0.447487
O5    O     O_R   0.563720 0.503040 0.388950 -0.443937
O6    O     O_R   0.420530 0.496230 0.382500 -0.531861
O7    O     O_R   0.571570 0.382840 0.503230 -0.469300
O8    O     O_R   0.428370 0.376030 0.496780 -0.490994

loop_
_geom_bond_atom_site_label_1
_geom_bond_atom_site_label_2
_ccdc_geom_bond_type
Cu2   O6    S    
C13   N4    S    
H2    N21   S    
Cu1   N18   S    
C7    H12   S    
H16   N7    S    
C22   N7    S    
C12   N20   S    
C5    N1    S    
C18   C19   A    
C21   C22   A    
C23   C35   S    
C25   N18   A    
H4    N2    S    
C11   C13   A    
C21   C24   A    
H21   N10   S    
H28   N14   S    
C12   N19   S    
C1    O1    A    
H14   N6    S    
C22   N18   A    
C33   C34   S    
H11   N5    S    
C9    C11   A    
C14   N6    S    
Cu2   O2    S    
Cu1   Cu2   S    
C8    C9    A    
Cu1   O1    S    
C2    C38   A    
H34   N20   S    
H29   N14   S    
H3    N21   S    
C20   H30   S    
C28   H23   S    
C18   N16   S    
H24   N11   S    
C32   C34   S    
C1    C38   S    
C17   H31   S    
C13   C14   A    
C8    N3    S    
C10   N12   S    
H25   N11   S    
C9    N2    S    
H13   N6    S    
H27   N13   S    
H33   N19   S    
Br4   C26   S    
H26   N13   S    
C28   C32   S    
H22   N10   S    
C16   O6    A    
Br8   C33   S    
C34   N14   S    
C4    O4    A    
H8    N4    S    
C31   C35   T    
C17   C18   A    
Cu1   O5    S    
H9    N4    S    
H32   N19   S    
N1    N12   D    
C24   C26   A    
C27   C31   S    
C29   C30   S    
N16   N17   D    
Br5   C15   S    
C3    N5    S    
C30   N11   S    
C25   C26   A    
Br6   C29   S    
C29   N10   S    
H35   N20   S    
Cu2   O8    S    
Cu1   O3    S    
C34   N13   S    
C25   N9    S    
Br2   C2    S    
C21   N8    S    
C27   O7    A    
C36   C37   T    
H6    N3    S    
C20   N15   A    
H17   N8    S    
C23   C33   S    
C10   C14   A    
C16   O5    A    
C4    C37   S    
H10   N5    S    
C4    O3    A    
C33   N21   S    
H18   N8    S    
C29   C32   S    
Cu2   N15   S    
C23   C30   S    
H7    N3    S    
Br3   C19   S    
C11   C16   S    
C1    O2    A    
C3    C5    A    
Cu2   O4    S    
Cu1   O7    S    
H15   N7    S    
H19   N9    S    
H20   N9    S    
Br7   C30   S    
C15   C17   A    
C2    C3    A    
C27   O8    A    
C12   C28   S    
C24   N17   S    
C32   C36   S    
C15   N15   A    
C8    C10   A    
C19   C20   A    
C6    C7    A    
H5    N2    S    
Br1   C6    S    
C7    C38   A    
C5    C6    A    
C28   H1    S    
C12   C23   S    
