data_mof_unit_42300.cif
_audit_creation_date              2012-12-11T14:21:02-0500
_audit_creation_method            fapswitch 2.2
_symmetry_space_group_name_H-M    P1
_symmetry_Int_Tables_number       1
_space_group_crystal_system       triclinic
_cell_length_a                    11.486606
_cell_length_b                    11.560503
_cell_length_c                    19.538478
_cell_angle_alpha                 90.35458
_cell_angle_beta                  90.007121
_cell_angle_gamma                 59.954615
_cell_volume                      2245.84686313

loop_
_atom_site_label
_atom_site_type_symbol
_atom_type_description
_atom_site_fract_x
_atom_site_fract_y
_atom_site_fract_z
_atom_type_partial_charge
C1    C     C_R   0.640784 0.117187 0.599222 0.554225
C2    C     C_1   0.651905 0.683212 0.664101 0.000407
C3    C     C_1   0.126513 0.199334 0.859254 0.002785
C4    C     C_1   0.170929 0.170425 0.727634 -0.030183
C5    C     C_1   0.149768 0.182733 0.798876 -0.030989
C6    C     C_1   0.194753 0.160823 0.667281 0.005833
C7    C     C_1   0.677984 0.191903 0.860736 0.001556
C8    C     C_1   0.658862 0.167282 0.728942 -0.030379
C9    C     C_1   0.665403 0.181415 0.800258 -0.031439
C10   C     C_1   0.653585 0.149401 0.668560 0.005064
C11   C     C_R   0.648345 0.699598 0.183957 -0.003588
C12   C     C_R   0.614018 0.743226 0.597950 0.557733
C13   C     C_R   0.514233 0.773064 0.206955 0.027213
C14   C     C_R   0.489366 0.791664 0.277916 0.016804
C15   C     C_R   0.729728 0.707049 0.296021 -0.139254
C16   C     C_R   0.754528 0.668215 0.228585 -0.146748
C17   C     C_R   0.405395 0.813819 0.161123 -0.085862
C18   C     C_R   0.280780 0.839864 0.184830 -0.116944
C19   C     C_R   0.260490 0.836924 0.254499 -0.141001
C20   C     C_R   0.358934 0.823847 0.300745 -0.103170
C21   C     C_R   0.598925 0.767251 0.322107 0.002596
C22   C     C_R   0.138301 0.197640 0.193354 -0.011115
C23   C     C_R   0.240748 0.145247 0.598107 0.551917
C24   C     C_R   0.208394 0.256761 0.221468 0.016290
C25   C     C_R   0.204631 0.273250 0.292533 0.028926
C26   C     C_R   0.104837 0.131841 0.306660 -0.051112
C27   C     C_R   0.081101 0.141449 0.236540 -0.145540
C28   C     C_R   0.266101 0.315264 0.180168 -0.081822
C29   C     C_R   0.288416 0.414157 0.206751 -0.119663
C30   C     C_R   0.260751 0.450238 0.275202 -0.148147
C31   C     C_R   0.219699 0.380965 0.317882 -0.078314
C32   C     C_R   0.177962 0.186538 0.334251 -0.007053
C33   C     C_R   0.664299 0.181408 0.190778 -0.009805
C34   C     C_R   0.646399 0.109471 0.401412 0.550463
C35   C     C_R   0.734200 0.049078 0.215067 0.024038
C36   C     C_R   0.757666 0.028346 0.285733 0.038529
C37   C     C_R   0.592506 0.264321 0.305770 -0.142766
C38   C     C_R   0.594971 0.288062 0.236592 -0.146292
C39   C     C_R   0.795513 0.938560 0.169534 -0.078054
C40   C     C_R   0.903045 0.817927 0.190731 -0.119318
C41   C     C_R   0.941844 0.801806 0.258740 -0.162066
C42   C     C_R   0.867793 0.902969 0.306246 -0.087112
C43   C     C_R   0.672695 0.135650 0.331464 0.017306
C44   C     C_R   0.081671 0.231386 0.928580 0.535779
C45   C     C_R   0.580986 0.800735 0.394863 0.553996
C46   C     C_R   0.709276 0.545990 0.922572 0.557948
C47   C     C_R   0.707914 0.206862 0.930139 0.535640
C48   C     C_R   0.083506 0.235031 0.124931 0.535794
C49   C     C_R   0.679412 0.619177 0.122396 0.544680
C50   C     C_R   0.704858 0.209532 0.125195 0.533478
C51   C     C_R   0.241402 0.144946 0.401948 0.544080
C52   C     C_1   0.699120 0.580806 0.851717 0.001343
C53   C     C_1   0.673361 0.644539 0.722299 -0.029511
C54   C     C_1   0.689529 0.608524 0.791898 -0.031380
Cr1   Cr    Cr6+3 0.404720 0.198220 0.499960 1.020718
Cr2   Cr    Cr6+3 0.698290 0.897110 0.500380 1.029484
Cr3   Cr    Cr6+3 0.396970 0.904720 0.499610 1.031038
Cr4   Cr    Cr6+3 0.926180 0.151990 0.028120 1.011821
Cr5   Cr    Cr6+3 0.921330 0.451820 0.027470 1.016481
Cr6   Cr    Cr6+3 0.626260 0.446870 0.028710 1.012634
H1    H     H_    0.815357 0.680277 0.328856 0.143926
H2    H     H_    0.323062 0.465652 0.173705 0.116899
H3    H     H_    0.272146 0.531393 0.295481 0.105399
H4    H     H_    0.191259 0.420460 0.369183 0.144387
H5    H     H_    0.530963 0.347390 0.339708 0.134897
H6    H     H_    0.766987 0.948390 0.116121 0.125855
H7    H     H_    0.546160 0.390592 0.219294 0.144180
H8    H     H_    0.956342 0.737000 0.154413 0.118865
H9    H     H_    0.026603 0.708626 0.275394 0.109503
H10   H     H_    0.906470 0.880998 0.357458 0.175949
H11   H     H_    0.419030 0.815989 0.106397 0.129366
H12   H     H_    0.858221 0.606155 0.212453 0.147583
H13   H     H_    0.200561 0.860530 0.149210 0.123516
H14   H     H_    0.164815 0.852791 0.272913 0.128172
H15   H     H_    0.329416 0.833948 0.353396 0.175456
H16   H     H_    0.285873 0.291096 0.126244 0.125795
H17   H     H_    0.015727 0.107252 0.215971 0.152500
O1    O     O_R   0.267740 0.231960 0.575440 -0.504592
O2    O     O_R   0.685970 0.784660 0.430010 -0.506629
O3    O     O_R   0.502530 0.767000 0.423990 -0.529951
O4    O     O_R   0.288330 0.026350 0.429250 -0.514346
O5    O     O_3   0.499990 0.000020 0.499980 -0.274804
O6    O     O_R   0.821500 0.119340 0.952830 -0.505850
O7    O     O_R   0.037130 0.162530 0.957360 -0.495463
O8    O     O_R   0.056440 0.344740 0.951340 -0.514343
O9    O     O_R   0.797900 0.560360 0.957470 -0.492475
O10   O     O_R   0.596130 0.579390 0.952730 -0.507437
O11   O     O_R   0.639060 0.321160 0.958670 -0.511590
O12   O     O_R   0.527280 0.186640 0.570530 -0.491686
O13   O     O_R   0.821240 0.124200 0.104370 -0.521950
O14   O     O_R   0.036890 0.167040 0.097840 -0.505400
O15   O     O_R   0.056180 0.349610 0.102880 -0.518813
O16   O     O_R   0.797660 0.564870 0.097950 -0.502034
O17   O     O_R   0.595880 0.584250 0.104270 -0.517774
O18   O     O_R   0.638830 0.325670 0.099150 -0.502022
O19   O     O_3   0.824590 0.350230 0.028100 -0.264329
O20   O     O_R   0.728090 0.003450 0.576380 -0.498508
O21   O     O_R   0.682970 0.789190 0.570490 -0.488993
O22   O     O_R   0.499290 0.771880 0.575530 -0.498664
O23   O     O_R   0.285330 0.030870 0.569730 -0.487863
O24   O     O_R   0.270980 0.227080 0.423890 -0.535206
O25   O     O_R   0.530280 0.182120 0.430050 -0.501376
O26   O     O_R   0.731330 0.998570 0.424830 -0.528481
C55   C     C_1   0.042608 0.079684 0.351479 0.180430
N1    N     N_1   0.993734 0.039305 0.388977 -0.320071

loop_
_geom_bond_atom_site_label_1
_geom_bond_atom_site_label_2
_ccdc_geom_bond_type
C25   C31   A    
C22   C48   S    
C26   C32   A    
C41   C42   A    
C36   C42   A    
C35   C36   A    
C16   H12   S    
Cr2   O21   S    
C2    C12   S    
Cr6   O11   S    
C53   C54   S    
Cr1   O25   S    
C26   C27   A    
C29   C30   A    
Cr2   O2    S    
C14   C21   A    
C28   C29   A    
C30   C31   A    
C50   O18   A    
C15   C16   A    
Cr3   O22   S    
C46   C52   S    
C42   H10   S    
C18   C19   A    
Cr4   O19   S    
C12   O22   A    
C26   C55   S    
C50   O13   A    
C19   C20   A    
C8    C9    S    
C48   O14   A    
C37   H5    S    
C47   O6    A    
C49   O17   A    
Cr4   O14   S    
C51   O4    A    
C12   O21   A    
C25   C32   A    
C23   O23   A    
C30   H3    S    
Cr3   O3    S    
Cr2   O20   S    
C55   N1    T    
Cr6   O10   S    
C52   C54   T    
C21   C45   S    
C3    C44   S    
C34   C43   S    
C14   C20   A    
C24   C25   A    
C4    C6    T    
C1    O20   A    
C39   C40   A    
Cr1   O1    S    
C27   H17   S    
C33   C50   S    
Cr3   O23   S    
C20   H15   S    
C7    C47   S    
C37   C43   A    
C35   C39   A    
Cr5   O8    S    
C32   C51   S    
C37   C38   A    
C11   C49   S    
Cr4   O7    S    
C11   C16   A    
C17   C18   A    
C15   H1    S    
C45   O2    A    
C34   O25   A    
Cr1   O5    S    
Cr4   O13   S    
Cr6   O19   S    
C40   C41   A    
C17   H11   S    
C18   H13   S    
C22   C27   A    
C40   H8    S    
C39   H6    S    
C22   C24   A    
Cr5   O19   S    
C44   O8    A    
C28   H16   S    
C3    C5    T    
C41   H9    S    
C46   O10   A    
C7    C9    T    
C29   H2    S    
C1    O12   A    
C31   H4    S    
C19   H14   S    
C1    C10   S    
C24   C28   A    
Cr2   O26   S    
C4    C5    S    
C44   O7    A    
C2    C53   T    
Cr2   O5    S    
C51   O24   A    
Cr1   O24   S    
C33   C38   A    
C13   C17   A    
C47   O11   A    
Cr5   O9    S    
Cr1   O12   S    
Cr4   O6    S    
C11   C13   A    
C6    C23   S    
C34   O26   A    
C33   C35   A    
C45   O3    A    
Cr3   O4    S    
Cr5   O15   S    
C23   O1    A    
Cr6   O18   S    
C15   C21   A    
C38   H7    S    
C8    C10   T    
C48   O15   A    
Cr3   O5    S    
C36   C43   A    
Cr5   O16   S    
C49   O16   A    
C13   C14   A    
C46   O9    A    
Cr6   O17   S    
