data_mof_unit_28432.cif
_audit_creation_date              2013-03-05T15:42:05-0500
_audit_creation_method            fapswitch 2.2
_symmetry_space_group_name_H-M    P1
_symmetry_Int_Tables_number       1
_space_group_crystal_system       triclinic
_cell_length_a                    7.810018
_cell_length_b                    8.68416
_cell_length_c                    15.703564
_cell_angle_alpha                 90.776756
_cell_angle_beta                  87.437798
_cell_angle_gamma                 93.005299
_cell_volume                      1062.47459853

loop_
_atom_site_label
_atom_site_type_symbol
_atom_site_description
_atom_site_fract_x
_atom_site_fract_y
_atom_site_fract_z
_atom_type_partial_charge
O1    O     O_R   0.389250 0.738570 0.505570 -0.598207
O2    O     O_R   0.610750 0.261430 0.494430 -0.598207
O3    O     O_R   0.678390 0.711630 0.491020 -0.573257
O4    O     O_R   0.321610 0.288370 0.508980 -0.573275
C1    C     C_R   0.544416 0.793562 0.497040 0.869719
C2    C     C_R   0.455584 0.206438 0.502961 0.869713
O5    O     O_R   0.355460 0.513480 0.630490 -0.581099
O6    O     O_R   0.644540 0.486520 0.369510 -0.581106
O7    O     O_R   0.644600 0.486540 0.615950 -0.586904
O8    O     O_R   0.355400 0.513460 0.384050 -0.586898
C3    C     C_R   0.504433 0.499461 0.661627 0.869406
C4    C     C_R   0.495566 0.500539 0.338373 0.869403
Zn1   Zn    Zn3+2 0.306940 0.517990 0.509710 1.180093
Zn2   Zn    Zn3+2 0.693060 0.482010 0.490290 1.180095
C5    C     C_2   0.568632 0.955216 0.501274 -0.005395
C6    C     C_2   0.431368 0.044784 0.498727 -0.005400
C7    C     C_3   0.442909 0.634926 0.025338 0.117260
C8    C     C_3   0.557091 0.365074 0.974662 0.117260
C9    C     C_3   0.611314 0.614738 0.972999 0.299441
C10   C     C_3   0.388686 0.385262 0.027001 0.299440
C11   C     C_1   0.515147 0.497089 0.749998 0.000709
C12   C     C_1   0.484853 0.502911 0.250002 0.000710
C13   C     C_3   0.346183 0.518271 0.968047 0.293038
C14   C     C_3   0.653817 0.481729 0.031953 0.293038
C15   C     C_3   0.515459 0.496365 0.915978 -0.291620
C16   C     C_3   0.484540 0.503636 0.084022 -0.291621
N1    N     N_2   0.950320 0.457950 0.477300 0.040146
N2    N     N_2   0.049680 0.542050 0.522700 0.040154
C17   C     C_1   0.520414 0.495659 0.825069 0.258021
C18   C     C_1   0.479586 0.504341 0.174931 0.258021
Cl1   Cl    Cl    0.757761 0.766013 0.936162 -0.273471
Cl2   Cl    Cl    0.242238 0.233987 0.063838 -0.273471
N3    N     N_R   0.378257 0.783197 0.051950 0.301954
O9    O     O_R   0.343022 0.882293 0.994776 -0.203573
O10   O     O_R   0.353238 0.816597 0.132355 -0.273657
N4    N     N_R   0.621742 0.216803 0.948050 0.301954
O11   O     O_R   0.656978 0.117707 0.005224 -0.203572
O12   O     O_R   0.646761 0.183403 0.867645 -0.273661
Cl3   Cl    Cl    0.853711 0.454833 0.078679 -0.325454
Cl4   Cl    Cl    0.146289 0.545167 0.921320 -0.325451
N5    N     N_R   0.740575 0.014567 0.514667 0.243644
O13   O     O_R   0.854559 0.015516 0.451735 -0.233946
O14   O     O_R   0.785534 0.055945 0.590769 -0.268331
N6    N     N_R   0.259425 0.985433 0.485335 0.243639
O15   O     O_R   0.145442 0.984481 0.548268 -0.233951
O16   O     O_R   0.214463 0.944059 0.409232 -0.268324
N7    N     N_R   0.017088 0.430609 0.395658 0.307035
O17   O     O_R   0.007497 0.534539 0.337385 -0.293883
O18   O     O_R   0.054657 0.291369 0.373032 -0.271654
N8    N     N_R   0.982904 0.569411 0.604339 0.307040
O19   O     O_R   0.992548 0.465523 0.662628 -0.293882
O20   O     O_R   0.945275 0.708643 0.626942 -0.271661

loop_
_geom_bond_atom_site_label_1
_geom_bond_atom_site_label_2
_geom_bond_distance
_ccdc_geom_bond_type
N8    O20   1.300239 A    
O7    Zn2   1.992843 S    
Zn1   N2    2.031845 S    
C16   C18   1.426319 S    
Zn2   N1    2.031844 S    
N5    O14   1.301250 A    
N5    O13   1.300007 A    
C6    N6    1.436292 S    
N7    O17   1.301225 A    
C10   C13   1.548589 S    
O6    C4    1.294193 A    
C10   C16   1.540538 S    
C9    Cl1   1.781157 S    
N4    O12   1.300217 A    
C9    C14   1.548589 S    
N7    O18   1.300262 A    
C7    C13   1.536929 S    
O5    C3    1.294193 A    
O7    C3    1.290722 A    
O2    C2    1.281061 A    
O3    Zn2   2.003182 S    
C8    N4    1.456793 S    
O1    C1    1.281061 A    
C7    C16   1.532670 S    
O8    C4    1.290722 A    
C7    N3    1.456793 S    
N4    O11   1.300101 A    
C7    C9    1.536153 S    
N6    O16   1.301251 A    
N8    O19   1.301215 A    
C8    C10   1.536153 S    
C13   C15   1.542114 S    
C15   C17   1.426319 S    
O2    Zn2   1.989304 S    
C8    C15   1.532671 S    
C8    C14   1.536929 S    
C1    C5    1.407726 S    
O1    Zn1   1.989305 S    
C9    C15   1.540539 S    
C2    C6    1.407727 S    
C5    C6    1.359400 D    
C4    C12   1.394488 S    
O5    Zn1   1.952010 S    
C14   Cl3   1.782010 S    
N3    O9    1.300101 A    
N6    O15   1.300007 A    
C5    N5    1.436293 S    
O4    C2    1.295147 A    
C10   Cl2   1.781157 S    
N1    N7    1.384547 S    
N1    N2    1.272706 D    
N2    N8    1.384546 S    
O6    Zn2   1.952010 S    
C12   C18   1.181694 T    
N3    O10   1.300217 A    
C11   C17   1.181694 T    
C3    C11   1.394488 S    
C13   Cl4   1.782011 S    
O4    Zn1   2.003182 S    
C14   C16   1.542112 S    
O3    C1    1.295149 A    
O8    Zn1   1.992843 S    
