data_mof_unit_20443.cif
_audit_creation_date              2012-12-10T16:56:34-0500
_audit_creation_method            fapswitch 2.2
_symmetry_space_group_name_H-M    P1
_symmetry_Int_Tables_number       1
_space_group_crystal_system       triclinic
_cell_length_a                    10.792197
_cell_length_b                    10.912104
_cell_length_c                    9.720392
_cell_angle_alpha                 90.20618
_cell_angle_beta                  91.175574
_cell_angle_gamma                 90.547698
_cell_volume                      1144.42608864

loop_
_atom_site_label
_atom_site_type_symbol
_atom_type_description
_atom_site_fract_x
_atom_site_fract_y
_atom_site_fract_z
_atom_type_partial_charge
C1    C     C_R   0.498127 0.265423 0.499886 0.904341
C2    C     C_3   0.877446 0.486248 0.503036 -0.212323
C3    C     C_3   0.922492 0.616260 0.549652 -0.466444
C4    C     C_3   0.926272 0.460801 0.353768 0.145217
C5    C     C_2   0.497966 0.932609 0.387094 -0.106089
C6    C     C_2   0.509345 0.866805 0.502739 -0.240473
C7    C     C_2   0.503505 0.066709 0.386934 -0.061835
C8    C     C_2   0.491284 0.133313 0.501721 -0.260854
C9    C     C_2   0.484040 0.404382 0.923484 -0.082894
C10   C     C_2   0.447194 0.416775 0.070241 0.472749
C11   C     C_R   0.259917 0.504068 0.499259 0.897622
C12   C     C_R   0.502701 0.734589 0.500327 0.904877
C13   C     C_R   0.739310 0.489499 0.501256 0.860327
C14   C     C_3   0.078565 0.398137 0.597114 -0.436133
C15   C     C_3   0.935636 0.385603 0.599244 0.266314
C16   C     C_3   0.065795 0.632248 0.543747 0.662304
C17   C     C_3   0.069231 0.468375 0.354847 -0.361502
C18   C     C_3   0.121483 0.503620 0.499709 -0.240571
Cu1   Cu    Cu3+1 0.500030 0.500020 0.638630 1.059349
Cu2   Cu    Cu3+1 0.499970 0.499980 0.361370 1.066880
H1    H     H_    0.891994 0.534979 0.285023 0.174225
H2    H     H_    0.874821 0.685908 0.484712 0.192999
H3    H     H_    0.479480 0.314586 0.875734 0.219297
H4    H     H_    0.490816 0.582928 0.893996 0.215371
H5    H     H_    0.117236 0.309719 0.560561 0.173192
H6    H     H_    0.573336 0.544950 0.113258 0.150530
H7    H     H_    0.911717 0.294632 0.554223 0.172884
N1    N     N_2   0.498630 0.498660 0.846910 -0.303633
N2    N     N_2   0.498590 0.498630 0.153040 -0.336919
O1    O     O_R   0.500020 0.321960 0.617040 -0.581526
O2    O     O_R   0.499980 0.321920 0.382900 -0.528368
O3    O     O_R   0.317710 0.500000 0.617070 -0.539783
O4    O     O_R   0.317670 0.499960 0.382930 -0.517184
O5    O     O_R   0.500020 0.678080 0.617100 -0.561392
O6    O     O_R   0.499980 0.678040 0.382960 -0.571400
O7    O     O_R   0.682330 0.500040 0.617070 -0.549900
O8    O     O_R   0.682290 0.500000 0.382930 -0.595606
H8    H     H_    0.118684 0.409173 0.701753 0.280370
S1    S     S_3+6 0.100243 0.753634 0.420274 0.031604
O9    O     O_2   0.234100 0.750684 0.381521 -0.304277
O10   O     O_2   0.020929 0.741136 0.291900 -0.310361
O11   O     O_3   0.071212 0.891097 0.490978 -0.441021
H9    H     H_    0.100190 0.951878 0.423031 0.393386
H10   H     H_    0.486096 0.887346 0.287908 0.193562
H11   H     H_    0.526381 0.908514 0.602567 0.157196
H12   H     H_    0.516157 0.111237 0.288341 0.209910
H13   H     H_    0.473389 0.092260 0.600588 0.157847
S2    S     S_3+6 0.308532 0.335339 0.105722 0.054520
O12   O     O_2   0.303742 0.283510 0.247884 -0.304471
O13   O     O_2   0.202705 0.421774 0.083193 -0.235873
O14   O     O_3   0.291251 0.218666 0.993072 -0.540843
H14   H     H_    0.204723 0.189592 0.003538 0.413304
S3    S     S_3+6 0.881257 0.372885 0.773839 0.077699
O15   O     O_2   0.757589 0.308091 0.771653 -0.287703
O16   O     O_2   0.970541 0.296115 0.856224 -0.174555
O17   O     O_3   0.869003 0.509790 0.852340 -0.462632
H15   H     H_    0.782230 0.514358 0.883037 0.355268
S4    S     S_3+6 0.123366 0.689558 0.710187 0.080018
O18   O     O_2   0.120560 0.594003 0.820743 -0.223220
O19   O     O_2   0.253756 0.737050 0.697688 -0.265323
O20   O     O_3   0.033625 0.806379 0.759624 -0.467325
H16   H     H_    0.073144 0.837836 0.845758 0.396631
H17   H     H_    0.888763 0.635783 0.653992 0.257164
H18   H     H_    0.100160 0.533805 0.275563 0.266466
H19   H     H_    0.109777 0.379924 0.325586 0.274618
S5    S     S_3+6 0.871230 0.316965 0.275236 0.048116
O21   O     O_2   0.969714 0.220422 0.278029 -0.220681
O22   O     O_2   0.760268 0.265375 0.346629 -0.323429
O23   O     O_3   0.831320 0.344265 0.110422 -0.399707
H20   H     H_    0.753933 0.392025 0.114567 0.330094

loop_
_geom_bond_atom_site_label_1
_geom_bond_atom_site_label_2
_ccdc_geom_bond_type
C2    C4    S    
C11   C18   S    
Cu1   N1    S    
C6    H11   S    
C3    H17   S    
C17   H19   S    
C14   H8    S    
C1    C8    S    
C9    C10   S    
C14   C18   S    
C15   H7    S    
Cu1   Cu2   S    
C1    O2    A    
Cu2   N2    S    
Cu2   O8    S    
Cu1   O3    S    
S4    O20   S    
S2    O13   D    
C17   C18   S    
C8    H13   S    
C7    C8    D    
S1    O10   D    
C16   S4    S    
S3    O15   D    
C12   O6    A    
C4    S5    S    
C2    C15   S    
Cu1   O1    S    
C10   N2    D    
O23   H20   S    
H6    N2    S    
C5    C6    D    
C4    C17   S    
C15   S3    S    
C6    C12   S    
S2    O12   D    
C5    H10   S    
C4    H1    S    
C11   O3    A    
C2    C3    S    
S1    O11   S    
Cu1   O7    S    
S3    O16   D    
C14   H5    S    
C10   S2    S    
O20   H16   S    
S5    O23   S    
S5    O22   D    
Cu2   O4    S    
C16   S1    S    
C12   O5    A    
O14   H14   S    
C7    H12   S    
C11   O4    A    
S5    O21   D    
O17   H15   S    
C13   O7    A    
C16   C18   S    
O11   H9    S    
S3    O17   S    
S1    O9    D    
C5    C7    S    
C2    C13   S    
C14   C15   S    
C1    O1    A    
C3    H2    S    
C17   H18   S    
S4    O18   D    
Cu2   O6    S    
C13   O8    A    
Cu1   O5    S    
S2    O14   S    
C9    H3    S    
C3    C16   S    
H4    N1    S    
C9    N1    D    
S4    O19   D    
Cu2   O2    S    
