data_mof_unit_63456.cif
_audit_creation_date              2012-12-10T17:52:15-0500
_audit_creation_method            fapswitch 2.2
_symmetry_space_group_name_H-M    P1
_symmetry_Int_Tables_number       1
_space_group_crystal_system       triclinic
_cell_length_a                    27.788074
_cell_length_b                    27.764737
_cell_length_c                    22.823353
_cell_angle_alpha                 90.0
_cell_angle_beta                  127.551807
_cell_angle_gamma                 89.999988
_cell_volume                      13960.3564954

loop_
_atom_site_label
_atom_site_type_symbol
_atom_type_description
_atom_site_fract_x
_atom_site_fract_y
_atom_site_fract_z
_atom_type_partial_charge
C1    C     C_R   0.400119 0.749981 0.300251 0.506779
C2    C     C_3   0.251571 0.295780 0.021117 0.022409
C3    C     C_1   0.639324 0.250492 0.778813 -0.012722
C4    C     C_1   0.139324 0.249508 0.778813 -0.012721
C5    C     C_1   0.860969 0.750640 0.221185 -0.012132
C6    C     C_1   0.860676 0.249508 0.221187 -0.012722
C7    C     C_1   0.139031 0.750640 0.778815 -0.012132
C8    C     C_3   0.646433 0.809637 0.943855 -0.396150
C9    C     C_3   0.370072 0.221739 0.056458 -0.395644
C10   C     C_3   0.353540 0.809672 0.056151 -0.396146
C11   C     C_3   0.629920 0.221767 0.943541 -0.395645
C12   C     C_3   0.129928 0.278261 0.943542 -0.395644
C13   C     C_3   0.268802 0.704053 0.020923 0.022507
C14   C     C_3   0.853567 0.690363 0.056145 -0.396150
C15   C     C_3   0.870080 0.278233 0.056459 -0.395645
C16   C     C_3   0.146460 0.690328 0.943849 -0.396146
C17   C     C_3   0.203951 0.189068 0.056465 -0.399119
C18   C     C_3   0.812562 0.779682 0.942849 -0.397218
C19   C     C_3   0.796031 0.189045 0.943536 -0.399121
C20   C     C_3   0.187418 0.779639 0.057145 -0.397219
C21   C     C_3   0.687438 0.720318 0.057151 -0.397219
C22   C     C_3   0.296049 0.310932 0.943535 -0.399119
C23   C     C_3   0.312581 0.720361 0.942855 -0.397219
C24   C     C_3   0.748443 0.295778 0.978883 0.022409
C25   C     C_3   0.703969 0.310955 0.056464 -0.399121
C26   C     C_R   0.249235 0.348169 0.037373 0.034365
C27   C     C_R   0.213601 0.380469 0.978232 -0.097393
C28   C     C_R   0.210213 0.429046 0.991483 -0.115750
C29   C     C_R   0.242212 0.445873 0.063886 -0.109314
C30   C     C_R   0.277900 0.414191 0.123088 -0.113629
C31   C     C_R   0.281463 0.365572 0.110053 -0.093385
C32   C     C_R   0.713524 0.651480 0.963031 0.035372
C33   C     C_R   0.737823 0.619160 0.022295 -0.097404
C34   C     C_R   0.722004 0.570413 0.009233 -0.116033
C35   C     C_3   0.248429 0.204219 0.978883 0.022409
C36   C     C_R   0.681649 0.553434 0.936900 -0.109646
C37   C     C_R   0.657371 0.585135 0.877578 -0.114281
C38   C     C_R   0.673143 0.633925 0.890423 -0.092655
C39   C     C_R   0.750796 0.348163 0.962627 0.034365
C40   C     C_R   0.786437 0.380461 0.021768 -0.097393
C41   C     C_R   0.789841 0.429035 0.008516 -0.115753
C42   C     C_R   0.757851 0.445860 0.936113 -0.109318
C43   C     C_R   0.722156 0.414179 0.876912 -0.113629
C44   C     C_R   0.718576 0.365563 0.889947 -0.093387
C45   C     C_R   0.286516 0.651487 0.036968 0.035372
C46   C     C_3   0.768782 0.795950 0.020924 0.022508
C47   C     C_R   0.262240 0.619171 0.977704 -0.097404
C48   C     C_R   0.278074 0.570427 0.990765 -0.116033
C49   C     C_R   0.318418 0.553446 0.063098 -0.109649
C50   C     C_R   0.342673 0.585143 0.122421 -0.114285
C51   C     C_R   0.326887 0.633930 0.109576 -0.092658
C52   C     C_R   0.786476 0.848520 0.036969 0.035372
C53   C     C_R   0.762176 0.880840 0.977705 -0.097404
C54   C     C_R   0.777996 0.929586 0.990767 -0.116033
C55   C     C_R   0.818350 0.946566 0.063100 -0.109646
C56   C     C_R   0.842629 0.914865 0.122422 -0.114281
C57   C     C_3   0.751557 0.204222 0.021117 0.022409
C58   C     C_R   0.826857 0.866075 0.109577 -0.092655
C59   C     C_R   0.250765 0.151831 0.962627 0.034365
C60   C     C_R   0.286399 0.119531 0.021768 -0.097394
C61   C     C_R   0.289787 0.070954 0.008516 -0.115750
C62   C     C_R   0.257788 0.054127 0.936114 -0.109314
C63   C     C_R   0.222100 0.085809 0.876912 -0.113629
C64   C     C_R   0.218537 0.134428 0.889947 -0.093385
C65   C     C_R   0.213484 0.848513 0.963032 0.035372
C66   C     C_R   0.237760 0.880829 0.022296 -0.097404
C67   C     C_R   0.221926 0.929573 0.009235 -0.116033
C68   C     C_3   0.231197 0.795947 0.979077 0.022507
C69   C     C_R   0.181582 0.946554 0.936902 -0.109649
C70   C     C_R   0.157327 0.914857 0.877579 -0.114285
C71   C     C_R   0.173113 0.866070 0.890424 -0.092658
C72   C     C_R   0.749204 0.151837 0.037373 0.034365
C73   C     C_R   0.713563 0.119539 0.978232 -0.097393
C74   C     C_R   0.710159 0.070965 0.991484 -0.115753
C75   C     C_R   0.742149 0.054140 0.063887 -0.109318
C76   C     C_R   0.777844 0.085821 0.123088 -0.113629
C77   C     C_R   0.781424 0.134437 0.110053 -0.093387
C78   C     C_3   0.712362 0.747313 0.926178 0.028297
C79   C     C_3   0.286458 0.252582 0.073831 0.028134
C80   C     C_3   0.287637 0.747313 0.073822 0.028296
C81   C     C_R   0.599897 0.250015 0.699746 0.507417
C82   C     C_3   0.713543 0.252581 0.926169 0.028134
C83   C     C_3   0.213542 0.247418 0.926169 0.028134
C84   C     C_3   0.787638 0.752687 0.073822 0.028297
C85   C     C_3   0.786456 0.247419 0.073831 0.028134
C86   C     C_3   0.212363 0.752687 0.926178 0.028296
C87   C     C_1   0.672021 0.748392 0.845285 -0.070495
C88   C     C_1   0.327249 0.251437 0.154717 -0.071330
C89   C     C_1   0.327978 0.748392 0.154715 -0.070495
C90   C     C_1   0.672752 0.251437 0.845283 -0.071331
C91   C     C_1   0.172751 0.248563 0.845283 -0.071330
C92   C     C_R   0.599881 0.749981 0.699749 0.506779
C93   C     C_1   0.827979 0.751608 0.154715 -0.070495
C94   C     C_1   0.827248 0.248563 0.154717 -0.071331
C95   C     C_1   0.172022 0.751608 0.845285 -0.070495
C96   C     C_1   0.318878 0.749990 0.499962 0.009219
C97   C     C_1   0.681123 0.250009 0.500039 0.009174
C98   C     C_1   0.681122 0.749990 0.500038 0.009219
C99   C     C_1   0.318877 0.250009 0.499961 0.009174
C100  C     C_1   0.818877 0.249990 0.499961 0.009174
C101  C     C_1   0.181122 0.750010 0.500038 0.009218
C102  C     C_1   0.181123 0.249990 0.500039 0.009174
C103  C     C_R   0.400103 0.250015 0.300254 0.507416
C104  C     C_1   0.818878 0.750010 0.499962 0.009219
C105  C     C_1   0.275443 0.749994 0.499982 -0.035889
C106  C     C_1   0.724557 0.250006 0.500019 -0.035920
C107  C     C_1   0.724557 0.749994 0.500018 -0.035888
C108  C     C_1   0.275443 0.250006 0.499981 -0.035920
C109  C     C_1   0.775443 0.249994 0.499981 -0.035920
C110  C     C_1   0.224557 0.750006 0.500018 -0.035889
C111  C     C_1   0.224557 0.249994 0.500019 -0.035920
C112  C     C_1   0.775443 0.750006 0.499982 -0.035888
C113  C     C_1   0.500000 0.931097 0.500000 0.008378
C114  C     C_R   0.900103 0.249985 0.300254 0.507417
C115  C     C_1   0.500000 0.068902 0.500000 0.008371
C116  C     C_1   0.000000 0.431098 0.500000 0.008371
C117  C     C_1   0.000000 0.568902 0.500000 0.008378
C118  C     C_1   0.500000 0.974549 0.500000 -0.037375
C119  C     C_1   0.500000 0.025451 0.500000 -0.037380
C120  C     C_1   0.000000 0.474549 0.500000 -0.037380
C121  C     C_1   0.000000 0.525451 0.500000 -0.037375
C122  C     C_R   0.629372 0.750006 0.500024 0.505978
C123  C     C_R   0.370628 0.249993 0.499975 0.506118
C124  C     C_R   0.370628 0.750006 0.499976 0.505978
C125  C     C_R   0.099881 0.750019 0.699749 0.506779
C126  C     C_R   0.629372 0.249993 0.500024 0.506118
C127  C     C_R   0.129372 0.250007 0.500024 0.506118
C128  C     C_R   0.870628 0.749994 0.499976 0.505978
C129  C     C_R   0.870628 0.250007 0.499975 0.506118
C130  C     C_R   0.129372 0.749994 0.500024 0.505978
C131  C     C_R   0.500000 0.879359 0.500000 0.505408
C132  C     C_R   0.500000 0.120641 0.500000 0.505442
C133  C     C_R   0.000000 0.379359 0.500000 0.505442
C134  C     C_R   0.000000 0.620641 0.500000 0.505408
C135  C     C_R   0.500000 0.620649 0.500000 0.504487
C136  C     C_R   0.099897 0.249985 0.699746 0.507417
C137  C     C_R   0.500000 0.379351 0.500000 0.504945
C138  C     C_R   0.000000 0.120649 0.500000 0.504945
C139  C     C_R   0.000000 0.879351 0.500000 0.504487
C140  C     C_1   0.500000 0.568906 0.500000 0.006377
C141  C     C_1   0.500000 0.431093 0.500000 0.006166
C142  C     C_1   0.000000 0.068906 0.500000 0.006166
C143  C     C_1   0.000000 0.931093 0.500000 0.006377
C144  C     C_1   0.500000 0.525452 0.500000 -0.039580
C145  C     C_1   0.500000 0.474548 0.500000 -0.039711
C146  C     C_1   0.000000 0.025452 0.500000 -0.039711
C147  C     C_R   0.900119 0.750019 0.300251 0.506779
C148  C     C_1   0.000000 0.974547 0.500000 -0.039580
C149  C     C_3   0.229052 0.220945 0.026473 0.011129
C150  C     C_3   0.778932 0.764557 0.973232 0.010806
C151  C     C_3   0.770939 0.220935 0.973528 0.011128
C152  C     C_3   0.221059 0.764537 0.026766 0.010804
C153  C     C_3   0.721068 0.735443 0.026768 0.010806
C154  C     C_3   0.270948 0.279055 0.973527 0.011128
C155  C     C_3   0.278941 0.735463 0.973234 0.010804
C156  C     C_3   0.729061 0.279065 0.026472 0.011128
C157  C     C_3   0.702074 0.778460 0.973674 0.009937
C158  C     C_3   0.731218 0.704050 0.979076 0.022508
C159  C     C_3   0.305882 0.236103 0.026440 0.010471
C160  C     C_3   0.297913 0.778476 0.026329 0.009940
C161  C     C_3   0.694114 0.236116 0.973560 0.010472
C162  C     C_3   0.194118 0.263897 0.973560 0.010471
C163  C     C_3   0.797926 0.721540 0.026326 0.009937
C164  C     C_3   0.805886 0.263884 0.026440 0.010472
C165  C     C_3   0.202087 0.721524 0.973671 0.009940
C166  C     C_1   0.639031 0.749360 0.778815 -0.012132
C167  C     C_1   0.360676 0.250492 0.221187 -0.012721
C168  C     C_1   0.360969 0.749360 0.221185 -0.012132
H1    H     H_    0.652089 0.829141 0.990134 0.136829
H2    H     H_    0.629513 0.210222 0.989783 0.137952
H3    H     H_    0.599010 0.252986 0.915006 0.135450
H4    H     H_    0.613814 0.191722 0.903608 0.136024
H5    H     H_    0.129525 0.289813 0.989784 0.137952
H6    H     H_    0.113831 0.308304 0.903609 0.136023
H7    H     H_    0.099010 0.247046 0.915008 0.135451
H8    H     H_    0.847911 0.670859 0.009866 0.136829
H9    H     H_    0.894575 0.713485 0.084167 0.137550
H10   H     H_    0.859436 0.663949 0.096494 0.134132
H11   H     H_    0.870487 0.289778 0.010217 0.137952
H12   H     H_    0.640564 0.836051 0.903506 0.134132
H13   H     H_    0.886186 0.308278 0.096392 0.136024
H14   H     H_    0.900990 0.247014 0.084994 0.135450
H15   H     H_    0.152122 0.670816 0.990126 0.136827
H16   H     H_    0.105440 0.713436 0.915823 0.137553
H17   H     H_    0.140607 0.663920 0.903502 0.134136
H18   H     H_    0.163500 0.169330 0.010244 0.135185
H19   H     H_    0.238936 0.162847 0.096650 0.130342
H20   H     H_    0.190815 0.211710 0.084722 0.136791
H21   H     H_    0.859105 0.791672 0.988902 0.136707
H22   H     H_    0.815326 0.748708 0.914290 0.137790
H23   H     H_    0.605425 0.786515 0.915833 0.137550
H24   H     H_    0.788054 0.809610 0.902859 0.131439
H25   H     H_    0.836476 0.169303 0.989757 0.135185
H26   H     H_    0.761039 0.162829 0.903351 0.130342
H27   H     H_    0.809175 0.211680 0.915280 0.136790
H28   H     H_    0.140872 0.791619 0.011091 0.136707
H29   H     H_    0.184666 0.748655 0.085699 0.137789
H30   H     H_    0.211913 0.809567 0.097138 0.131434
H31   H     H_    0.640895 0.708328 0.011098 0.136707
H32   H     H_    0.711946 0.690390 0.097141 0.131439
H33   H     H_    0.684673 0.751292 0.085709 0.137790
H34   H     H_    0.370474 0.210187 0.010216 0.137952
H35   H     H_    0.336500 0.330670 0.989756 0.135185
H36   H     H_    0.309185 0.288290 0.915278 0.136791
H37   H     H_    0.261064 0.337153 0.903350 0.130342
H38   H     H_    0.359128 0.708381 0.988909 0.136707
H39   H     H_    0.288087 0.690433 0.902862 0.131434
H40   H     H_    0.315334 0.751345 0.914300 0.137789
H41   H     H_    0.663523 0.330697 0.010243 0.135185
H42   H     H_    0.690825 0.288320 0.084720 0.136790
H43   H     H_    0.738961 0.337171 0.096649 0.130342
H44   H     H_    0.188261 0.368032 0.921715 0.107108
H45   H     H_    0.400990 0.252954 0.084992 0.135451
H46   H     H_    0.182662 0.453626 0.945589 0.109193
H47   H     H_    0.239363 0.483441 0.074125 0.117911
H48   H     H_    0.302779 0.427297 0.179211 0.115986
H49   H     H_    0.309266 0.342134 0.156997 0.120887
H50   H     H_    0.768979 0.631711 0.078760 0.105718
H51   H     H_    0.740942 0.545820 0.055220 0.107508
H52   H     H_    0.669180 0.515736 0.926810 0.115973
H53   H     H_    0.626170 0.571910 0.821510 0.112262
H54   H     H_    0.653430 0.657374 0.843394 0.117067
H55   H     H_    0.811771 0.368026 0.078285 0.107109
H56   H     H_    0.386169 0.191695 0.096391 0.136023
H57   H     H_    0.817398 0.453614 0.054411 0.109190
H58   H     H_    0.760712 0.483425 0.925875 0.117908
H59   H     H_    0.697283 0.427283 0.820789 0.115989
H60   H     H_    0.690769 0.342126 0.843003 0.120891
H61   H     H_    0.231090 0.631723 0.921238 0.105717
H62   H     H_    0.259154 0.545837 0.944777 0.107509
H63   H     H_    0.330898 0.515750 0.073188 0.115966
H64   H     H_    0.373865 0.571916 0.178489 0.112260
H65   H     H_    0.346578 0.657376 0.156606 0.117068
H66   H     H_    0.731021 0.868289 0.921240 0.105718
H67   H     H_    0.347878 0.829184 0.009874 0.136827
H68   H     H_    0.759058 0.954180 0.944780 0.107508
H69   H     H_    0.830820 0.984264 0.073190 0.115973
H70   H     H_    0.873830 0.928090 0.178490 0.112262
H71   H     H_    0.846569 0.842626 0.156606 0.117067
H72   H     H_    0.311739 0.131968 0.078285 0.107108
H73   H     H_    0.317338 0.046374 0.054411 0.109193
H74   H     H_    0.260637 0.016559 0.925875 0.117911
H75   H     H_    0.197221 0.072703 0.820789 0.115986
H76   H     H_    0.190734 0.157866 0.843003 0.120887
H77   H     H_    0.268910 0.868277 0.078762 0.105717
H78   H     H_    0.359393 0.836080 0.096498 0.134136
H79   H     H_    0.240846 0.954163 0.055223 0.107509
H80   H     H_    0.169102 0.984250 0.926812 0.115966
H81   H     H_    0.126135 0.928084 0.821511 0.112260
H82   H     H_    0.153422 0.842624 0.843394 0.117068
H83   H     H_    0.688229 0.131974 0.921715 0.107109
H84   H     H_    0.682602 0.046386 0.945589 0.109190
H85   H     H_    0.739288 0.016575 0.074125 0.117908
H86   H     H_    0.802717 0.072717 0.179211 0.115989
H87   H     H_    0.809231 0.157874 0.156997 0.120891
H88   H     H_    0.394560 0.786564 0.084177 0.137553
O1    O     O_3   0.500000 0.750010 0.500000 -0.435527
O2    O     O_R   0.110060 0.777860 0.664410 -0.537804
O3    O     O_R   0.110060 0.222140 0.664410 -0.539316
O4    O     O_R   0.889940 0.777860 0.335590 -0.537802
O5    O     O_R   0.584730 0.777880 0.456910 -0.534718
O6    O     O_R   0.415270 0.222120 0.543090 -0.534721
O7    O     O_R   0.415270 0.777880 0.543090 -0.534718
O8    O     O_R   0.584730 0.222120 0.456910 -0.534720
O9    O     O_R   0.084730 0.277880 0.456910 -0.534721
O10   O     O_R   0.915270 0.722120 0.543090 -0.534717
O11   O     O_R   0.915270 0.277880 0.543090 -0.534720
O12   O     O_3   0.500000 0.249990 0.500000 -0.435173
O13   O     O_R   0.084730 0.722120 0.456910 -0.534718
O14   O     O_R   0.506320 0.856290 0.456920 -0.535192
O15   O     O_R   0.493680 0.143710 0.543080 -0.535244
O16   O     O_R   0.493680 0.856290 0.543080 -0.535193
O17   O     O_R   0.506320 0.143710 0.456920 -0.535243
O18   O     O_R   0.006320 0.356290 0.456920 -0.535244
O19   O     O_R   0.993680 0.643710 0.543080 -0.535192
O20   O     O_R   0.993680 0.356290 0.543080 -0.535243
O21   O     O_R   0.006320 0.643710 0.456920 -0.535193
O22   O     O_R   0.450590 0.643730 0.456890 -0.535737
O23   O     O_3   0.000000 0.250010 0.500000 -0.435173
O24   O     O_R   0.549410 0.356270 0.543110 -0.536084
O25   O     O_R   0.549410 0.643730 0.543110 -0.535738
O26   O     O_R   0.450590 0.356270 0.456890 -0.536083
O27   O     O_R   0.950590 0.143730 0.456890 -0.536084
O28   O     O_R   0.049410 0.856270 0.543110 -0.535738
O29   O     O_R   0.049410 0.143730 0.543110 -0.536084
O30   O     O_R   0.950590 0.856270 0.456890 -0.535738
O31   O     O_R   0.627830 0.722150 0.543110 -0.534686
O32   O     O_R   0.372170 0.277850 0.456890 -0.534703
O33   O     O_R   0.372170 0.722150 0.456890 -0.534686
O34   O     O_3   0.000000 0.749990 0.500000 -0.435527
O35   O     O_R   0.627830 0.277850 0.543110 -0.534704
O36   O     O_R   0.127830 0.222150 0.543110 -0.534703
O37   O     O_R   0.872170 0.777850 0.456890 -0.534685
O38   O     O_R   0.872170 0.222150 0.456890 -0.534704
O39   O     O_R   0.127830 0.777850 0.543110 -0.534686
O40   O     O_R   0.445670 0.777870 0.335600 -0.535858
O41   O     O_R   0.554330 0.222130 0.664400 -0.535598
O42   O     O_R   0.554330 0.777870 0.664400 -0.535858
O43   O     O_R   0.445670 0.222130 0.335600 -0.535598
O44   O     O_R   0.945670 0.277870 0.335600 -0.535598
O45   O     O_R   0.389940 0.722140 0.335590 -0.537804
O46   O     O_R   0.054330 0.722130 0.664400 -0.535857
O47   O     O_R   0.054330 0.277870 0.664400 -0.535598
O48   O     O_R   0.945670 0.722130 0.335600 -0.535859
O49   O     O_R   0.610060 0.277860 0.664410 -0.539318
O50   O     O_R   0.610060 0.722140 0.664410 -0.537803
O51   O     O_R   0.389940 0.277860 0.335590 -0.539316
O52   O     O_R   0.889940 0.222140 0.335590 -0.539318
Zn1   Zn    Zn3+2 0.570600 0.710200 0.561580 0.946807
Zn2   Zn    Zn3+2 0.490980 0.210180 0.561570 0.948375
Zn3   Zn    Zn3+2 0.490980 0.789820 0.561570 0.948135
Zn4   Zn    Zn3+2 0.509020 0.210180 0.438430 0.948375
Zn5   Zn    Zn3+2 0.009020 0.289820 0.438430 0.948375
Zn6   Zn    Zn3+2 0.990980 0.710180 0.561570 0.948136
Zn7   Zn    Zn3+2 0.990980 0.289820 0.561570 0.948375
Zn8   Zn    Zn3+2 0.009020 0.710180 0.438430 0.948135
Zn9   Zn    Zn3+2 0.429400 0.289800 0.438420 0.946138
Zn10  Zn    Zn3+2 0.429400 0.710200 0.438420 0.946806
Zn11  Zn    Zn3+2 0.570600 0.289800 0.561580 0.946136
Zn12  Zn    Zn3+2 0.070600 0.210200 0.561580 0.946138
Zn13  Zn    Zn3+2 0.929400 0.789800 0.438420 0.946807
Zn14  Zn    Zn3+2 0.929400 0.210200 0.438420 0.946136
Zn15  Zn    Zn3+2 0.070600 0.789800 0.561580 0.946806
Zn16  Zn    Zn3+2 0.509020 0.789820 0.438430 0.948136

loop_
_geom_bond_atom_site_label_1
_geom_bond_atom_site_label_2
_ccdc_geom_bond_type
C105  C110  S    
C137  O24   A    
C11   H3    S    
O49   Zn11  S    
C23   C155  S    
C107  C112  S    
C142  C146  T    
C55   C56   A    
C152  C165  S    
C83   C154  S    
C150  C163  S    
C18   H24   S    
C10   H67   S    
C22   H35   S    
C56   H70   S    
O26   Zn9   S    
C21   H31   S    
O32   Zn9   S    
O4    Zn13  S    
C73   C74   A    
C14   C163  S    
C25   H43   S    
O38   Zn14  S    
C6    C94   T    
C138  O27   A    
C60   H72   S    
C141  C145  T    
C79   C149  S    
C101  C130  S    
C59   C60   A    
C133  O20   A    
C102  C111  T    
C24   C164  S    
C86   C165  S    
O11   Zn7   S    
C8    C157  S    
O48   Zn8   S    
C45   C47   A    
C61   H73   S    
C21   H33   S    
O12   Zn11  S    
C34   H51   S    
C97   C126  S    
C116  C133  S    
C9    H45   S    
C101  C110  T    
O23   Zn7   S    
C75   C76   A    
C37   C38   A    
O22   Zn10  S    
C8    H12   S    
O18   Zn5   S    
C104  C128  S    
C17   H18   S    
C65   C68   S    
C2    C26   S    
O31   Zn1   S    
C70   H81   S    
C20   H30   S    
O12   Zn4   S    
C52   C58   A    
C46   C84   S    
C137  O26   A    
C10   C160  S    
O52   Zn14  S    
C8    H1    S    
C12   H6    S    
C18   H22   S    
C127  O9    A    
C1    O40   A    
C23   H39   S    
C134  O21   A    
O39   Zn15  S    
C144  C145  S    
O34   Zn15  S    
C16   H16   S    
C83   C91   S    
C108  C111  S    
C51   H65   S    
C37   H53   S    
C13   C45   S    
C57   C85   S    
C84   C93   S    
C69   C70   A    
O41   Zn2   S    
C123  O32   A    
C57   C161  S    
C85   C164  S    
C21   C153  S    
C149  C162  S    
C18   C150  S    
C53   H66   S    
C24   C156  S    
C78   C87   S    
C103  C167  S    
C15   H11   S    
C135  O22   A    
O51   Zn9   S    
C54   H68   S    
C2    C162  S    
C136  O47   A    
C81   O49   A    
O13   Zn8   S    
C53   C54   A    
C99   C108  T    
C3    C90   T    
O23   Zn14  S    
C36   C37   A    
C29   H47   S    
C17   H20   S    
C15   H14   S    
C147  O4    A    
C153  C158  S    
C6    C114  S    
C69   H80   S    
C67   H79   S    
C78   C158  S    
C131  O16   A    
O33   Zn10  S    
C3    C81   S    
C19   C151  S    
C50   H64   S    
C76   H86   S    
C82   C151  S    
C4    C91   T    
C66   C67   A    
O29   Zn12  S    
C2    C154  S    
C25   C156  S    
C134  O19   A    
O6    Zn2   S    
O34   Zn13  S    
C115  C132  S    
C42   H58   S    
C143  C148  T    
C40   H55   S    
O15   Zn2   S    
O28   Zn15  S    
O2    Zn15  S    
C86   C95   S    
C39   C40   A    
C104  C112  T    
C125  O2    A    
C116  C120  T    
C139  O30   A    
C122  O31   A    
C29   C30   A    
C16   C165  S    
O20   Zn7   S    
C14   H10   S    
C84   C163  S    
C158  C163  S    
C10   H78   S    
O23   Zn12  S    
C83   C162  S    
C156  C161  S    
C115  C119  T    
C58   H71   S    
C120  C121  S    
C98   C122  S    
C54   C55   A    
C9    H34   S    
C75   H85   S    
C19   H25   S    
C39   C44   A    
C117  C121  T    
C22   H36   S    
O16   Zn3   S    
C154  C159  S    
C68   C160  S    
O1    Zn16  S    
C9    H56   S    
C131  O14   A    
C92   O50   A    
C132  O17   A    
C57   C151  S    
C27   H44   S    
C56   C58   A    
C34   C36   A    
C25   H42   S    
O47   Zn7   S    
C63   C64   A    
O43   Zn4   S    
C100  C109  T    
C19   H26   S    
C49   C50   A    
C128  O10   A    
C73   H83   S    
C106  C109  S    
O34   Zn8   S    
C96   C105  T    
C5    C147  S    
C41   C42   A    
C77   H87   S    
O8    Zn4   S    
C52   C53   A    
C103  O43   A    
C138  O29   A    
C26   C27   A    
C139  O28   A    
C10   H88   S    
C28   C29   A    
O25   Zn1   S    
C16   H17   S    
C79   C159  S    
C30   C31   A    
C80   C160  S    
C123  O6    A    
C11   C161  S    
C24   C39   S    
C35   C59   S    
C80   C89   S    
C14   H8    S    
C2    C79   S    
O37   Zn13  S    
C70   C71   A    
O7    Zn3   S    
C4    C136  S    
C13   C80   S    
C11   H4    S    
O46   Zn6   S    
C114  O44   A    
C128  O37   A    
C117  C134  S    
C79   C88   S    
C146  C148  S    
O19   Zn6   S    
C135  C140  S    
C41   H57   S    
O50   Zn1   S    
C15   C164  S    
C124  O33   A    
C138  C142  S    
C130  O13   A    
C35   C83   S    
C100  C129  S    
C124  O7    A    
O3    Zn12  S    
C130  O39   A    
C98   C107  T    
C20   C152  S    
C92   O42   A    
C60   C61   A    
C85   C156  S    
C86   C155  S    
C89   C168  T    
C62   C63   A    
C68   C152  S    
O42   Zn3   S    
C84   C153  S    
C13   C165  S    
O44   Zn5   S    
C88   C167  T    
C136  O3    A    
C50   C51   A    
C126  O8    A    
C7    C125  S    
C44   H60   S    
C127  O36   A    
C97   C106  T    
C48   C49   A    
O24   Zn11  S    
C42   C43   A    
O23   Zn5   S    
C137  C141  S    
C147  O48   A    
C140  C144  T    
C74   H84   S    
C122  O5    A    
C64   H76   S    
C82   C90   S    
C32   C33   A    
C38   H54   S    
O27   Zn14  S    
C129  O38   A    
C17   H19   S    
C72   C73   A    
C15   H13   S    
C57   C72   S    
C153  C157  S    
C20   H29   S    
O30   Zn13  S    
C11   H2    S    
O34   Zn6   S    
C45   C51   A    
O35   Zn11  S    
C35   C149  S    
O36   Zn12  S    
C12   H5    S    
C31   H49   S    
C66   H77   S    
C18   H21   S    
C19   H27   S    
C23   H40   S    
C68   C86   S    
C135  O25   A    
C43   C44   A    
O1    Zn10  S    
C36   H52   S    
C132  O15   A    
C16   H15   S    
C33   H50   S    
C59   C64   A    
O10   Zn6   S    
C87   C166  T    
C9    C159  S    
C8    H23   S    
C46   C52   S    
O45   Zn10  S    
O1    Zn1   S    
C118  C119  S    
C13   C155  S    
C24   C82   S    
C32   C38   A    
C71   H82   S    
O9    Zn5   S    
C129  O11   A    
C48   H62   S    
C26   C31   A    
C1    O45   A    
C61   C62   A    
C139  C143  S    
O5    Zn16  S    
C43   H59   S    
C62   H74   S    
C32   C158  S    
C28   H46   S    
C74   C75   A    
C96   C124  S    
C76   C77   A    
O21   Zn8   S    
C102  C127  S    
C65   C71   A    
C46   C157  S    
C12   C162  S    
C55   H69   S    
C126  O35   A    
C22   H37   S    
C67   C69   A    
C49   H63   S    
C72   C77   A    
C81   O41   A    
C85   C94   S    
C78   C157  S    
C47   C48   A    
C63   H75   S    
C33   C34   A    
C25   H41   S    
O17   Zn4   S    
C12   H7    S    
C125  O46   A    
C40   C41   A    
C46   C150  S    
C151  C164  S    
C103  O51   A    
C23   H38   S    
C21   H32   S    
C78   C150  S    
C99   C123  S    
C22   C154  S    
C80   C152  S    
C133  O18   A    
C113  C131  S    
C155  C160  S    
C17   C149  S    
C5    C93   T    
C47   H61   S    
C82   C161  S    
C7    C95   T    
C30   H48   S    
O1    Zn3   S    
O12   Zn9   S    
C114  O52   A    
C35   C159  S    
C14   H9    S    
C113  C118  T    
C92   C166  S    
C65   C66   A    
O40   Zn16  S    
C27   C28   A    
O14   Zn16  S    
C20   H28   S    
O12   Zn2   S    
C1    C168  S    
