data_mof_unit_20477.cif
_audit_creation_date              2012-12-11T14:27:04-0500
_audit_creation_method            fapswitch 2.2
_symmetry_space_group_name_H-M    P1
_symmetry_Int_Tables_number       1
_space_group_crystal_system       triclinic
_cell_length_a                    15.125141
_cell_length_b                    14.966125
_cell_length_c                    14.979241
_cell_angle_alpha                 110.339554
_cell_angle_beta                  109.303334
_cell_angle_gamma                 109.299256
_cell_volume                      2592.84061436

loop_
_atom_site_label
_atom_site_type_symbol
_atom_type_description
_atom_site_fract_x
_atom_site_fract_y
_atom_site_fract_z
_atom_type_partial_charge
C1    C     C_R   0.002504 0.803488 0.097084 -0.012265
C2    C     C_R   0.221536 0.755288 0.314455 -0.109737
C3    C     C_R   0.900518 0.414767 0.206965 -0.070801
C4    C     C_R   0.796268 0.190703 0.708741 0.021307
C5    C     C_R   0.290046 0.591559 0.984384 -0.227857
C6    C     C_R   0.927842 0.509592 0.297899 0.041498
C7    C     C_R   0.287149 0.502694 0.910166 -0.022738
C8    C     C_R   0.323910 0.786375 0.325543 0.127387
C9    C     C_R   0.024154 0.195650 0.022190 -0.073860
C10   C     C_3   0.486046 0.406956 0.846444 0.393566
C11   C     C_3   0.370214 0.394300 0.825770 0.382148
C12   C     C_R   0.703923 0.129491 0.706603 0.031191
C13   C     C_3   0.527798 0.471600 0.048049 -0.513763
C14   C     C_3   0.592089 0.615403 0.999296 0.363253
C15   C     C_3   0.573501 0.497117 0.975603 -0.001114
C16   C     C_R   0.029606 0.592045 0.778768 -0.169471
C17   C     C_3   0.389985 0.499954 0.926450 0.026015
C18   C     C_3   0.433041 0.492218 0.032334 -0.394519
C19   C     C_3   0.481912 0.607160 0.944941 -0.139364
C20   C     C_2   0.437224 0.867546 0.523984 -0.091013
C21   C     C_2   0.427926 0.849955 0.426456 -0.181902
C22   C     C_2   0.535138 0.961074 0.627342 -0.096650
C23   C     C_R   0.959411 0.499867 0.674923 0.033531
C24   C     C_2   0.629631 0.011203 0.631907 -0.143387
C25   C     C_2   0.898218 0.440696 0.482532 0.513388
C26   C     C_2   0.899338 0.496614 0.574790 -0.203533
C27   C     C_2   0.834560 0.436572 0.382468 -0.099919
C28   C     C_R   0.692304 0.407618 0.983618 0.413921
C29   C     C_2   0.884643 0.522440 0.373415 0.417472
C30   C     C_2   0.146742 0.129165 0.076257 -0.068312
C31   C     C_2   0.048142 0.118384 0.046079 -0.098313
C32   C     C_2   0.163567 0.041622 0.085566 -0.096384
C33   C     C_2   0.108541 0.985243 0.119666 -0.207598
C34   C     C_R   0.679228 0.498853 0.017322 -0.104811
C35   C     C_R   0.942325 0.408528 0.685226 0.566939
C36   C     C_R   0.781519 0.591408 0.073923 0.495476
C37   C     C_R   0.702861 0.197866 0.794532 -0.089241
C38   C     C_R   0.094435 0.803805 0.007924 -0.100411
C39   C     C_R   0.067137 0.867750 0.072393 0.103147
C40   C     C_3   0.929224 0.186636 0.180633 -0.793312
C41   C     C_3   0.440831 0.216291 0.705593 -0.711188
C42   C     C_3   0.256920 0.288321 0.615086 -0.563959
C43   C     C_3   0.550312 0.787760 0.117037 -0.844507
C44   C     C_3   0.647935 0.324689 0.238802 -0.761377
C45   C     C_R   0.994798 0.596199 0.297098 -0.060387
C46   C     C_R   0.195411 0.411765 0.883184 0.588384
C47   C     C_R   0.312726 0.755429 0.222400 -0.137106
C48   C     C_R   0.957137 0.231813 0.045734 0.121268
C49   C     C_R   0.050454 0.233237 0.957156 0.423958
Cl1   Cl    Cl    0.103161 0.307048 0.743799 -0.512627
Cl2   Cl    Cl    0.832447 0.714588 0.195109 -0.669560
Cl3   Cl    Cl    0.099429 0.178251 0.874672 -0.530966
Cl4   Cl    Cl    0.528451 0.454504 0.763697 -0.636879
Cl5   Cl    Cl    0.291952 0.269182 0.822247 -0.591682
Cl6   Cl    Cl    0.679664 0.689498 0.961198 -0.568238
Cl7   Cl    Cl    0.990359 0.392418 0.481216 -0.600761
Cl8   Cl    Cl    0.945124 0.657984 0.485069 -0.615474
Cl9   Cl    Cl    0.636555 0.294950 0.999795 -0.791501
Cl10  Cl    Cl    0.860268 0.271809 0.573884 -0.610592
H1    H     H_    0.981982 0.833958 0.159348 0.167909
H2    H     H_    0.465781 0.592972 0.862378 0.167513
H3    H     H_    0.591242 0.524748 0.137036 0.221379
H4    H     H_    0.459256 0.569023 0.106104 0.185435
H5    H     H_    0.366289 0.826580 0.528730 0.140378
H6    H     H_    0.057023 0.676980 0.800745 0.161788
H7    H     H_    0.496841 0.891819 0.419605 0.143563
H8    H     H_    0.521992 0.999837 0.693889 0.133453
H9    H     H_    0.645943 0.969788 0.569226 0.152066
H10   H     H_    0.852015 0.537670 0.575605 0.167664
H11   H     H_    0.210434 0.194943 0.081102 0.166137
H12   H     H_    0.376139 0.767701 0.201720 0.114461
H13   H     H_    0.982636 0.051097 0.037515 0.166739
H14   H     H_    0.203419 0.011637 0.044471 0.149149
H15   H     H_    0.075026 0.020580 0.166526 0.149255
H16   H     H_    0.653199 0.172580 0.828329 0.162194
H17   H     H_    0.156664 0.832755 0.988027 0.099169
H18   H     H_    0.017879 0.681513 0.344846 0.182779
H19   H     H_    0.811738 0.182264 0.049473 0.186126
H20   H     H_    0.904848 0.230790 0.235437 0.268253
H21   H     H_    0.019273 0.229344 0.224112 0.252695
H22   H     H_    0.897247 0.101172 0.164856 0.256897
H23   H     H_    0.201550 0.769043 0.379056 0.112270
H24   H     H_    0.464227 0.266267 0.861915 0.256846
H25   H     H_    0.466607 0.155459 0.708282 0.223626
H26   H     H_    0.473013 0.249615 0.660788 0.274424
H27   H     H_    0.351189 0.170826 0.660003 0.252201
H28   H     H_    0.327582 0.457001 0.717746 0.181184
H29   H     H_    0.318224 0.284575 0.591475 0.222193
H30   H     H_    0.197022 0.292299 0.551637 0.244065
H31   H     H_    0.211761 0.212063 0.613536 0.283133
H32   H     H_    0.483795 0.752234 0.954867 0.208691
H33   H     H_    0.637115 0.833956 0.142430 0.290330
H34   H     H_    0.834921 0.333887 0.172626 0.161303
H35   H     H_    0.540351 0.744360 0.162565 0.239833
H36   H     H_    0.523340 0.848569 0.139801 0.234727
H37   H     H_    0.745568 0.265681 0.297993 0.215660
H38   H     H_    0.616821 0.334318 0.297163 0.234982
H39   H     H_    0.588911 0.242918 0.162450 0.274272
H40   H     H_    0.655259 0.389823 0.217361 0.271890
H41   H     H_    0.328391 0.675021 0.002658 0.172687
H42   H     H_    0.831808 0.154494 0.666192 0.190430
H43   H     H_    0.501006 0.385232 0.028133 0.254798
H44   H     H_    0.369159 0.425831 0.029784 0.224300
H45   H     H_    0.631589 0.667616 0.089528 0.163011
N1    N     N_R   0.993980 0.704500 0.053430 -0.047387
N2    N     N_R   0.053690 0.556380 0.849240 -0.081310
N3    N     N_R   0.790390 0.443640 0.997160 -0.096806
N4    N     N_R   0.998260 0.443670 0.792970 -0.092811
N5    N     N_R   0.845830 0.556350 0.053430 -0.106352
N6    N     N_R   0.792820 0.295510 0.849240 -0.051063
N7    N     N_R   0.051260 0.704510 0.997160 -0.052451
N8    N     N_R   0.001740 0.556330 0.207030 -0.065983
N9    N     N_2   0.884206 0.183111 0.076949 -0.116996
N10   N     N_2   0.482849 0.300814 0.817677 -0.093272
N11   N     N_2   0.307038 0.386198 0.721414 -0.089033
N12   N     N_R   0.154170 0.443650 0.946570 -0.111128
N13   N     N_2   0.485653 0.712073 0.998681 -0.108594
N14   N     N_2   0.751736 0.331652 0.287500 -0.123686
N15   N     N_R   0.207180 0.704490 0.150760 -0.046928
N16   N     N_R   0.948740 0.295490 0.002840 -0.103721
N17   N     N_R   0.006020 0.295500 0.946570 -0.108381
N18   N     N_R   0.149890 0.704480 0.207030 -0.052669
N19   N     N_R   0.946310 0.443620 0.150760 -0.052186
N20   N     N_R   0.209610 0.556360 0.002840 -0.080608
N21   N     N_R   0.850110 0.295520 0.792970 -0.059826
Ni1   Ni    Ni4+2 0.997880 0.629240 0.129060 0.260290
Ni2   Ni    Ni4+2 0.002120 0.370760 0.870940 0.314918
Ni3   Ni    Ni4+2 0.129260 0.629260 0.000000 0.199740
Ni4   Ni    Ni4+2 0.870740 0.370740 0.000000 0.237622

loop_
_geom_bond_atom_site_label_1
_geom_bond_atom_site_label_2
_ccdc_geom_bond_type
C20   H5    S    
C6    C45   A    
C21   H7    S    
C27   C29   D    
C25   Cl7   S    
C41   N10   S    
N3    Ni4   S    
C3    C6    A    
C45   N8    A    
C48   N16   A    
C38   H17   S    
C41   H27   S    
C5    N20   A    
C33   C39   S    
N1    Ni1   S    
H37   N14   S    
N17   Ni2   S    
C10   C15   S    
C30   C31   D    
C44   H40   S    
C18   H4    S    
N15   N18   A    
C28   N3    A    
N2    Ni3   S    
C43   H35   S    
N6    Ni4   S    
C35   Cl10  S    
C23   C26   S    
C12   C37   A    
C10   Cl4   S    
C35   N4    A    
C44   H39   S    
C13   H3    S    
C7    C17   S    
N12   Ni2   S    
C43   H36   S    
C40   H21   S    
C4    C12   A    
C11   N11   S    
C15   C34   S    
N8    Ni1   S    
C10   N10   S    
C16   N2    A    
N20   Ni3   S    
N15   Ni3   S    
C47   N15   A    
C14   Cl6   S    
C37   H16   S    
C28   C34   A    
N19   Ni4   S    
N3    N5    A    
H24   N10   S    
C14   C19   S    
C30   H11   S    
C3    N19   A    
C8    C21   S    
C2    N18   A    
N16   Ni4   S    
C7    C46   A    
C9    C49   A    
N8    N19   A    
C1    H1    S    
C32   H14   S    
C5    C7    A    
C24   H9    S    
C25   C26   D    
C41   H25   S    
C42   N11   S    
C42   H31   S    
N18   Ni1   S    
C13   C18   S    
C44   H38   S    
N5    Ni1   S    
C1    C39   A    
C14   H45   S    
C40   N9    S    
C5    H41   S    
C44   N14   S    
C49   Cl3   S    
C49   N17   A    
C4    H42   S    
H32   N13   S    
C17   C18   S    
C40   H20   S    
C3    H34   S    
C11   Cl5   S    
C47   H12   S    
C37   N6    A    
C36   Cl2   S    
C43   N13   S    
C4    N21   A    
C31   H13   S    
C29   Cl8   S    
C16   C23   A    
C23   C35   A    
C13   C15   S    
C22   C24   D    
C2    H23   S    
H19   N9    S    
C42   H29   S    
N7    Ni3   S    
N16   N17   A    
C27   N14   S    
C12   C24   S    
C11   C17   S    
N12   N20   A    
H28   N11   S    
C40   H22   S    
C2    C8    A    
C20   C22   S    
C28   Cl9   S    
C25   C27   S    
C41   H26   S    
C46   Cl1   S    
C43   H33   S    
C46   N12   A    
C42   H30   S    
C32   C33   D    
C13   H43   S    
C8    C47   A    
C30   C32   S    
C38   C39   A    
N2    N4    A    
C19   H2    S    
C17   C19   S    
C34   C36   A    
C18   H44   S    
N4    Ni2   S    
N1    N7    A    
C22   H8    S    
C10   C11   S    
C9    C31   S    
N6    N21   A    
C33   H15   S    
C6    C29   S    
C20   C21   D    
C19   N13   S    
C9    C48   A    
C36   N5    A    
N21   Ni2   S    
C26   H10   S    
C14   C15   S    
C45   H18   S    
C16   H6    S    
C38   N7    A    
C1    N1    A    
C48   N9    S    
