data_mof_unit_11738.cif
_audit_creation_date              2012-10-26T18:53:21-0400
_audit_creation_method            fapswitch 2.2
_symmetry_space_group_name_H-M    P1
_symmetry_Int_Tables_number       1
_space_group_crystal_system       triclinic
_cell_length_a                    14.718111
_cell_length_b                    14.698004
_cell_length_c                    15.888633
_cell_angle_alpha                 76.05943
_cell_angle_beta                  102.465516
_cell_angle_gamma                 114.775185
_cell_volume                      3003.00687984

loop_
_atom_site_label
_atom_site_type_symbol
_atom_type_description
_atom_site_fract_x
_atom_site_fract_y
_atom_site_fract_z
_atom_type_partial_charge
C1    C     C_R   0.880365 0.311641 0.513388 0.563738
C2    C     C_R   0.188105 0.796919 0.487165 -0.032237
C3    C     C_R   0.781253 0.023110 0.532203 0.143875
C4    C     C_R   0.000026 0.500510 0.659410 0.555595
C5    C     C_R   0.849320 0.125405 0.527448 0.151860
C6    C     C_R   0.709573 0.175683 0.518806 -0.146987
C7    C     C_R   0.640404 0.074122 0.528032 0.005363
C8    C     C_R   0.676508 0.997624 0.529944 0.023087
C9    C     C_R   0.534730 0.047887 0.526944 0.049758
C10   C     C_R   0.466436 0.946999 0.519392 0.005030
C11   C     C_R   0.504217 0.874764 0.515393 -0.126008
C12   C     C_3   0.086831 0.462214 0.074992 -0.019957
C13   C     C_R   0.606758 0.898243 0.524471 -0.131930
C14   C     C_R   0.493738 0.118576 0.531763 0.109778
C15   C     C_R   0.391501 0.099804 0.499593 -0.000275
C16   C     C_R   0.119667 0.688180 0.488272 0.531732
C17   C     C_R   0.325032 0.001159 0.485658 -0.013352
C18   C     C_R   0.360956 0.922107 0.509858 -0.007504
C19   C     C_R   0.222352 0.977980 0.453939 -0.134392
C20   C     C_R   0.155336 0.877674 0.449743 -0.034832
C21   C     C_R   0.290054 0.821168 0.525020 -0.039278
C22   C     C_R   0.713601 0.663255 0.347452 -0.136455
C23   C     C_3   0.004619 0.503843 0.082978 -0.006739
C24   C     C_R   0.792820 0.630486 0.370841 0.053845
C25   C     C_R   0.720187 0.520167 0.495895 0.115367
C26   C     C_R   0.637920 0.553918 0.477400 -0.041783
C27   C     C_R   0.635310 0.626074 0.399880 0.034762
C28   C     C_R   0.000101 0.499617 0.340563 0.536134
C29   C     C_R   0.556437 0.516306 0.529432 0.008378
C30   C     C_R   0.466561 0.534966 0.494991 0.007569
C31   C     C_R   0.468667 0.608345 0.419133 -0.099370
C32   C     C_R   0.553848 0.658623 0.374287 0.150851
C33   C     C_R   0.562363 0.464167 0.616185 -0.138169
C34   C     C_3   0.027868 0.616134 0.028820 0.133385
C35   C     C_R   0.477369 0.409825 0.658231 -0.123972
C36   C     C_R   0.385028 0.414788 0.619455 0.040878
C37   C     C_R   0.378875 0.482079 0.540112 0.015919
C38   C     C_R   0.299882 0.356307 0.661974 -0.128522
C39   C     C_R   0.209439 0.369597 0.629796 0.293916
C40   C     C_3   0.104259 0.483965 0.973902 0.249934
C41   C     C_R   0.284933 0.492802 0.510605 0.033195
C42   C     C_3   0.899644 0.426492 0.945790 0.106795
C43   C     C_3   0.898025 0.430593 0.043955 -0.101138
C44   C     C_1   0.001027 0.499937 0.251352 -0.013890
C45   C     C_3   0.021262 0.612268 0.929495 -0.212047
C46   C     C_3   0.007480 0.504466 0.916928 0.055372
C47   C     C_1   0.052773 0.351842 0.111663 0.164946
C48   C     C_3   0.227861 0.609633 0.868973 -0.275598
C49   C     C_1   0.181777 0.506193 0.133512 0.194769
C50   C     C_3   0.975562 0.719449 0.103523 -0.274475
C51   C     C_1   0.317735 0.748665 0.594330 0.207160
C52   C     C_1   0.052874 0.861657 0.410619 0.219420
C53   C     C_1   0.353753 0.178859 0.490502 0.174639
C54   C     C_3   0.837054 0.891892 0.619070 -0.310035
C55   C     C_3   0.979857 0.174674 0.436555 -0.252477
C56   C     C_1   0.002182 0.501469 0.175877 -0.021646
C57   C     C_3   0.206879 0.379120 0.985222 -0.298851
C58   C     C_3   0.545440 0.163977 0.674988 -0.278040
C59   C     C_3   0.473993 0.771009 0.271023 -0.286896
C60   C     C_3   0.133558 0.316929 0.764185 -0.289614
C61   C     C_1   0.725604 0.439247 0.566121 0.249205
C62   C     C_3   0.718330 0.376321 0.870068 -0.282711
C63   C     C_1   0.881880 0.320694 0.939839 0.203787
C64   C     C_1   0.813413 0.453037 0.057591 0.219567
C65   C     C_1   0.131693 0.686947 0.057305 0.241431
C66   C     C_1   0.004208 0.504601 0.823896 -0.003593
C67   C     C_1   0.001269 0.502889 0.748382 -0.017705
C68   C     C_R   0.813036 0.202313 0.520600 -0.019429
Cu1   Cu    Cu3+1 0.081750 0.475690 0.522550 0.994088
Cu2   Cu    Cu3+1 0.918250 0.524310 0.477450 0.976524
H1    H     H_    0.629806 0.837976 0.522703 0.123677
H2    H     H_    0.632835 0.468076 0.655262 0.123978
H3    H     H_    0.304351 0.302092 0.720923 0.089748
H4    H     H_    0.881167 0.353284 0.083664 0.111242
H5    H     H_    0.088340 0.672770 0.901399 0.133738
H6    H     H_    0.961464 0.635468 0.887752 0.093260
H7    H     H_    0.260215 0.578168 0.001520 0.268459
H8    H     H_    0.308596 0.662271 0.872192 0.142967
H9    H     H_    0.184728 0.652885 0.825405 0.143107
H10   H     H_    0.218782 0.545124 0.839046 0.171695
H11   H     H_    0.903056 0.665619 0.986219 0.249031
H12   H     H_    0.683136 0.236392 0.505271 0.190176
H13   H     H_    0.903555 0.716482 0.117503 0.152919
H14   H     H_    0.021995 0.799280 0.077281 0.149339
H15   H     H_    0.015946 0.693923 0.165821 0.160112
H16   H     H_    0.783883 0.903441 0.485539 0.253206
H17   H     H_    0.764728 0.844635 0.646071 0.145124
H18   H     H_    0.887966 0.944813 0.664432 0.150919
H19   H     H_    0.873605 0.841196 0.614149 0.153604
H20   H     H_    0.982753 0.101360 0.565345 0.260394
H21   H     H_    0.942853 0.105970 0.404880 0.160559
H22   H     H_    0.062939 0.201009 0.439831 0.161756
H23   H     H_    0.454809 0.799615 0.501838 0.123647
H24   H     H_    0.956507 0.236279 0.396215 0.159581
H25   H     H_    0.053153 0.331685 0.948747 0.271181
H26   H     H_    0.199852 0.308310 0.966169 0.133435
H27   H     H_    0.220264 0.369654 0.057581 0.172541
H28   H     H_    0.273494 0.441518 0.958057 0.153679
H29   H     H_    0.535105 0.263219 0.559346 0.270146
H30   H     H_    0.589695 0.228888 0.710365 0.154198
H31   H     H_    0.578093 0.105178 0.699519 0.169134
H32   H     H_    0.466190 0.132288 0.689189 0.138107
H33   H     H_    0.627489 0.803450 0.306147 0.246231
H34   H     H_    0.193950 0.038049 0.430919 0.135847
H35   H     H_    0.491383 0.832103 0.212961 0.159089
H36   H     H_    0.458265 0.800610 0.322037 0.133230
H37   H     H_    0.406594 0.705482 0.250263 0.198498
H38   H     H_    0.089962 0.236613 0.661945 0.243081
H39   H     H_    0.177708 0.272694 0.804864 0.105330
H40   H     H_    0.057778 0.284800 0.785923 0.165119
H41   H     H_    0.171658 0.397270 0.774243 0.174456
H42   H     H_    0.815729 0.520820 0.891093 0.252136
H43   H     H_    0.666181 0.412747 0.831523 0.125633
H44   H     H_    0.688820 0.332887 0.932626 0.157317
H45   H     H_    0.273963 0.544581 0.452541 0.123003
H46   H     H_    0.719706 0.323759 0.831010 0.175256
H47   H     H_    0.484707 0.365790 0.722879 0.097892
H48   H     H_    0.713826 0.716518 0.287104 0.128190
H49   H     H_    0.852825 0.660755 0.330361 0.148949
H50   H     H_    0.405705 0.630587 0.396350 0.098789
N1    N     N_R   0.795410 0.560790 0.443550 -0.247163
N2    N     N_2   0.819369 0.948144 0.533329 -0.524118
N3    N     N_2   0.953392 0.151102 0.524077 -0.494010
N4    N     N_2   0.115303 0.398082 0.950525 -0.516695
N5    N     N_2   0.549184 0.197888 0.581914 -0.519678
N6    N     N_2   0.559504 0.741850 0.303267 -0.522695
N7    N     N_2   0.122425 0.310692 0.672716 -0.448581
N8    N     N_1   0.731925 0.375310 0.623202 -0.314816
N9    N     N_2   0.818929 0.453693 0.886247 -0.513305
N10   N     N_1   0.865777 0.237791 0.935069 -0.320776
N11   N     N_1   0.747275 0.470127 0.068539 -0.298537
N12   N     N_R   0.204590 0.439170 0.556520 -0.209638
N13   N     N_1   0.212223 0.742500 0.079202 -0.310171
N14   N     N_1   0.026458 0.265975 0.140466 -0.297012
N15   N     N_2   0.197689 0.575575 0.956523 -0.496057
N16   N     N_1   0.255531 0.539711 0.179635 -0.310045
N17   N     N_2   0.954217 0.655129 0.039311 -0.516522
N18   N     N_1   0.339683 0.691103 0.649635 -0.313372
N19   N     N_1   0.971042 0.850103 0.379188 -0.324519
N20   N     N_1   0.323641 0.241924 0.483232 -0.311513
O1    O     O_R   0.977910 0.338120 0.529720 -0.445434
O2    O     O_R   0.839850 0.379180 0.491640 -0.503393
O3    O     O_R   0.069060 0.479460 0.639610 -0.473346
O4    O     O_R   0.931000 0.520530 0.601530 -0.487442
O5    O     O_R   0.160150 0.620820 0.508360 -0.501140
O6    O     O_R   0.022090 0.661880 0.470280 -0.493522
O7    O     O_R   0.069000 0.479470 0.398470 -0.505231
O8    O     O_R   0.930940 0.520540 0.360390 -0.505717

loop_
_geom_bond_atom_site_label_1
_geom_bond_atom_site_label_2
_ccdc_geom_bond_type
H25   N4    S    
C8    C13   A    
C6    H12   S    
C53   N20   T    
Cu1   O5    S    
H20   N3    S    
C48   N15   S    
C35   C36   A    
C1    C68   S    
C4    O3    A    
C12   C49   S    
C50   N17   S    
C50   H14   S    
C23   C56   S    
H29   N5    S    
C45   C46   S    
C59   N6    S    
C40   C46   S    
C12   C23   S    
C26   C27   A    
C29   C30   A    
C14   N5    S    
C45   H6    S    
C15   C53   S    
C48   H9    S    
C36   C37   A    
C62   H44   S    
C5    C68   A    
C30   C31   A    
C39   N12   A    
Cu1   O1    S    
C18   C21   A    
C29   C33   A    
C52   N19   T    
C23   C43   S    
C16   O6    A    
C42   C46   S    
C63   N10   T    
C48   H8    S    
H33   N6    S    
C55   H21   S    
C1    O2    A    
C50   H15   S    
C17   C19   A    
C1    O1    A    
C19   C20   A    
C28   O7    A    
C57   H26   S    
C55   H24   S    
C50   H13   S    
C60   H39   S    
H42   N9    S    
C61   N8    T    
C2    C16   S    
C9    C10   A    
C33   H2    S    
C3    N2    S    
C11   H23   S    
C43   H4    S    
C6    C68   A    
C66   C67   T    
C54   N2    S    
C62   N9    S    
Cu1   Cu2   S    
C41   H45   S    
C12   C47   S    
C34   C65   S    
C43   C64   S    
C38   C39   A    
C40   N4    S    
C40   N15   S    
C55   N3    S    
Cu2   O2    S    
C59   H36   S    
C28   O8    A    
C2    C20   A    
C58   H32   S    
C7    C8    A    
C58   H30   S    
C62   H43   S    
C3    C8    A    
C58   H31   S    
C25   C61   S    
C13   H1    S    
C25   C26   A    
C28   C44   S    
C59   H37   S    
C30   C37   A    
C16   O5    A    
C39   N7    S    
C12   C40   S    
H11   N17   S    
C9    C14   A    
C62   H46   S    
C55   H22   S    
C4    C67   S    
C19   H34   S    
C44   C56   T    
C31   C32   A    
C64   N11   T    
C23   C34   S    
C57   H27   S    
C2    C21   A    
C17   C18   A    
C34   C45   S    
C59   H35   S    
C32   N6    S    
C54   H19   S    
Cu2   O6    S    
C49   N16   T    
C22   C27   A    
C47   N14   T    
C58   N5    S    
Cu1   O7    S    
C22   C24   A    
C35   H47   S    
Cu2   O8    S    
C42   C43   S    
C21   C51   S    
C22   H48   S    
C24   H49   S    
C27   C32   A    
C60   N7    S    
C3    C5    A    
C4    O4    A    
C41   N12   A    
C46   C66   S    
C15   C17   A    
C6    C7    A    
Cu1   O3    S    
C5    N3    S    
C34   N17   S    
Cu2   O4    S    
C45   H5    S    
C48   H10   S    
C36   C38   A    
C20   C52   S    
C60   H41   S    
C57   N4    S    
C54   H18   S    
C11   C13   A    
Cu2   N1    S    
C54   H17   S    
C10   C18   A    
Cu1   N12   S    
C57   H28   S    
C24   N1    A    
C33   C35   A    
C42   N9    S    
H38   N7    S    
C37   C41   A    
H16   N2    S    
C31   H50   S    
C60   H40   S    
C10   C11   A    
C51   N18   T    
C7    C9    A    
C26   C29   A    
C14   C15   A    
H7    N15   S    
C25   N1    A    
C42   C63   S    
C65   N13   T    
C38   H3    S    
