data_mof_unit_42351.cif
_audit_creation_date              2012-12-10T20:44:42-0500
_audit_creation_method            fapswitch 2.2
_symmetry_space_group_name_H-M    P1
_symmetry_Int_Tables_number       1
_space_group_crystal_system       triclinic
_cell_length_a                    9.877036
_cell_length_b                    10.681649
_cell_length_c                    16.895951
_cell_angle_alpha                 88.814957
_cell_angle_beta                  95.271855
_cell_angle_gamma                 89.799377
_cell_volume                      1774.62790766

loop_
_atom_site_label
_atom_site_type_symbol
_atom_type_description
_atom_site_fract_x
_atom_site_fract_y
_atom_site_fract_z
_atom_type_partial_charge
C1    C     C_R   0.499917 0.260185 0.498179 0.932107
C2    C     C_R   0.649170 0.448891 0.781915 -0.204425
C3    C     C_R   0.572970 0.429318 0.143772 -0.207763
C4    C     C_R   0.583106 0.446455 0.224661 -0.188533
C5    C     C_R   0.448120 0.450598 0.097964 0.206842
C6    C     C_R   0.468808 0.482976 0.261558 -0.115594
C7    C     C_R   0.342491 0.497667 0.217269 -0.276327
C8    C     C_R   0.331326 0.480941 0.135389 0.455588
C9    C     C_R   0.622168 0.063874 0.495546 0.118405
C10   C     C_R   0.499486 0.129067 0.487720 -0.122990
C11   C     C_R   0.377291 0.066326 0.467140 -0.145894
C12   C     C_R   0.518501 0.498587 0.653109 0.907636
C13   C     C_R   0.377169 0.936935 0.467670 -0.196918
C14   C     C_R   0.499379 0.872063 0.488329 -0.145286
C15   C     C_R   0.622473 0.936048 0.495446 0.164143
C16   C     C_3   0.737666 0.927670 0.559797 -0.253619
C17   C     C_3   0.737108 0.070101 0.559449 -0.441514
C18   C     C_R   0.078252 0.411062 0.542879 0.177355
C19   C     C_R   0.062146 0.578634 0.449992 -0.027579
C20   C     C_R   0.918199 0.577598 0.450768 -0.078402
C21   C     C_R   0.935900 0.412005 0.543178 0.153536
C22   C     C_3   0.942693 0.390675 0.630716 -0.574499
C23   C     C_R   0.499691 0.740041 0.498416 0.874723
C24   C     C_3   0.096791 0.388079 0.630814 0.294852
C25   C     C_R   0.481421 0.498771 0.346891 0.900883
C26   C     C_R   0.530207 0.494144 0.739085 -0.028619
C27   C     C_R   0.418759 0.530484 0.778736 -0.190475
C28   C     C_R   0.424241 0.518115 0.860376 -0.098023
C29   C     C_R   0.541878 0.468606 0.903435 0.311426
C30   C     C_R   0.654942 0.436932 0.864110 -0.148870
H1    H     H_    0.680829 0.431101 0.258190 0.194324
H2    H     H_    0.281314 0.888648 0.456564 0.191705
H3    H     H_    0.707386 0.884567 0.616001 0.133908
H4    H     H_    0.705450 0.109578 0.615345 0.192588
H5    H     H_    0.828501 0.114776 0.537532 0.258235
H6    H     H_    0.854639 0.641052 0.412737 0.210202
H7    H     H_    0.905396 0.472949 0.661735 0.179373
H8    H     H_    0.896098 0.300010 0.646490 0.239260
H9    H     H_    0.147909 0.466038 0.663965 0.081202
H10   H     H_    0.663978 0.402543 0.116983 0.189136
H11   H     H_    0.746493 0.400950 0.897184 0.174039
H12   H     H_    0.735891 0.419919 0.751965 0.166096
H13   H     H_    0.253591 0.523989 0.246231 0.217160
H14   H     H_    0.336801 0.547644 0.889644 0.196177
H15   H     H_    0.327243 0.568383 0.746705 0.154518
H16   H     H_    0.281582 0.116167 0.455486 0.210053
N1    N     N_2   0.551845 0.455360 0.986670 -0.187475
N2    N     N_2   0.439273 0.452068 0.014230 -0.113989
N3    N     N_R   0.142860 0.499130 0.500540 -0.192511
N4    N     N_R   0.857210 0.499170 0.500530 -0.137516
O1    O     O_R   0.614690 0.316790 0.499990 -0.617792
O2    O     O_R   0.385350 0.316760 0.500000 -0.577203
O3    O     O_R   0.627460 0.498860 0.616130 -0.632089
O4    O     O_R   0.398120 0.498820 0.616130 -0.605133
O5    O     O_R   0.614650 0.683240 0.500000 -0.625900
O6    O     O_R   0.385310 0.683210 0.500010 -0.658263
O7    O     O_R   0.601880 0.501180 0.383870 -0.615652
O8    O     O_R   0.372540 0.501140 0.383870 -0.655907
Zn1   Zn    Zn3+2 0.653130 0.500020 0.499990 0.957423
Zn2   Zn    Zn3+2 0.346870 0.499980 0.500010 0.969721
C31   C     C_2   0.864782 0.870921 0.532486 0.513541
H17   H     H_    0.918363 0.798020 0.568601 0.033681
O9    O     O_2   0.908744 0.905642 0.470471 -0.525068
C32   C     C_2   0.120990 0.667427 0.394058 0.444618
H18   H     H_    0.228051 0.672349 0.389059 0.123759
O10   O     O_2   0.048151 0.737931 0.350965 -0.532572
S1    S     S_3+6 0.168475 0.236782 0.656733 0.034159
O11   O     O_2   0.320749 0.242898 0.659636 -0.296432
O12   O     O_2   0.128521 0.196923 0.737145 -0.264737
O13   O     O_3   0.110128 0.132083 0.588965 -0.576403
H19   H     H_    0.157377 0.052652 0.605765 0.381078
S2    S     S_3+6 0.172452 0.504764 0.079876 0.038528
O14   O     O_2   0.178283 0.623011 0.030566 -0.284305
O15   O     O_2   0.143399 0.396252 0.025764 -0.277058
O16   O     O_3   0.047728 0.517315 0.140746 -0.548032
H20   H     H_    0.963144 0.527924 0.104885 0.387389

loop_
_geom_bond_atom_site_label_1
_geom_bond_atom_site_label_2
_ccdc_geom_bond_type
O5    Zn1   S    
C18   C21   A    
C13   H2    S    
C19   C20   A    
O3    Zn1   S    
C7    C8    A    
O4    Zn2   S    
C26   C27   A    
N3    Zn2   S    
C29   N1    S    
C18   C24   S    
N4    Zn1   S    
C28   C29   A    
O7    Zn1   S    
C6    C25   S    
O8    Zn2   S    
C15   C16   S    
C22   H8    S    
C24   H9    S    
C31   O9    D    
C20   N4    A    
O2    Zn2   S    
C24   S1    S    
C16   C17   S    
C30   H11   S    
O13   H19   S    
C7    H13   S    
C9    C10   A    
C12   O3    A    
C27   H15   S    
C21   C22   S    
C25   O7    A    
S2    O16   S    
C21   N4    A    
C5    N2    S    
C8    S2    S    
S1    O11   D    
C23   O6    A    
S2    O15   D    
C22   H7    S    
C28   H14   S    
O6    Zn2   S    
C12   C26   S    
S1    O12   D    
C32   O10   D    
C14   C23   S    
O16   H20   S    
C29   C30   A    
C16   H3    S    
C19   N3    A    
N1    N2    D    
C19   C32   S    
C2    C26   A    
C1    O1    A    
C9    C17   S    
C3    H10   S    
C22   C24   S    
C4    C6    A    
O1    Zn1   S    
C16   C31   S    
C3    C4    A    
C25   O8    A    
C1    C10   S    
S2    O14   D    
C3    C5    A    
C5    C8    A    
C23   O5    A    
C6    C7    A    
C2    C30   A    
S1    O13   S    
C32   H18   S    
C9    C15   A    
C11   C13   A    
C2    H12   S    
C31   H17   S    
C1    O2    A    
C4    H1    S    
C10   C11   A    
C20   H6    S    
C17   H4    S    
C27   C28   A    
C14   C15   A    
C11   H16   S    
C17   H5    S    
C13   C14   A    
C12   O4    A    
C18   N3    A    
