data_mof_unit_63426.cif
_audit_creation_date              2012-12-10T20:43:44-0500
_audit_creation_method            fapswitch 2.2
_symmetry_space_group_name_H-M    P1
_symmetry_Int_Tables_number       1
_space_group_crystal_system       triclinic
_cell_length_a                    10.821224
_cell_length_b                    19.223694
_cell_length_c                    19.183982
_cell_angle_alpha                 94.946757
_cell_angle_beta                  92.06326
_cell_angle_gamma                 96.348959
_cell_volume                      3947.29643727

loop_
_atom_site_label
_atom_site_type_symbol
_atom_type_description
_atom_site_fract_x
_atom_site_fract_y
_atom_site_fract_z
_atom_type_partial_charge
C1    C     C_R   0.512854 0.690140 0.508459 0.513488
C2    C     C_R   0.516477 0.766974 0.513006 0.019384
C3    C     C_R   0.471166 0.802570 0.571987 -0.145511
C4    C     C_R   0.487458 0.309711 0.491595 0.506792
C5    C     C_R   0.470384 0.875360 0.576411 -0.003459
C6    C     C_R   0.491142 0.515117 0.766711 0.004030
C7    C     C_R   0.595342 0.501316 0.808514 0.026211
C8    C     C_R   0.585890 0.502285 0.881175 -0.086499
C9    C     C_R   0.477744 0.520193 0.913318 0.196420
C10   C     C_R   0.378980 0.538179 0.872426 -0.108449
C11   C     C_R   0.384655 0.534663 0.799754 -0.165780
C12   C     C_R   0.544828 0.201500 0.540560 -0.145317
C13   C     C_R   0.549766 0.545969 0.127710 -0.090692
C14   C     C_R   0.551436 0.549467 0.200691 -0.147869
C15   C     C_R   0.514883 0.481477 0.087713 0.226276
C16   C     C_R   0.512675 0.492679 0.310946 0.505714
C17   C     C_R   0.516197 0.488917 0.234375 0.033177
C18   C     C_R   0.482264 0.424572 0.194299 -0.143674
C19   C     C_R   0.483893 0.420776 0.121444 -0.101475
C20   C     C_R   0.489796 0.508518 0.689377 0.530981
C21   C     C_R   0.835116 0.515396 0.515538 0.508985
C22   C     C_R   0.163827 0.485094 0.485115 0.511964
C23   C     C_R   0.548530 0.129151 0.535673 -0.083112
C24   C     C_2   0.029020 0.479392 0.479289 -0.119667
C25   C     C_2   0.968348 0.521057 0.521567 -0.094004
C26   C     C_R   0.487096 0.232928 0.486684 0.028581
C27   C     C_2   0.717894 0.490163 0.779837 0.588846
C28   C     C_1   0.423810 0.910403 0.637971 0.224924
C29   C     C_R   0.494494 0.086618 0.476406 0.225353
C30   C     C_R   0.438461 0.118140 0.422262 -0.107888
C31   C     C_R   0.433556 0.190705 0.427513 -0.145733
C32   C     C_R   0.559344 0.877640 0.461992 -0.102615
C33   C     C_R   0.562189 0.805045 0.458474 -0.153550
C34   C     C_R   0.511975 0.913329 0.520730 0.212369
H1    H     H_    0.978803 0.441085 0.440336 0.106652
H2    H     H_    0.016182 0.559639 0.560994 0.135389
H3    H     H_    0.597908 0.778541 0.412630 0.137689
H4    H     H_    0.594858 0.905914 0.419144 0.142945
H5    H     H_    0.397469 0.086232 0.376170 0.125534
H6    H     H_    0.389573 0.213828 0.384930 0.138328
H7    H     H_    0.436920 0.773690 0.614832 0.143442
H8    H     H_    0.594702 0.106699 0.577947 0.148840
H9    H     H_    0.871076 0.439434 0.784939 0.343114
H10   H     H_    0.587423 0.232854 0.586601 0.147934
H11   H     H_    0.578099 0.599560 0.230722 0.132584
H12   H     H_    0.577036 0.593158 0.102402 0.137541
H13   H     H_    0.296151 0.553363 0.896869 0.138957
H14   H     H_    0.304673 0.546443 0.769206 0.148932
H15   H     H_    0.455917 0.377107 0.219384 0.133574
H16   H     H_    0.665078 0.492110 0.913433 0.169502
H17   H     H_    0.458937 0.370701 0.091101 0.130790
N1    N     N_2   0.496435 0.012594 0.469289 -0.245805
N2    N     N_2   0.508875 0.987193 0.526462 -0.235020
N3    N     N_2   0.469638 0.524201 0.987052 -0.239528
N4    N     N_2   0.516627 0.475792 0.013795 -0.238226
N5    N     N_1   0.386473 0.938517 0.687321 -0.271832
O1    O     O_3   0.500000 0.500000 0.500000 -0.445653
O2    O     O_R   0.783160 0.551820 0.473170 -0.533629
O3    O     O_R   0.222430 0.530340 0.530340 -0.541096
O4    O     O_R   0.771990 0.472690 0.551320 -0.510718
O5    O     O_R   0.222420 0.445150 0.445160 -0.532785
O6    O     O_2   0.759810 0.525338 0.734101 -0.499923
O7    O     O_R   0.788462 0.441674 0.807865 -0.698646
O8    O     O_R   0.435070 0.449940 0.339290 -0.544876
O9    O     O_R   0.419380 0.543640 0.654290 -0.547899
O10   O     O_R   0.586230 0.658380 0.469080 -0.540636
O11   O     O_R   0.559310 0.348040 0.537340 -0.545152
O12   O     O_R   0.435110 0.654980 0.544320 -0.542498
O13   O     O_R   0.419350 0.338590 0.449260 -0.546639
O14   O     O_R   0.586210 0.538520 0.349230 -0.543478
O15   O     O_R   0.559330 0.467910 0.657200 -0.501213
Zn1   Zn    Zn3+2 0.396020 0.434560 0.434560 0.941143
Zn2   Zn    Zn3+2 0.611960 0.561120 0.448760 0.948502
Zn3   Zn    Zn3+2 0.595990 0.448060 0.560420 0.984901
Zn4   Zn    Zn3+2 0.396040 0.556260 0.556260 0.950761

loop_
_geom_bond_atom_site_label_1
_geom_bond_atom_site_label_2
_ccdc_geom_bond_type
O3    Zn4   S    
C28   N5    T    
H9    O7    S    
C7    C8    A    
O12   Zn4   S    
C15   C19   A    
C12   C23   A    
C23   H8    S    
C23   C29   A    
C18   C19   A    
C13   H12   S    
C1    O12   A    
C7    C27   S    
C31   H6    S    
C1    C2    S    
O1    Zn2   S    
C8    C9    A    
C20   O15   A    
C32   H4    S    
C9    C10   A    
C26   C31   A    
C13   C14   A    
C14   C17   A    
C11   H14   S    
C4    O13   A    
C1    O10   A    
C14   H11   S    
C24   H1    S    
C20   O9    A    
C16   O14   A    
C24   C25   D    
C21   O4    A    
C6    C11   A    
C16   C17   S    
O10   Zn2   S    
C33   H3    S    
C12   C26   A    
C15   N4    S    
O1    Zn3   S    
O13   Zn1   S    
C29   C30   A    
C27   O6    D    
O15   Zn3   S    
C5    C28   S    
C5    C34   A    
O14   Zn2   S    
C17   C18   A    
O11   Zn3   S    
C27   O7    S    
O5    Zn1   S    
C13   C15   A    
C22   C24   S    
C8    H16   S    
C22   O3    A    
N1    N2    D    
C2    C33   A    
C21   C25   S    
N3    N4    D    
C3    H7    S    
C3    C5    A    
C4    O11   A    
C4    C26   S    
C6    C7    A    
C6    C20   S    
O9    Zn4   S    
C32   C33   A    
O1    Zn4   S    
C2    C3    A    
C21   O2    A    
C12   H10   S    
C22   O5    A    
C30   C31   A    
O4    Zn3   S    
C30   H5    S    
O8    Zn1   S    
O1    Zn1   S    
C10   C11   A    
C25   H2    S    
C19   H17   S    
O2    Zn2   S    
C34   N2    S    
C10   H13   S    
C9    N3    S    
C16   O8    A    
C18   H15   S    
C32   C34   A    
C29   N1    S    
