data_mof_unit_30635.cif
_audit_creation_date              2012-12-10T20:37:32-0500
_audit_creation_method            fapswitch 2.2
_symmetry_space_group_name_H-M    P1
_symmetry_Int_Tables_number       1
_space_group_crystal_system       triclinic
_cell_length_a                    15.733763
_cell_length_b                    10.650249
_cell_length_c                    9.904191
_cell_angle_alpha                 90.227432
_cell_angle_beta                  90.54619
_cell_angle_gamma                 90.871954
_cell_volume                      1659.34873372

loop_
_atom_site_label
_atom_site_type_symbol
_atom_type_description
_atom_site_fract_x
_atom_site_fract_y
_atom_site_fract_z
_atom_type_partial_charge
C1    C     C_R   0.498656 0.260544 0.499667 0.887735
C2    C     C_R   0.500763 0.128956 0.496765 -0.120302
C3    C     C_R   0.445702 0.062552 0.409916 -0.197914
C4    C     C_R   0.338040 0.499697 0.499434 0.894155
C5    C     C_R   0.447317 0.932721 0.410272 -0.179576
C6    C     C_R   0.505168 0.871885 0.495404 -0.124722
C7    C     C_R   0.570325 0.940043 0.559618 0.005201
C8    C     C_3   0.608026 0.933709 0.698731 0.214126
C9    C     C_3   0.596946 0.076379 0.706511 0.129453
C10   C     C_R   0.433583 0.447670 0.069796 0.252461
C11   C     C_R   0.561695 0.560817 0.074350 -0.124690
C12   C     C_3   0.083172 0.497078 0.500282 0.040681
C13   C     C_R   0.561584 0.562826 0.931435 0.431985
C14   C     C_R   0.433590 0.447580 0.927540 0.102750
C15   C     C_3   0.403466 0.314328 0.920468 -0.516575
C16   C     C_R   0.502570 0.739679 0.499814 0.903280
C17   C     C_3   0.404084 0.314135 0.074215 0.194814
C18   C     C_R   0.661898 0.498354 0.500519 0.926063
C19   C     C_3   0.970677 0.379136 0.460543 -0.361291
C20   C     C_3   0.025977 0.470896 0.377877 0.465741
C21   C     C_1   0.249189 0.498718 0.498460 -0.130049
C22   C     C_1   0.750646 0.495084 0.501447 -0.058177
C23   C     C_3   0.973039 0.519484 0.625104 0.454792
C24   C     C_3   0.027960 0.408643 0.584269 0.363200
C25   C     C_3   0.916551 0.492936 0.501096 -0.080646
C26   C     C_3   0.028583 0.610068 0.540649 -0.322121
C27   C     C_3   0.970640 0.583700 0.414890 -0.242054
C28   C     C_1   0.173952 0.497835 0.498815 0.120915
C29   C     C_1   0.825816 0.493249 0.501542 0.120713
C30   C     C_R   0.565756 0.068028 0.563912 0.055071
H1    H     H_    0.547550 0.105423 0.779469 0.071449
H2    H     H_    0.400985 0.880185 0.350191 0.161996
H3    H     H_    0.567680 0.880575 0.770890 0.057163
H4    H     H_    0.005671 0.430488 0.191643 0.353063
H5    H     H_    0.755495 0.971510 0.881162 0.375020
H6    H     H_    0.656539 0.235489 0.720556 0.357043
H7    H     H_    0.605030 0.653084 0.781204 0.391551
H8    H     H_    0.307645 0.213426 0.127339 0.342129
H9    H     H_    0.996138 0.587673 0.984999 0.385668
H10   H     H_    0.010294 0.274362 0.709532 0.371546
H11   H     H_    0.611919 0.608938 0.130283 0.198590
H12   H     H_    0.338919 0.305527 0.874379 0.248394
H13   H     H_    0.451489 0.251253 0.876461 0.172117
H14   H     H_    0.450938 0.250029 0.121602 0.113517
H15   H     H_    0.946303 0.285433 0.427696 0.203923
H16   H     H_    0.945472 0.654145 0.343150 0.198219
H17   H     H_    0.053428 0.703284 0.574271 0.207683
H18   H     H_    0.398865 0.110364 0.348723 0.161813
N1    N     N_R   0.499430 0.499140 0.142800 -0.187362
N2    N     N_R   0.499430 0.499180 0.857150 -0.179352
O1    O     O_R   0.500010 0.316790 0.614690 -0.640158
O2    O     O_2   0.719170 0.751877 0.637291 -0.275002
O3    O     O_2   0.769576 0.966769 0.605075 -0.209665
O4    O     O_3   0.757652 0.882918 0.850816 -0.438038
O5    O     O_3   0.673041 0.145994 0.717581 -0.681024
O6    O     O_3   0.625800 0.629552 0.871106 -0.677830
O7    O     O_3   0.322249 0.304370 0.127925 -0.691051
O8    O     O_2   0.887669 0.670216 0.791798 -0.188088
O9    O     O_2   0.879615 0.443638 0.836091 -0.281671
O10   O     O_3   0.020444 0.563459 0.896930 -0.515106
O11   O     O_3   0.060607 0.319549 0.673288 -0.694741
O12   O     O_R   0.500000 0.316760 0.385350 -0.614338
O13   O     O_R   0.376780 0.500010 0.614650 -0.605775
O14   O     O_R   0.376770 0.499970 0.385310 -0.577280
O15   O     O_R   0.500000 0.683240 0.614650 -0.655934
O16   O     O_R   0.499990 0.683210 0.385310 -0.611377
O17   O     O_R   0.623230 0.500030 0.614690 -0.594751
O18   O     O_R   0.623220 0.499990 0.385350 -0.627074
O19   O     O_3   0.056827 0.446567 0.248657 -0.699093
S1    S     S_3+6 0.716576 0.882687 0.693507 0.133546
S2    S     S_3+6 0.936418 0.550022 0.791502 0.076439
Zn1   Zn    Zn3+2 0.500010 0.500020 0.653130 0.971371
Zn2   Zn    Zn3+2 0.499990 0.499980 0.346870 0.987449

loop_
_geom_bond_atom_site_label_1
_geom_bond_atom_site_label_2
_ccdc_geom_bond_type
C24   O11   S    
C22   C29   T    
C19   C20   S    
C1    O12   A    
C7    C8    S    
C4    O13   A    
C26   C27   S    
C12   C28   S    
C1    C2    S    
C5    C6    A    
O8    S2    D    
C10   C17   S    
C18   O18   A    
C3    H18   S    
O17   Zn1   S    
C23   C26   S    
N2    Zn1   S    
H7    O6    S    
C8    C9    S    
C23   C24   S    
O12   Zn2   S    
C9    O5    S    
C13   O6    S    
C7    C30   A    
H5    O4    S    
O3    S1    D    
C25   C29   S    
C23   S2    S    
C10   C14   A    
O10   S2    S    
C18   O17   A    
O16   Zn2   S    
H10   O11   S    
C12   C26   S    
C11   N1    A    
H8    O7    S    
O4    S1    S    
O14   Zn2   S    
C12   C20   S    
C1    O1    A    
H4    O19   S    
C9    C30   S    
C26   H17   S    
C27   H16   S    
C21   C28   T    
N1    Zn2   S    
C20   O19   S    
C16   O16   A    
O1    Zn1   S    
C15   C17   S    
C4    O14   A    
C18   C22   S    
C19   C24   S    
C15   H12   S    
C3    C5    A    
C19   H15   S    
C6    C7    A    
C20   C27   S    
C25   C27   S    
O15   Zn1   S    
C12   C24   S    
C8    S1    S    
C2    C30   A    
C5    H2    S    
C2    C3    A    
O18   Zn2   S    
C17   H14   S    
C15   H13   S    
H6    O5    S    
C4    C21   S    
C11   C13   A    
C14   N2    A    
H9    O10   S    
C11   H11   S    
C8    H3    S    
C23   C25   S    
C19   C25   S    
O2    S1    D    
C9    H1    S    
C6    C16   S    
C13   N2    A    
O13   Zn1   S    
C17   O7    S    
C14   C15   S    
C16   O15   A    
C10   N1    A    
O9    S2    D    
