data_mof_unit_60120.cif
_audit_creation_date              2012-12-10T17:22:35-0500
_audit_creation_method            fapswitch 2.2
_symmetry_space_group_name_H-M    P1
_symmetry_Int_Tables_number       1
_space_group_crystal_system       triclinic
_cell_length_a                    21.688251
_cell_length_b                    21.688238
_cell_length_c                    30.382141
_cell_angle_alpha                 89.999799
_cell_angle_beta                  89.999841
_cell_angle_gamma                 90.000141
_cell_volume                      14291.1499488

loop_
_atom_site_label
_atom_site_type_symbol
_atom_type_description
_atom_site_fract_x
_atom_site_fract_y
_atom_site_fract_z
_atom_type_partial_charge
C1    C     C_R   0.118723 0.500000 0.500001 0.873274
C2    C     C_R   0.500000 0.881277 0.500000 0.873286
C3    C     C_R   0.881277 0.500000 0.500001 0.873270
C4    C     C_R   0.500000 0.118723 0.500000 0.873287
C5    C     C_R   0.618723 0.000000 0.000000 0.873294
C6    C     C_R   1.000000 0.381277 0.000001 0.873320
C7    C     C_R   0.381277 1.000000 0.000000 0.873292
C8    C     C_R   0.000000 0.618723 0.000001 0.873309
C9    C     C_R   0.500000 0.380876 0.500000 0.845117
C10   C     C_R   0.380876 0.500000 0.500000 0.845117
C11   C     C_R   0.500000 0.619124 0.500000 0.845116
C12   C     C_R   0.619124 0.500000 0.500000 0.845116
C13   C     C_R   1.000000 0.880876 0.000000 0.845111
C14   C     C_R   0.880876 0.000000 0.000000 0.845112
C15   C     C_R   1.000000 0.119124 1.000000 0.845112
C16   C     C_R   0.119124 0.000000 1.000000 0.845112
C17   C     C_R   0.313822 0.499999 0.500000 -0.162204
C18   C     C_R   0.500000 0.686179 0.500000 -0.162211
C19   C     C_R   0.686178 0.500001 0.500000 -0.162203
C20   C     C_R   0.500000 0.313821 0.500000 -0.162213
C21   C     C_R   0.813821 0.000000 0.000000 -0.162210
C22   C     C_R   0.999999 0.186179 1.000000 -0.162224
C23   C     C_R   0.186179 0.000000 1.000000 -0.162211
C24   C     C_R   0.000000 0.813821 0.000000 -0.162220
C25   C     C_R   0.281707 0.470737 0.534088 -0.252901
C26   C     C_R   0.470743 0.718294 0.534090 -0.252881
C27   C     C_R   0.718293 0.529266 0.534087 -0.252900
C28   C     C_R   0.529255 0.281706 0.534091 -0.252881
C29   C     C_R   0.281706 0.529261 0.465911 -0.252865
C30   C     C_R   0.470744 0.281706 0.465909 -0.252872
C31   C     C_R   0.718294 0.470737 0.465912 -0.252868
C32   C     C_R   0.529257 0.718294 0.465909 -0.252874
C33   C     C_R   0.781706 0.970745 0.034092 -0.252876
C34   C     C_R   0.970757 0.218294 0.034097 -0.252885
C35   C     C_R   0.218294 0.029255 0.034091 -0.252874
C36   C     C_R   0.029247 0.781706 0.034095 -0.252888
C37   C     C_R   0.781706 0.029255 0.965908 -0.252872
C38   C     C_R   0.970754 0.781705 0.965905 -0.252845
C39   C     C_R   0.218294 0.970745 0.965908 -0.252873
C40   C     C_R   0.029240 0.218295 0.965902 -0.252846
C41   C     C_R   1.000000 0.500000 0.414874 0.846100
C42   C     C_R   0.500000 0.000000 0.414875 0.846115
C43   C     C_R   0.000000 0.500000 0.585124 0.846108
C44   C     C_R   0.500000 0.000000 0.585125 0.846125
C45   C     C_R   0.500000 0.000000 0.914875 0.846129
C46   C     C_R   0.000000 0.500000 0.914874 0.846139
C47   C     C_R   0.500000 1.000000 0.085125 0.846123
C48   C     C_R   1.000000 0.500000 0.085125 0.846159
C49   C     C_R   0.185443 0.499999 0.500001 -0.220666
C50   C     C_R   0.500000 0.814557 0.500000 -0.220666
C51   C     C_R   0.814556 0.500001 0.500001 -0.220667
C52   C     C_R   0.500000 0.185443 0.500000 -0.220665
C53   C     C_R   0.685443 0.000000 0.000000 -0.220665
C54   C     C_R   0.999999 0.314557 0.000000 -0.220659
C55   C     C_R   0.314557 1.000000 0.000000 -0.220665
C56   C     C_R   0.000001 0.685443 0.000001 -0.220663
C57   C     C_R   0.217451 0.470803 0.534414 0.437874
C58   C     C_R   0.470809 0.782549 0.534416 0.437836
C59   C     C_R   0.782549 0.529200 0.534412 0.437875
C60   C     C_R   0.529189 0.217450 0.534416 0.437836
C61   C     C_R   0.217450 0.529194 0.465587 0.437816
C62   C     C_R   0.470811 0.217450 0.465584 0.437827
C63   C     C_R   0.782550 0.470804 0.465588 0.437818
C64   C     C_R   0.529191 0.782550 0.465584 0.437828
C65   C     C_R   0.717450 0.970812 0.034417 0.437830
C66   C     C_R   0.970824 0.282550 0.034423 0.437840
C67   C     C_R   0.282549 0.029189 0.034416 0.437830
C68   C     C_R   0.029181 0.717450 0.034420 0.437844
C69   C     C_R   0.717450 0.029188 0.965583 0.437824
C70   C     C_R   0.970822 0.717450 0.965580 0.437783
C71   C     C_R   0.282550 0.970811 0.965584 0.437825
C72   C     C_R   0.029173 0.282551 0.965577 0.437781
C73   C     C_R   0.992869 0.444013 0.296974 0.487168
C74   C     C_R   0.444035 0.007293 0.296976 0.487155
C75   C     C_R   0.007129 0.555987 0.296974 0.487177
C76   C     C_R   0.555966 0.992706 0.296976 0.487161
C77   C     C_R   0.007645 0.444081 0.703020 0.487135
C78   C     C_R   0.444033 0.992713 0.703024 0.487150
C79   C     C_R   0.992357 0.555918 0.703021 0.487142
C80   C     C_R   0.555966 0.007288 0.703024 0.487150
C81   C     C_R   0.507288 0.055967 0.796976 0.487160
C82   C     C_R   0.943988 0.506918 0.796972 0.487164
C83   C     C_R   0.492711 0.944034 0.796976 0.487160
C84   C     C_R   0.056014 0.493079 0.796973 0.487160
C85   C     C_R   0.507285 0.944033 0.203024 0.487153
C86   C     C_R   0.055942 0.507467 0.203022 0.487156
C87   C     C_R   0.492715 0.055966 0.203024 0.487158
C88   C     C_R   0.944056 0.492535 0.203022 0.487155
C89   C     C_R   0.994881 0.444383 0.343219 -0.312085
C90   C     C_R   0.444398 0.005277 0.343220 -0.312060
C91   C     C_R   0.005117 0.555618 0.343219 -0.312088
C92   C     C_R   0.555603 0.994723 0.343220 -0.312073
C93   C     C_R   0.005621 0.444430 0.656776 -0.312044
C94   C     C_R   0.444396 0.994729 0.656780 -0.312064
C95   C     C_R   0.994380 0.555569 0.656777 -0.312054
C96   C     C_R   0.555603 0.005272 0.656779 -0.312063
C97   C     C_R   0.505272 0.055604 0.843220 -0.312063
C98   C     C_R   0.944364 0.504912 0.843217 -0.312074
C99   C     C_R   0.494727 0.944397 0.843220 -0.312064
C100  C     C_R   0.055637 0.495086 0.843217 -0.312061
C101  C     C_R   0.505269 0.944396 0.156780 -0.312063
C102  C     C_R   0.055586 0.505445 0.156778 -0.312082
C103  C     C_R   0.494731 0.055603 0.156779 -0.312075
C104  C     C_R   0.944413 0.494556 0.156778 -0.312072
C105  C     C_R   1.000000 0.500000 0.366435 -0.167071
C106  C     C_R   0.500000 1.000000 0.366436 -0.167055
C107  C     C_R   0.000000 0.500000 0.633562 -0.166994
C108  C     C_R   0.500000 0.000000 0.633564 -0.167055
C109  C     C_R   0.500000 0.000000 0.866436 -0.167057
C110  C     C_R   0.000000 0.499999 0.866434 -0.167124
C111  C     C_R   0.500000 1.000000 0.133564 -0.167055
C112  C     C_R   1.000000 0.500000 0.133563 -0.167019
C113  C     C_R   0.999999 0.500000 0.274199 0.021878
C114  C     C_R   0.500000 0.999999 0.274200 0.021904
C115  C     C_R   0.000001 0.499999 0.725797 0.021963
C116  C     C_R   0.499999 0.000001 0.725800 0.021905
C117  C     C_R   0.499999 0.000001 0.774200 0.021902
C118  C     C_R   0.000001 0.499999 0.774197 0.021854
C119  C     C_R   0.500000 1.000000 0.225800 0.021902
C120  C     C_R   0.999999 0.500000 0.225798 0.021923
Cu1   Cu    Cu3+1 0.000000 0.438210 0.500000 0.992924
Cu2   Cu    Cu3+1 0.438210 0.000000 0.500000 0.992895
Cu3   Cu    Cu3+1 0.000000 0.561790 0.500000 0.992924
Cu4   Cu    Cu3+1 0.561790 0.000000 0.500000 0.992893
Cu5   Cu    Cu3+1 0.500000 0.938210 0.000000 0.992874
Cu6   Cu    Cu3+1 0.938210 0.500000 0.000000 0.992840
Cu7   Cu    Cu3+1 0.500000 0.061790 0.000000 0.992872
Cu8   Cu    Cu3+1 0.061790 0.500000 0.000000 0.992840
Cu9   Cu    Cu3+1 0.500000 0.500000 0.544060 0.947956
Cu10  Cu    Cu3+1 0.500000 0.500000 0.455940 0.948050
Cu11  Cu    Cu3+1 0.000000 0.000000 0.044060 0.947990
Cu12  Cu    Cu3+1 0.000000 0.000000 0.955940 0.948087
H1    H     H_    0.992494 0.401315 0.361080 0.182380
H2    H     H_    0.401337 0.007793 0.361081 0.182411
H3    H     H_    0.007505 0.598685 0.361080 0.182379
H4    H     H_    0.598663 0.992207 0.361082 0.182409
H5    H     H_    0.008415 0.401388 0.638915 0.182475
H6    H     H_    0.401336 0.992216 0.638918 0.182412
H7    H     H_    0.991586 0.598612 0.638915 0.182473
H8    H     H_    0.598663 0.007785 0.638918 0.182412
H9    H     H_    0.507785 0.098664 0.861081 0.182408
H10   H     H_    0.901287 0.507136 0.861078 0.182343
H11   H     H_    0.492214 0.901337 0.861082 0.182407
H12   H     H_    0.098714 0.492863 0.861078 0.182344
H13   H     H_    0.507780 0.901335 0.138919 0.182410
H14   H     H_    0.098638 0.508097 0.138916 0.182439
H15   H     H_    0.492221 0.098664 0.138918 0.182408
H16   H     H_    0.901362 0.491905 0.138916 0.182438
H17   H     H_    0.306359 0.447340 0.560234 0.175553
H18   H     H_    0.447351 0.693642 0.560239 0.175572
H19   H     H_    0.693641 0.552663 0.560232 0.175552
H20   H     H_    0.552645 0.306357 0.560240 0.175573
H21   H     H_    0.306357 0.552656 0.439765 0.175584
H22   H     H_    0.447354 0.306358 0.439760 0.175580
H23   H     H_    0.693643 0.447341 0.439766 0.175582
H24   H     H_    0.552649 0.693643 0.439761 0.175578
H25   H     H_    0.806357 0.947355 0.060241 0.175576
H26   H     H_    0.947377 0.193642 0.060250 0.175574
H27   H     H_    0.193642 0.052646 0.060240 0.175576
H28   H     H_    0.052632 0.806357 0.060247 0.175571
H29   H     H_    0.806357 0.052645 0.939759 0.175581
H30   H     H_    0.947371 0.806356 0.939752 0.175604
H31   H     H_    0.193643 0.947355 0.939760 0.175580
H32   H     H_    0.052619 0.193645 0.939748 0.175607
O1    O     O_R   0.090160 0.447820 0.500030 -0.567105
O2    O     O_R   0.447820 0.909840 0.500030 -0.567077
O3    O     O_R   0.909840 0.552180 0.500030 -0.567102
O4    O     O_R   0.552180 0.090160 0.500030 -0.567079
O5    O     O_R   0.090160 0.552180 0.499970 -0.567042
O6    O     O_R   0.447820 0.090160 0.499970 -0.567083
O7    O     O_R   0.909840 0.447820 0.499970 -0.567040
O8    O     O_R   0.552180 0.909840 0.499970 -0.567081
O9    O     O_R   0.590160 0.947820 0.000030 -0.567082
O10   O     O_R   0.947820 0.409840 0.000030 -0.567133
O11   O     O_R   0.409840 0.052180 0.000030 -0.567081
O12   O     O_R   0.052180 0.590160 0.000030 -0.567126
O13   O     O_R   0.590160 0.052180 0.999970 -0.567087
O14   O     O_R   0.947820 0.590160 0.999970 -0.567061
O15   O     O_R   0.409840 0.947820 0.999970 -0.567086
O16   O     O_R   0.052180 0.409840 0.999970 -0.567067
O17   O     O_R   0.999980 0.447820 0.435750 -0.589135
O18   O     O_R   0.447820 0.000020 0.435750 -0.589120
O19   O     O_R   0.000020 0.552180 0.435750 -0.589134
O20   O     O_R   0.552180 0.999980 0.435750 -0.589121
O21   O     O_R   0.999980 0.552180 0.564250 -0.589088
O22   O     O_R   0.447820 0.999980 0.564250 -0.589120
O23   O     O_R   0.000020 0.447820 0.564250 -0.589087
O24   O     O_R   0.552180 0.000020 0.564250 -0.589119
O25   O     O_R   0.499980 0.947820 0.935750 -0.589122
O26   O     O_R   0.947820 0.500020 0.935750 -0.589155
O27   O     O_R   0.500020 0.052180 0.935750 -0.589122
O28   O     O_R   0.052180 0.499980 0.935750 -0.589154
O29   O     O_R   0.499980 0.052180 0.064250 -0.589123
O30   O     O_R   0.947820 0.499980 0.064250 -0.589106
O31   O     O_R   0.500020 0.947820 0.064250 -0.589121
O32   O     O_R   0.052180 0.500020 0.064250 -0.589107
O33   O     O_R   0.499980 0.409740 0.537200 -0.590417
O34   O     O_R   0.409740 0.500020 0.537200 -0.590418
O35   O     O_R   0.500020 0.590260 0.537200 -0.590417
O36   O     O_R   0.590260 0.499980 0.537200 -0.590417
O37   O     O_R   0.499980 0.590260 0.462800 -0.590398
O38   O     O_R   0.409740 0.499980 0.462800 -0.590396
O39   O     O_R   0.500020 0.409740 0.462800 -0.590399
O40   O     O_R   0.590260 0.500020 0.462800 -0.590396
O41   O     O_R   0.999980 0.909740 0.037200 -0.590415
O42   O     O_R   0.909740 0.000020 0.037200 -0.590413
O43   O     O_R   0.000020 0.090260 0.037200 -0.590416
O44   O     O_R   0.090260 0.999980 0.037200 -0.590414
O45   O     O_R   0.999980 0.090260 0.962800 -0.590395
O46   O     O_R   0.909740 0.999980 0.962800 -0.590394
O47   O     O_R   0.000020 0.909740 0.962800 -0.590395
O48   O     O_R   0.090260 0.000020 0.962800 -0.590393
O49   O     O_3   0.989319 0.389577 0.272913 -0.573640
C121  C     C_3   0.941408 0.351341 0.288594 -0.306375
H33   H     H_    0.899218 0.377855 0.297598 0.162931
H34   H     H_    0.957598 0.323215 0.316857 0.170110
H35   H     H_    0.928287 0.318891 0.261975 0.182463
O50   O     O_3   0.389608 0.011005 0.272916 -0.573631
C122  C     C_3   0.351532 0.059050 0.288587 -0.306365
H36   H     H_    0.378185 0.101159 0.297575 0.162875
H37   H     H_    0.323360 0.042968 0.316858 0.170137
H38   H     H_    0.319120 0.072261 0.261967 0.182493
O51   O     O_3   0.010678 0.610424 0.272912 -0.573638
C123  C     C_3   0.058588 0.648662 0.288594 -0.306371
H39   H     H_    0.071709 0.681111 0.261974 0.182461
H40   H     H_    0.100778 0.622150 0.297599 0.162930
H41   H     H_    0.042394 0.676788 0.316856 0.170110
O52   O     O_3   0.610392 0.988993 0.272915 -0.573636
C124  C     C_3   0.648477 0.940959 0.288592 -0.306385
H42   H     H_    0.621830 0.898850 0.297590 0.162865
H43   H     H_    0.676650 0.957056 0.316859 0.170146
H44   H     H_    0.680888 0.927743 0.261973 0.182491
O53   O     O_3   0.011710 0.389679 0.727078 -0.573626
C125  C     C_3   0.060022 0.351933 0.711418 -0.306302
H45   H     H_    0.101955 0.378873 0.702448 0.162731
H46   H     H_    0.044149 0.323663 0.683136 0.170205
H47   H     H_    0.073434 0.319602 0.738036 0.182565
O54   O     O_3   0.389606 0.989005 0.727084 -0.573633
C126  C     C_3   0.351524 0.940966 0.711412 -0.306342
H48   H     H_    0.319110 0.927757 0.738031 0.182502
H49   H     H_    0.378171 0.898855 0.702422 0.162863
H50   H     H_    0.323354 0.957055 0.683141 0.170153
O55   O     O_3   0.988293 0.610320 0.727079 -0.573626
C127  C     C_3   0.939986 0.648070 0.711417 -0.306301
H51   H     H_    0.898052 0.621133 0.702444 0.162728
H52   H     H_    0.955864 0.676340 0.683136 0.170205
H53   H     H_    0.926574 0.680400 0.738036 0.182567
O56   O     O_3   0.610392 0.010996 0.727084 -0.573634
C128  C     C_3   0.648477 0.059033 0.711410 -0.306345
H54   H     H_    0.621831 0.101144 0.702418 0.162862
H55   H     H_    0.676647 0.042941 0.683141 0.170154
H56   H     H_    0.680890 0.072243 0.738030 0.182502
O57   O     O_3   0.510996 0.110393 0.772916 -0.573632
C129  C     C_3   0.559036 0.148475 0.788587 -0.306397
H57   H     H_    0.601147 0.121827 0.797577 0.162878
H58   H     H_    0.542949 0.176646 0.816858 0.170134
H59   H     H_    0.572245 0.180889 0.761968 0.182488
O58   O     O_3   0.889539 0.510261 0.772910 -0.573638
C130  C     C_3   0.851119 0.558023 0.788591 -0.306477
H60   H     H_    0.877470 0.600314 0.797599 0.163010
H61   H     H_    0.823053 0.541719 0.816852 0.170095
H62   H     H_    0.818621 0.571022 0.761971 0.182438
O59   O     O_3   0.489002 0.889608 0.772916 -0.573632
C131  C     C_3   0.440965 0.851524 0.788589 -0.306403
H63   H     H_    0.427754 0.819111 0.761970 0.182489
H64   H     H_    0.398854 0.878172 0.797581 0.162876
H65   H     H_    0.457054 0.823354 0.816859 0.170136
O60   O     O_3   0.110463 0.489737 0.772911 -0.573638
C132  C     C_3   0.148882 0.441973 0.788591 -0.306483
H66   H     H_    0.122529 0.399682 0.797596 0.163014
H67   H     H_    0.176946 0.458274 0.816854 0.170096
H68   H     H_    0.181381 0.428976 0.761972 0.182437
O61   O     O_3   0.510990 0.889606 0.227084 -0.573632
C133  C     C_3   0.559029 0.851522 0.211413 -0.306349
H69   H     H_    0.601142 0.878169 0.202424 0.162874
H70   H     H_    0.542942 0.823353 0.183142 0.170140
H71   H     H_    0.572236 0.819108 0.238033 0.182498
O62   O     O_3   0.110356 0.511354 0.227082 -0.573635
C134  C     C_3   0.148283 0.559514 0.211406 -0.306288
H72   H     H_    0.180648 0.572838 0.238027 0.182510
H73   H     H_    0.121499 0.601536 0.202407 0.162807
H74   H     H_    0.176511 0.543512 0.183140 0.170163
O63   O     O_3   0.489010 0.110393 0.227085 -0.573636
C135  C     C_3   0.440982 0.148485 0.211407 -0.306369
H75   H     H_    0.398869 0.121846 0.202409 0.162865
H76   H     H_    0.457084 0.176657 0.183141 0.170149
H77   H     H_    0.427770 0.180898 0.238027 0.182496
O64   O     O_3   0.889641 0.488651 0.227082 -0.573636
C136  C     C_3   0.851711 0.440493 0.211407 -0.306298
H78   H     H_    0.878492 0.398468 0.202414 0.162815
H79   H     H_    0.823490 0.456495 0.183138 0.170160
H80   H     H_    0.819340 0.427178 0.238026 0.182513
O65   O     O_3   0.186050 0.439832 0.567288 -0.565987
C137  C     C_3   0.177837 0.480317 0.603119 -0.299613
H81   H     H_    0.150486 0.521619 0.593487 0.150922
H82   H     H_    0.222906 0.494506 0.617421 0.164178
H83   H     H_    0.151638 0.455878 0.629192 0.191542
O66   O     O_3   0.439846 0.813951 0.567293 -0.565979
C138  C     C_3   0.480343 0.822176 0.603115 -0.299380
H84   H     H_    0.521642 0.849525 0.593472 0.150809
H85   H     H_    0.494536 0.777112 0.617423 0.164190
H86   H     H_    0.455913 0.848385 0.629188 0.191724
O67   O     O_3   0.813949 0.560172 0.567286 -0.565986
C139  C     C_3   0.822163 0.519689 0.603117 -0.299607
H87   H     H_    0.849515 0.478387 0.593487 0.150920
H88   H     H_    0.777094 0.505499 0.617420 0.164178
H89   H     H_    0.848362 0.544128 0.629190 0.191540
O68   O     O_3   0.560150 0.186048 0.567295 -0.565981
C140  C     C_3   0.519651 0.177823 0.603116 -0.299380
H90   H     H_    0.478353 0.150475 0.593472 0.150810
H91   H     H_    0.505457 0.222887 0.617423 0.164190
H92   H     H_    0.544079 0.151614 0.629189 0.191725
O69   O     O_3   0.186049 0.560160 0.432711 -0.565976
C141  C     C_3   0.177814 0.519664 0.396890 -0.299249
H93   H     H_    0.150466 0.478366 0.406535 0.150749
H94   H     H_    0.222875 0.505468 0.382578 0.164208
H95   H     H_    0.151601 0.544094 0.370819 0.191798
O70   O     O_3   0.439850 0.186049 0.432705 -0.565989
C142  C     C_3   0.480350 0.177820 0.396886 -0.299364
H96   H     H_    0.521646 0.150469 0.406531 0.150807
H97   H     H_    0.494549 0.222883 0.382578 0.164205
H98   H     H_    0.455922 0.151612 0.370812 0.191719
O71   O     O_3   0.813952 0.439836 0.432713 -0.565974
C143  C     C_3   0.822185 0.480330 0.396890 -0.299248
H99   H     H_    0.849533 0.521629 0.406534 0.150749
H100  H     H_    0.777124 0.494524 0.382578 0.164207
H101  H     H_    0.848399 0.455899 0.370820 0.191796
O72   O     O_3   0.560154 0.813951 0.432707 -0.565988
C144  C     C_3   0.519656 0.822180 0.396885 -0.299363
H102  H     H_    0.478359 0.849530 0.406530 0.150808
H103  H     H_    0.505460 0.777117 0.382578 0.164205
H104  H     H_    0.544086 0.848388 0.370812 0.191719
O73   O     O_3   0.686048 0.939851 0.067296 -0.565986
C145  C     C_3   0.677819 0.980352 0.103115 -0.299372
H105  H     H_    0.650469 0.021648 0.093469 0.150806
H106  H     H_    0.722882 0.994550 0.117422 0.164196
H107  H     H_    0.651611 0.955924 0.129189 0.191726
O74   O     O_3   0.939874 0.313951 0.067306 -0.566005
C146  C     C_3   0.980382 0.322168 0.103123 -0.299512
H108  H     H_    0.021678 0.349517 0.093476 0.150875
H109  H     H_    0.994579 0.277101 0.117424 0.164198
H110  H     H_    0.955961 0.348372 0.129202 0.191651
O75   O     O_3   0.313951 0.060150 0.067295 -0.565986
C147  C     C_3   0.322181 0.019649 0.103114 -0.299372
H111  H     H_    0.349532 0.978354 0.093468 0.150805
H112  H     H_    0.277118 0.005449 0.117422 0.164197
H113  H     H_    0.348389 0.044077 0.129188 0.191726
O76   O     O_3   0.060137 0.686048 0.067302 -0.566001
C148  C     C_3   0.019634 0.677832 0.103122 -0.299504
H114  H     H_    0.978336 0.650483 0.093478 0.150871
H115  H     H_    0.005441 0.722899 0.117424 0.164196
H116  H     H_    0.044059 0.651627 0.129199 0.191644
O77   O     O_3   0.686049 0.060149 0.932705 -0.565995
C149  C     C_3   0.677823 0.019649 0.896884 -0.299362
H117  H     H_    0.650474 0.978351 0.906529 0.150810
H118  H     H_    0.722887 0.005454 0.882577 0.164212
H119  H     H_    0.651614 0.044077 0.870811 0.191721
O78   O     O_3   0.939872 0.686048 0.932696 -0.565987
C150  C     C_3   0.980391 0.677802 0.896889 -0.299120
H120  H     H_    0.021680 0.650452 0.906550 0.150690
H121  H     H_    0.994600 0.722859 0.882577 0.164222
H122  H     H_    0.955974 0.651585 0.870814 0.191906
O79   O     O_3   0.313951 0.939850 0.932705 -0.565994
C151  C     C_3   0.322177 0.980349 0.896884 -0.299362
H123  H     H_    0.349525 0.021648 0.906528 0.150810
H124  H     H_    0.277113 0.994543 0.882577 0.164212
H125  H     H_    0.348386 0.955921 0.870811 0.191721
O80   O     O_3   0.060118 0.313953 0.932691 -0.565992
C152  C     C_3   0.019594 0.322199 0.896887 -0.299127
H126  H     H_    0.978306 0.349548 0.906551 0.150695
H127  H     H_    0.005383 0.277141 0.882577 0.164224
H128  H     H_    0.044006 0.348416 0.870810 0.191911

loop_
_geom_bond_atom_site_label_1
_geom_bond_atom_site_label_2
_ccdc_geom_bond_type
C37   C69   A    
C76   O52   S    
O51   C123  S    
C7    C55   S    
C53   C69   A    
C8    C56   S    
O73   C145  S    
C41   C105  S    
C14   C21   S    
C47   O31   A    
C135  H75   S    
C88   O64   S    
C90   H2    S    
C45   C109  S    
C21   C33   A    
C74   C114  A    
C81   C117  A    
C127  H51   S    
C133  H69   S    
C13   O47   A    
Cu3   O19   S    
C58   O66   S    
Cu4   O4    S    
C45   O27   A    
C139  H89   S    
C80   C116  A    
C143  H99   S    
Cu2   O6    S    
Cu5   O15   S    
C70   O78   S    
Cu8   O16   S    
C79   O55   S    
Cu10  O38   S    
C152  H128  S    
C140  H91   S    
C96   C108  A    
C78   O54   S    
C82   C98   A    
C125  H46   S    
C6    C54   S    
O52   C124  S    
O71   C143  S    
C84   C100  A    
C100  H12   S    
C20   C28   A    
C141  H93   S    
C38   H30   S    
C4    O4    A    
C125  H47   S    
Cu3   O21   S    
C124  H42   S    
C71   O79   S    
Cu1   O23   S    
C113  C120  S    
O67   C139  S    
Cu4   O8    S    
C43   O23   A    
C115  C118  S    
C10   O38   A    
C87   C103  A    
C92   C106  A    
C132  H67   S    
O66   C138  S    
C82   C118  A    
C37   H29   S    
C104  C112  A    
C99   H11   S    
C47   O29   A    
C135  H77   S    
Cu12  O45   S    
C130  H61   S    
C36   C68   A    
C95   H7    S    
C127  H53   S    
C17   C25   A    
C83   C117  A    
C145  H107  S    
C74   C90   A    
C78   C94   A    
C143  H101  S    
C47   C111  S    
O76   C148  S    
Cu6   O14   S    
C134  H73   S    
Cu1   Cu3   S    
C30   H22   S    
C150  H120  S    
Cu5   Cu7   S    
C39   C71   A    
C73   O49   S    
C81   O57   S    
C77   C115  A    
Cu9   O33   S    
C142  H97   S    
C11   C18   S    
C148  H114  S    
C79   C115  A    
C82   O58   S    
C91   C105  A    
C83   O59   S    
Cu11  O43   S    
C34   C66   A    
C103  H15   S    
C20   C30   A    
C101  H13   S    
C128  H54   S    
C24   C36   A    
C4    O6    A    
Cu4   O20   S    
C124  H44   S    
Cu7   O29   S    
O57   C129  S    
C121  H34   S    
Cu2   O22   S    
C122  H37   S    
C43   O21   A    
C49   C57   A    
C151  H123  S    
C25   H17   S    
C85   C119  A    
C52   C60   A    
C32   H24   S    
C131  H63   S    
C129  H58   S    
C75   C113  A    
C53   C65   A    
O53   C125  S    
C67   O75   S    
C114  C119  S    
C75   C91   A    
C139  H88   S    
C98   H10   S    
C144  H103  S    
Cu12  O47   S    
C25   C57   A    
C88   C104  A    
C11   O35   A    
C9    O33   A    
C59   O67   S    
C28   C60   A    
C22   C34   A    
C29   C61   A    
C89   H1    S    
C31   C63   A    
C32   C64   A    
Cu4   O24   S    
C145  H105  S    
C129  H59   S    
C42   O20   A    
C56   C68   A    
Cu7   O27   S    
Cu8   O28   S    
C87   C119  A    
O65   C137  S    
C97   C109  A    
C35   C67   A    
C134  H72   S    
C74   O50   S    
C136  H78   S    
C12   O36   A    
C21   C37   A    
C126  H49   S    
Cu9   O35   S    
C48   C112  S    
C76   C92   A    
C16   C23   S    
Cu2   Cu4   S    
Cu11  O41   S    
Cu9   Cu10  S    
Cu1   O7    S    
C128  H56   S    
Cu6   Cu8   S    
C40   C72   A    
C6    O16   A    
C5    O9    A    
C78   C116  A    
O72   C144  S    
Cu6   O10   S    
C96   H8    S    
C8    O12   A    
C54   C66   A    
C148  H116  S    
Cu1   O1    S    
C56   C70   A    
C151  H125  S    
C135  H76   S    
O58   C130  S    
C52   C62   A    
C122  H38   S    
C131  H65   S    
C127  H52   S    
C150  H122  S    
C133  H70   S    
C12   O40   A    
C138  H86   S    
C63   O71   S    
C146  H110  S    
C147  H111  S    
C143  H100  S    
C149  H117  S    
C89   C105  A    
O63   C135  S    
O62   C134  S    
C86   C120  A    
C15   O43   A    
Cu10  O39   S    
C2    O8    A    
C152  H127  S    
C86   C102  A    
C38   C70   A    
C100  C110  A    
C98   C110  A    
C133  H71   S    
C17   C29   A    
C104  H16   S    
C102  C112  A    
C126  H48   S    
C18   C26   A    
C19   C31   A    
C123  H39   S    
O77   C149  S    
C85   C101  A    
O59   C131  S    
O49   C121  S    
C42   O18   A    
C137  H81   S    
C141  H94   S    
O55   C127  S    
C99   C109  A    
C136  H80   S    
C73   C113  A    
C84   O60   S    
C103  C111  A    
O80   C152  S    
C15   C22   S    
O79   C151  S    
C80   O56   S    
C88   C120  A    
C2    O2    A    
C141  H95   S    
C61   O69   S    
C83   C99   A    
C132  H66   S    
C41   O17   A    
C92   H4    S    
C68   O76   S    
C33   H25   S    
C64   O72   S    
Cu7   O11   S    
Cu8   O12   S    
C49   C61   A    
C3    O3    A    
C50   C58   A    
C26   H18   S    
C51   C63   A    
C90   C106  A    
C137  H83   S    
C122  H36   S    
C14   O42   A    
C3    C51   S    
Cu7   O13   S    
C138  H84   S    
C72   O80   S    
C79   C95   A    
C129  H57   S    
Cu6   O30   S    
C9    C20   S    
C146  H108  S    
C147  H113  S    
Cu12  O46   S    
C43   C107  S    
C26   C58   A    
C97   H9    S    
Cu10  O37   S    
C95   C107  A    
C23   C35   A    
C30   C62   A    
C94   H6    S    
C13   O41   A    
C18   C32   A    
C125  H45   S    
C39   H31   S    
Cu11  Cu12  S    
C123  H41   S    
O56   C128  S    
Cu1   O17   S    
O54   C126  S    
C27   H19   S    
C48   O30   A    
C46   O28   A    
C31   H23   S    
C40   H32   S    
C101  C111  A    
C6    O10   A    
C73   C89   A    
C124  H43   S    
O69   C141  S    
C12   C19   S    
C77   C93   A    
C151  H124  S    
C87   O63   S    
C65   O73   S    
C142  H96   S    
C91   H3    S    
O60   C132  S    
C131  H64   S    
C132  H68   S    
Cu5   O31   S    
C41   O19   A    
C102  H14   S    
C44   O22   A    
O75   C147  S    
Cu2   O2    S    
C66   O74   S    
C50   C64   A    
C144  H102  S    
Cu12  O48   S    
C130  H62   S    
Cu5   O9    S    
C33   C65   A    
C140  H90   S    
C94   C108  A    
C4    C52   S    
C5    C53   S    
C145  H106  S    
C10   C17   S    
C116  C117  S    
Cu6   O26   S    
C11   O37   A    
C134  H74   S    
C9    O39   A    
C85   O61   S    
C7    O11   A    
C24   C38   A    
C55   C71   A    
C80   C96   A    
C2    C50   S    
Cu9   O34   S    
Cu3   O3    S    
C86   O62   S    
C142  H98   S    
C75   O51   S    
C148  H115  S    
C48   O32   A    
C46   O26   A    
Cu11  O44   S    
C10   O34   A    
C19   C27   A    
C44   C108  S    
C128  H55   S    
C14   O46   A    
C16   O48   A    
C93   H5    S    
C121  H33   S    
C13   C24   S    
C69   O77   S    
O70   C142  S    
C60   O68   S    
C42   C106  S    
C76   C114  A    
C1    O1    A    
C22   C40   A    
C77   O53   S    
O61   C133  S    
C7    O15   A    
C150  H121  S    
C138  H85   S    
C5    O13   A    
Cu3   O5    S    
C44   O24   A    
C34   H26   S    
C45   O25   A    
C139  H87   S    
C146  H109  S    
C147  H112  S    
C28   H20   S    
C149  H118  S    
C84   C118  A    
C144  H104  S    
C51   C59   A    
C130  H60   S    
Cu10  O40   S    
O68   C140  S    
C29   H21   S    
C152  H126  S    
C140  H92   S    
Cu8   O32   S    
C16   O44   A    
C121  H35   S    
C123  H40   S    
C55   C67   A    
C149  H119  S    
O64   C136  S    
C46   C110  S    
C15   O45   A    
C27   C59   A    
C93   C107  A    
C137  H82   S    
C3    O7    A    
O50   C122  S    
C81   C97   A    
C23   C39   A    
C1    O5    A    
C136  H79   S    
C126  H50   S    
O78   C150  S    
C35   H27   S    
Cu9   O36   S    
C57   O65   S    
C36   H28   S    
C8    O14   A    
Cu2   O18   S    
C54   C72   A    
C62   O70   S    
O74   C146  S    
Cu5   O25   S    
Cu11  O42   S    
C1    C49   S    
