data_mof_unit_33536.cif
_audit_creation_date              2012-12-10T20:31:07-0500
_audit_creation_method            fapswitch 2.2
_symmetry_space_group_name_H-M    P1
_symmetry_Int_Tables_number       1
_space_group_crystal_system       triclinic
_cell_length_a                    14.964872
_cell_length_b                    10.652384
_cell_length_c                    9.871479
_cell_angle_alpha                 89.938893
_cell_angle_beta                  89.956373
_cell_angle_gamma                 90.023971
_cell_volume                      1573.62640765

loop_
_atom_site_label
_atom_site_type_symbol
_atom_type_description
_atom_site_fract_x
_atom_site_fract_y
_atom_site_fract_z
_atom_type_partial_charge
C1    C     C_R   0.506313 0.260418 0.500158 0.911971
C2    C     C_R   0.185376 0.442322 0.606928 -0.273115
C3    C     C_R   0.231034 0.498672 0.499591 -0.062398
C4    C     C_R   0.326759 0.499622 0.499988 0.885026
C5    C     C_R   0.185497 0.553540 0.391306 -0.267081
C6    C     C_R   0.498578 0.064253 0.619967 0.140584
C7    C     C_R   0.523356 0.129037 0.503253 -0.196299
C8    C     C_R   0.562753 0.063321 0.393453 -0.051951
C9    C     C_R   0.555567 0.932831 0.392782 -0.270826
C10   C     C_R   0.514571 0.871561 0.502052 -0.132115
C11   C     C_R   0.494978 0.936830 0.619778 0.151572
C12   C     C_R   0.907102 0.550760 0.388439 0.118287
C13   C     C_3   0.412968 0.933428 0.706178 -0.478129
C14   C     C_3   0.416861 0.075682 0.706582 -0.475602
C15   C     C_R   0.422773 0.518858 0.071364 0.213980
C16   C     C_R   0.501723 0.740026 0.500020 0.886623
C17   C     C_R   0.577639 0.489251 0.071763 -0.109070
C18   C     C_R   0.577632 0.489192 0.928048 -0.134977
C19   C     C_R   0.422827 0.519451 0.928826 0.226675
C20   C     C_3   0.340763 0.440416 0.923096 -0.523324
C21   C     C_3   0.341248 0.438506 0.076588 -0.494159
C22   C     C_R   0.673247 0.499840 0.499912 0.916192
C23   C     C_R   0.953432 0.390343 0.717707 -0.213623
C24   C     C_R   0.814648 0.550239 0.389231 -0.245892
C25   C     C_R   0.768968 0.498885 0.499562 -0.050371
C26   C     C_R   0.814458 0.446316 0.609277 -0.251945
C27   C     C_R   0.906928 0.444325 0.609313 0.118510
C28   C     C_R   0.953509 0.497358 0.498783 0.058079
C29   C     C_2   0.610235 0.125515 0.279547 0.937129
C30   C     C_R   0.046311 0.388931 0.716891 -0.219428
C31   C     C_R   0.092920 0.442480 0.608242 0.122249
C32   C     C_R   0.046482 0.497286 0.498753 0.062046
C33   C     C_R   0.093062 0.552239 0.389346 0.121063
C34   C     C_R   0.046614 0.605316 0.280418 -0.218755
C35   C     C_R   0.953749 0.604133 0.279712 -0.211980
H1    H     H_    0.778217 0.591431 0.305224 0.149372
H2    H     H_    0.352892 0.346879 0.876606 0.211897
H3    H     H_    0.283157 0.488349 0.121165 0.199610
H4    H     H_    0.777863 0.405634 0.693505 0.149918
H5    H     H_    0.354643 0.344014 0.120100 0.220564
H6    H     H_    0.918015 0.349279 0.802707 0.150205
H7    H     H_    0.081657 0.346826 0.801270 0.150554
H8    H     H_    0.221787 0.397055 0.688176 0.148962
H9    H     H_    0.222010 0.598541 0.309725 0.147914
H10   H     H_    0.082067 0.647365 0.196007 0.147273
H11   H     H_    0.918451 0.645298 0.194760 0.149501
H12   H     H_    0.580580 0.879519 0.307277 0.200672
H13   H     H_    0.641869 0.123626 0.080818 0.337927
H14   H     H_    0.353819 0.895133 0.651942 0.196997
H15   H     H_    0.426080 0.891167 0.807251 0.215902
H16   H     H_    0.359884 0.120449 0.652718 0.193958
H17   H     H_    0.432200 0.115674 0.807932 0.216206
H18   H     H_    0.640157 0.478691 0.125318 0.168181
H19   H     H_    0.640149 0.478553 0.874411 0.152090
H20   H     H_    0.283116 0.493313 0.881126 0.203202
N1    N     N_R   0.499390 0.499140 0.142800 -0.108824
N2    N     N_R   0.499390 0.499180 0.857150 -0.108806
O1    O     O_R   0.500010 0.316790 0.614690 -0.618303
O2    O     O_R   0.606443 0.073399 0.149704 -0.819961
O3    O     O_R   0.500000 0.316760 0.385350 -0.595169
O4    O     O_R   0.367850 0.499990 0.614680 -0.625283
O5    O     O_R   0.367840 0.499950 0.385340 -0.625823
O6    O     O_R   0.500000 0.683240 0.614650 -0.612879
O7    O     O_R   0.499990 0.683210 0.385310 -0.623563
O8    O     O_R   0.632160 0.500050 0.614660 -0.641653
O9    O     O_R   0.632150 0.500010 0.385320 -0.608328
O10   O     O_2   0.655175 0.219562 0.299738 -0.631114
Zn1   Zn    Zn3+2 0.500010 0.500020 0.653130 0.948243
Zn2   Zn    Zn3+2 0.499990 0.499980 0.346870 0.971610

loop_
_geom_bond_atom_site_label_1
_geom_bond_atom_site_label_2
_ccdc_geom_bond_type
C2    C31   A    
C24   C25   A    
C22   O8    A    
C9    H12   S    
C6    C7    A    
C16   O6    A    
C23   C27   A    
C6    C14   S    
C9    C10   A    
C12   C24   A    
C18   N2    A    
C31   C32   A    
C23   H6    S    
C28   C32   A    
C2    H8    S    
C4    O5    A    
C32   C33   A    
O8    Zn1   S    
C2    C3    A    
C7    C8    A    
C34   H10   S    
C10   C16   S    
O7    Zn2   S    
C15   N1    A    
C12   C35   A    
C15   C19   A    
C20   H2    S    
C11   C13   S    
C17   N1    A    
C26   C27   A    
C24   H1    S    
C21   H5    S    
C1    O1    A    
O3    Zn2   S    
C12   C28   A    
C20   H20   S    
C13   H14   S    
C8    C29   S    
O1    Zn1   S    
C13   H15   S    
C5    H9    S    
C33   C34   A    
C17   C18   A    
C6    C11   A    
C14   H16   S    
C30   C31   A    
C14   H17   S    
C26   H4    S    
O9    Zn2   S    
C10   C11   A    
C18   H19   S    
N2    Zn1   S    
C3    C4    S    
C23   C30   A    
C17   H18   S    
C15   C21   S    
C20   C21   S    
C22   C25   S    
H13   O2    S    
C34   C35   A    
C1    O3    A    
C27   C28   A    
N1    Zn2   S    
O4    Zn1   S    
O6    Zn1   S    
C22   O9    A    
C29   O10   D    
C16   O7    A    
C13   C14   S    
C25   C26   A    
C1    C7    S    
C35   H11   S    
C4    O4    A    
C19   N2    A    
C30   H7    S    
C21   H3    S    
C19   C20   S    
O5    Zn2   S    
C8    C9    A    
C3    C5    A    
C29   O2    S    
C5    C33   A    
