data_mof_unit_66361.cif
_audit_creation_date              2012-12-10T19:03:15-0500
_audit_creation_method            fapswitch 2.2
_symmetry_space_group_name_H-M    P1
_symmetry_Int_Tables_number       1
_space_group_crystal_system       triclinic
_cell_length_a                    34.511397
_cell_length_b                    24.428729
_cell_length_c                    24.36567
_cell_angle_alpha                 90.000014
_cell_angle_beta                  89.999799
_cell_angle_gamma                 89.999904
_cell_volume                      20541.954801

loop_
_atom_site_label
_atom_site_type_symbol
_atom_type_description
_atom_site_fract_x
_atom_site_fract_y
_atom_site_fract_z
_atom_type_partial_charge
C1    C     C_R   0.750084 0.605107 0.394906 0.793713
C2    C     C_R   0.749992 0.894972 0.105171 0.792154
C3    C     C_R   0.458405 0.546652 0.517192 -0.177772
C4    C     C_R   0.041594 0.046641 0.982814 -0.176447
C5    C     C_R   0.958410 0.953337 0.982882 -0.174742
C6    C     C_R   0.041596 0.953365 0.017217 -0.176164
C7    C     C_R   0.958407 0.046664 0.017143 -0.176130
C8    C     C_R   0.581810 0.546784 0.483225 -0.188977
C9    C     C_R   0.418193 0.453219 0.483228 -0.181886
C10   C     C_R   0.581812 0.453221 0.516803 -0.188475
C11   C     C_R   0.418189 0.546782 0.516807 -0.185147
C12   C     C_R   0.081811 0.046771 0.983187 -0.187340
C13   C     C_R   0.250085 0.894892 0.105092 0.791830
C14   C     C_R   0.918193 0.953206 0.983255 -0.181176
C15   C     C_R   0.081812 0.953233 0.016835 -0.184622
C16   C     C_R   0.918191 0.046795 0.016761 -0.181266
C17   C     C_R   0.602081 0.500001 0.500008 0.004443
C18   C     C_R   0.397920 0.500001 0.500012 0.002657
C19   C     C_R   0.102082 0.000001 0.000008 0.003784
C20   C     C_R   0.897921 0.000000 0.000005 0.000540
C21   C     C_R   0.521223 0.500004 0.500027 0.113406
C22   C     C_R   0.478778 0.500002 0.500027 0.112240
C23   C     C_R   0.021224 0.000003 0.000016 0.113105
C24   C     C_R   0.749992 0.105028 0.894829 0.792354
C25   C     C_R   0.978780 0.000001 0.000015 0.111070
C26   C     C_R   0.644262 0.500000 0.500001 0.783270
C27   C     C_R   0.355739 0.500000 0.500003 0.789367
C28   C     C_R   0.144262 0.000000 0.000002 0.785960
C29   C     C_R   0.855739 0.000000 0.000000 0.791957
C30   C     C_R   0.855962 0.500002 0.500000 0.818847
C31   C     C_R   0.144036 0.500007 0.500000 0.819121
C32   C     C_R   0.355962 0.000007 0.000000 0.818520
C33   C     C_R   0.644037 0.000002 0.000000 0.818878
C34   C     C_R   0.081144 0.500159 0.549901 -0.249893
C35   C     C_R   0.749994 0.894973 0.894828 0.791522
C36   C     C_R   0.918852 0.499904 0.450103 -0.250096
C37   C     C_R   0.081144 0.499913 0.450105 -0.249264
C38   C     C_R   0.918852 0.500140 0.549900 -0.249767
C39   C     C_R   0.581144 0.999907 0.049900 -0.250282
C40   C     C_R   0.418853 0.000156 0.950104 -0.250426
C41   C     C_R   0.581143 0.000136 0.950104 -0.250660
C42   C     C_R   0.418852 0.999916 0.049901 -0.251006
C43   C     C_R   0.101513 0.500026 0.500002 -0.048138
C44   C     C_R   0.898484 0.500014 0.500001 -0.047361
C45   C     C_R   0.601512 0.000014 0.000001 -0.048308
C46   C     C_R   0.250086 0.105109 0.105092 0.794471
C47   C     C_R   0.398485 0.000026 0.000002 -0.047536
C48   C     C_R   0.040685 0.499919 0.449761 0.109955
C49   C     C_R   0.959310 0.500155 0.550244 0.110317
C50   C     C_R   0.040685 0.500167 0.550245 0.109974
C51   C     C_R   0.959311 0.499912 0.449760 0.110683
C52   C     C_R   0.540685 0.000152 0.949761 0.110137
C53   C     C_R   0.459310 0.999922 0.050245 0.110443
C54   C     C_R   0.540685 0.999916 0.050244 0.109751
C55   C     C_R   0.459311 0.000164 0.949761 0.110446
C56   C     C_R   0.020354 0.500043 0.500003 0.063192
C57   C     C_R   0.749993 0.105027 0.105172 0.791537
C58   C     C_R   0.979641 0.500038 0.500003 0.063223
C59   C     C_R   0.520354 0.000038 0.000003 0.062986
C60   C     C_R   0.479641 0.000043 0.000003 0.062994
C61   C     C_R   0.020218 0.499798 0.400048 -0.209556
C62   C     C_R   0.979777 0.500285 0.599958 -0.208388
C63   C     C_R   0.020217 0.500292 0.599958 -0.208661
C64   C     C_R   0.979778 0.499795 0.400047 -0.209095
C65   C     C_R   0.520218 0.000278 0.900048 -0.211049
C66   C     C_R   0.479777 0.999805 0.099958 -0.209737
C67   C     C_R   0.520217 0.999802 0.099958 -0.210298
C68   C     C_R   0.250011 0.894968 0.894832 0.794630
C69   C     C_R   0.479778 0.000285 0.900048 -0.210670
C70   C     C_R   0.785942 0.300533 0.716054 0.024547
C71   C     C_R   0.241461 0.671904 0.256266 0.023884
C72   C     C_R   0.785943 0.699467 0.283947 0.024545
C73   C     C_R   0.241395 0.328005 0.743677 0.022850
C74   C     C_R   0.214079 0.699443 0.716079 0.024001
C75   C     C_R   0.785960 0.300528 0.283957 0.024949
C76   C     C_R   0.241487 0.328100 0.256265 0.022918
C77   C     C_R   0.785960 0.699471 0.716043 0.024500
C78   C     C_R   0.285955 0.800510 0.216025 0.024540
C79   C     C_R   0.784807 0.342017 0.676691 -0.226174
C80   C     C_R   0.741461 0.171918 0.756276 0.022656
C81   C     C_R   0.285908 0.199420 0.783892 0.024913
C82   C     C_R   0.741460 0.828082 0.243724 0.022647
C83   C     C_R   0.741486 0.171900 0.243735 0.022546
C84   C     C_R   0.258605 0.828019 0.756313 0.024680
C85   C     C_R   0.741488 0.828100 0.756264 0.022622
C86   C     C_R   0.285960 0.199471 0.216043 0.024938
C87   C     C_1   0.822205 0.289423 0.743485 0.145759
C88   C     C_1   0.233061 0.655014 0.200711 0.146113
C89   C     C_1   0.822206 0.710579 0.256516 0.145785
C90   C     C_R   0.240406 0.632630 0.297850 -0.226591
C91   C     C_1   0.232978 0.344864 0.799237 0.146640
C92   C     C_1   0.177814 0.710577 0.743494 0.146018
C93   C     C_1   0.822224 0.289426 0.256525 0.145216
C94   C     C_1   0.233106 0.344993 0.200705 0.147009
C95   C     C_1   0.822224 0.710571 0.743477 0.145999
C96   C     C_1   0.322222 0.789390 0.243442 0.144699
C97   C     C_1   0.733071 0.155031 0.700717 0.147973
C98   C     C_1   0.322170 0.210544 0.756462 0.145099
C99   C     C_1   0.733069 0.844968 0.299283 0.147953
C100  C     C_1   0.733104 0.155008 0.299295 0.147891
C101  C     C_R   0.784808 0.657984 0.323309 -0.226105
C102  C     C_1   0.267033 0.844881 0.700757 0.144324
C103  C     C_1   0.733107 0.844993 0.700705 0.147841
C104  C     C_1   0.322223 0.210571 0.243477 0.145048
C105  C     C_R   0.249988 0.394966 0.605166 0.792560
C106  C     C_R   0.240355 0.367302 0.702117 -0.226705
C107  C     C_R   0.215204 0.657975 0.676700 -0.226688
C108  C     C_R   0.784819 0.342016 0.323315 -0.226227
C109  C     C_R   0.240426 0.367374 0.297847 -0.226846
C110  C     C_R   0.784818 0.657982 0.676686 -0.225923
C111  C     C_R   0.284816 0.842001 0.176670 -0.226989
C112  C     C_R   0.740409 0.132639 0.797854 -0.226373
C113  C     C_R   0.284787 0.157959 0.823278 -0.226679
C114  C     C_R   0.740408 0.867361 0.202146 -0.226448
C115  C     C_R   0.740425 0.132626 0.202153 -0.226529
C116  C     C_R   0.750084 0.394893 0.605094 0.793521
C117  C     C_R   0.259648 0.867311 0.797878 -0.227408
C118  C     C_R   0.740427 0.867374 0.797847 -0.226684
C119  C     C_R   0.284818 0.157982 0.176685 -0.226014
C120  C     C_R   0.750732 0.352149 0.647072 -0.013463
C121  C     C_R   0.250376 0.646726 0.351802 -0.015243
C122  C     C_R   0.750732 0.647851 0.352928 -0.013483
C123  C     C_R   0.250349 0.353240 0.648165 -0.013841
C124  C     C_R   0.249281 0.647829 0.647088 -0.013676
C125  C     C_R   0.750741 0.352141 0.352935 -0.014331
C126  C     C_R   0.250379 0.353274 0.351804 -0.013430
C127  C     C_R   0.249993 0.605027 0.394827 0.794373
C128  C     C_R   0.750741 0.647859 0.647065 -0.014163
C129  C     C_R   0.250737 0.852142 0.147064 -0.013713
C130  C     C_R   0.750370 0.146733 0.851810 -0.013177
C131  C     C_R   0.250714 0.147823 0.852904 -0.013760
C132  C     C_R   0.750370 0.853267 0.148190 -0.013179
C133  C     C_R   0.750379 0.146726 0.148196 -0.013257
C134  C     C_R   0.249645 0.853247 0.851826 -0.015856
C135  C     C_R   0.750380 0.853274 0.851804 -0.013248
C136  C     C_R   0.250741 0.147859 0.147065 -0.014379
C137  C     C_R   0.717487 0.320985 0.657424 -0.183749
C138  C     C_R   0.249994 0.394973 0.394828 0.791624
C139  C     C_R   0.261004 0.700609 0.364269 -0.182626
C140  C     C_R   0.717487 0.679014 0.342575 -0.183695
C141  C     C_R   0.260976 0.299362 0.635672 -0.185351
C142  C     C_R   0.282538 0.678953 0.657472 -0.186498
C143  C     C_R   0.717503 0.320962 0.342589 -0.182684
C144  C     C_R   0.260997 0.299388 0.364278 -0.186571
C145  C     C_R   0.717504 0.679040 0.657410 -0.183054
C146  C     C_R   0.217492 0.820979 0.157420 -0.186089
C147  C     C_R   0.760985 0.200619 0.864287 -0.185561
C148  C     C_R   0.217457 0.178948 0.842524 -0.183101
C149  C     C_R   0.750086 0.605109 0.605092 0.794304
C150  C     C_R   0.760986 0.799382 0.135713 -0.185611
C151  C     C_R   0.760998 0.200611 0.135722 -0.186938
C152  C     C_R   0.239004 0.799371 0.864309 -0.182018
C153  C     C_R   0.760997 0.799388 0.864278 -0.186770
C154  C     C_R   0.217504 0.179040 0.157410 -0.182631
C155  C     C_R   0.718110 0.280504 0.697535 -0.168777
C156  C     C_R   0.261186 0.740270 0.323336 -0.166986
C157  C     C_R   0.718110 0.719495 0.302464 -0.168756
C158  C     C_R   0.261141 0.259675 0.676582 -0.167724
C159  C     C_R   0.281926 0.719415 0.697602 -0.167550
C160  C     C_R   0.249918 0.605103 0.605096 0.791706
C161  C     C_R   0.718132 0.280477 0.302483 -0.168614
C162  C     C_R   0.261184 0.259727 0.323345 -0.167979
C163  C     C_R   0.718133 0.719525 0.697516 -0.169040
C164  C     C_R   0.218118 0.780492 0.197524 -0.167812
C165  C     C_R   0.761163 0.240285 0.823359 -0.168742
C166  C     C_R   0.218066 0.219404 0.802388 -0.167589
C167  C     C_R   0.761165 0.759715 0.176641 -0.168760
C168  C     C_R   0.761185 0.240273 0.176655 -0.168640
C169  C     C_R   0.238837 0.759690 0.823395 -0.166724
C170  C     C_R   0.761184 0.759727 0.823345 -0.168973
C171  C     C_R   0.750086 0.394891 0.394908 0.794392
C172  C     C_R   0.218132 0.219524 0.197517 -0.167988
C173  C     C_R   0.752238 0.269581 0.726845 0.053910
C174  C     C_R   0.251768 0.726361 0.269084 0.053339
C175  C     C_R   0.752238 0.730419 0.273155 0.053909
C176  C     C_R   0.251706 0.273555 0.730835 0.054351
C177  C     C_R   0.247795 0.730362 0.726895 0.054840
C178  C     C_R   0.752261 0.269563 0.273172 0.053567
C179  C     C_R   0.251781 0.273638 0.269089 0.054542
C180  C     C_R   0.752261 0.730437 0.726828 0.053866
C181  C     C_R   0.252250 0.769562 0.226823 0.054246
C182  C     C_R   0.250081 0.105102 0.894903 0.793655
C183  C     C_R   0.751755 0.226378 0.769103 0.054640
C184  C     C_R   0.252194 0.230343 0.773083 0.053823
C185  C     C_R   0.751755 0.773622 0.230897 0.054633
C186  C     C_R   0.751781 0.226361 0.230912 0.054845
C187  C     C_R   0.248281 0.773572 0.769146 0.052757
C188  C     C_R   0.751781 0.773639 0.769088 0.054742
C189  C     C_R   0.252261 0.230437 0.226828 0.053572
C190  C     C_R   0.541593 0.546654 0.482857 -0.178289
C191  C     C_R   0.458409 0.453351 0.482858 -0.176745
C192  C     C_R   0.541595 0.453353 0.517190 -0.178488
H1    H     H_    0.096734 0.500257 0.588533 0.167539
H2    H     H_    0.964508 0.500379 0.638818 0.151810
H3    H     H_    0.035486 0.500391 0.638819 0.151878
H4    H     H_    0.964509 0.499698 0.361186 0.151442
H5    H     H_    0.535487 0.000369 0.861187 0.150969
H6    H     H_    0.464508 0.999712 0.138819 0.151476
H7    H     H_    0.535486 0.999708 0.138818 0.151367
H8    H     H_    0.464509 0.000381 0.861187 0.150989
H9    H     H_    0.810749 0.365631 0.668259 0.159098
H10   H     H_    0.232642 0.590754 0.287942 0.158899
H11   H     H_    0.810750 0.634370 0.331742 0.159106
H12   H     H_    0.903263 0.499805 0.411470 0.166671
H13   H     H_    0.232588 0.409172 0.712044 0.160394
H14   H     H_    0.189254 0.634387 0.668247 0.159168
H15   H     H_    0.810757 0.365641 0.331742 0.159078
H16   H     H_    0.232672 0.409253 0.287936 0.158803
H17   H     H_    0.810756 0.634357 0.668259 0.159261
H18   H     H_    0.310758 0.865613 0.168233 0.158899
H19   H     H_    0.732655 0.090761 0.787940 0.158942
H20   H     H_    0.310737 0.134368 0.831726 0.158935
H21   H     H_    0.732653 0.909239 0.212060 0.158960
H22   H     H_    0.732671 0.090748 0.212064 0.158966
H23   H     H_    0.096733 0.499812 0.411472 0.167970
H24   H     H_    0.267426 0.909178 0.787958 0.160046
H25   H     H_    0.732673 0.909253 0.787936 0.158953
H26   H     H_    0.310756 0.134357 0.168259 0.159092
H27   H     H_    0.690865 0.328552 0.635126 0.155625
H28   H     H_    0.268547 0.712216 0.405827 0.159539
H29   H     H_    0.690864 0.671447 0.364873 0.155611
H30   H     H_    0.268532 0.287778 0.594112 0.155595
H31   H     H_    0.309163 0.671370 0.635182 0.155371
H32   H     H_    0.690880 0.328520 0.364888 0.157806
H33   H     H_    0.268527 0.287780 0.405841 0.155456
H34   H     H_    0.903262 0.500230 0.588533 0.166763
H35   H     H_    0.690881 0.671482 0.635110 0.157410
H36   H     H_    0.190867 0.828552 0.135130 0.155862
H37   H     H_    0.768519 0.212224 0.905850 0.155124
H38   H     H_    0.190835 0.171371 0.864822 0.155980
H39   H     H_    0.768521 0.787777 0.094151 0.155149
H40   H     H_    0.768528 0.212220 0.094159 0.155085
H41   H     H_    0.231440 0.787786 0.905866 0.160184
H42   H     H_    0.768527 0.787779 0.905841 0.155110
H43   H     H_    0.190880 0.171482 0.135111 0.157865
H44   H     H_    0.691867 0.257619 0.705850 0.145625
H45   H     H_    0.596733 0.999811 0.088532 0.167985
H46   H     H_    0.268647 0.782024 0.333973 0.147294
H47   H     H_    0.691867 0.742380 0.294149 0.145611
H48   H     H_    0.268605 0.217928 0.665926 0.146141
H49   H     H_    0.308178 0.742272 0.705937 0.145515
H50   H     H_    0.691893 0.257582 0.294172 0.146176
H51   H     H_    0.268634 0.217971 0.333987 0.145908
H52   H     H_    0.691893 0.742420 0.705827 0.145609
H53   H     H_    0.191875 0.757610 0.205845 0.146206
H54   H     H_    0.768615 0.282040 0.834003 0.145196
H55   H     H_    0.191815 0.242265 0.794058 0.146083
H56   H     H_    0.403263 0.000251 0.911472 0.167184
H57   H     H_    0.768617 0.717960 0.165997 0.145215
H58   H     H_    0.768636 0.282029 0.166014 0.145247
H59   H     H_    0.231363 0.717944 0.834045 0.148384
H60   H     H_    0.768634 0.717971 0.833987 0.145222
H61   H     H_    0.191893 0.242419 0.205827 0.146354
H62   H     H_    0.526453 0.582769 0.468555 0.135100
H63   H     H_    0.473549 0.417237 0.468555 0.135689
H64   H     H_    0.526458 0.417238 0.531497 0.135141
H65   H     H_    0.473542 0.582767 0.531498 0.133912
H66   H     H_    0.026456 0.082745 0.968483 0.135567
H67   H     H_    0.596733 0.000224 0.911471 0.167869
H68   H     H_    0.973549 0.917211 0.968607 0.137139
H69   H     H_    0.026458 0.917261 0.031550 0.135640
H70   H     H_    0.973545 0.082791 0.031421 0.135706
H71   H     H_    0.597020 0.583140 0.469666 0.157758
H72   H     H_    0.402983 0.416861 0.469671 0.161415
H73   H     H_    0.597024 0.416863 0.530356 0.157826
H74   H     H_    0.402976 0.583139 0.530361 0.157783
H75   H     H_    0.097022 0.083118 0.969603 0.158057
H76   H     H_    0.902984 0.916838 0.969727 0.161918
H77   H     H_    0.097024 0.916886 0.030418 0.158324
H78   H     H_    0.403262 0.999818 0.088533 0.166780
H79   H     H_    0.902979 0.083163 0.030285 0.161513
H80   H     H_    0.035487 0.499703 0.361187 0.151410
N1    N     N_1   0.851258 0.280510 0.765456 -0.192565
N2    N     N_1   0.726359 0.141504 0.656202 -0.183410
N3    N     N_1   0.351221 0.219467 0.734493 -0.193520
N4    N     N_1   0.726356 0.858495 0.343797 -0.183435
N5    N     N_1   0.726398 0.141476 0.343810 -0.183252
N6    N     N_1   0.273776 0.858386 0.656245 -0.194421
N7    N     N_1   0.726401 0.858526 0.656189 -0.183444
N8    N     N_1   0.351277 0.219476 0.265449 -0.194325
N9    N     N_1   0.226341 0.641485 0.156199 -0.189376
N10   N     N_1   0.851259 0.719493 0.234546 -0.192541
N11   N     N_1   0.226243 0.358368 0.843752 -0.186434
N12   N     N_1   0.148759 0.719509 0.765452 -0.190194
N13   N     N_1   0.851278 0.280520 0.234554 -0.194152
N14   N     N_1   0.226400 0.358525 0.156190 -0.185045
N15   N     N_1   0.851277 0.719476 0.765449 -0.192087
N16   N     N_1   0.351277 0.780469 0.265401 -0.193187
O1    O     O_3   0.750010 0.500000 0.500000 -0.478796
O2    O     O_R   0.772930 0.563990 0.609460 -0.644120
O3    O     O_R   0.227070 0.563990 0.609460 -0.644491
O4    O     O_R   0.772930 0.436010 0.390540 -0.644168
O5    O     O_R   0.272930 0.063990 0.890540 -0.645425
O6    O     O_R   0.727070 0.936010 0.109460 -0.645103
O7    O     O_R   0.272930 0.936010 0.109460 -0.643186
O8    O     O_R   0.727070 0.063990 0.890540 -0.645074
O9    O     O_R   0.727070 0.936010 0.890540 -0.644826
O10   O     O_R   0.272930 0.063990 0.109460 -0.643824
O11   O     O_R   0.727070 0.063990 0.109460 -0.644657
O12   O     O_3   0.249990 0.500000 0.500000 -0.478776
O13   O     O_R   0.272930 0.936010 0.890540 -0.643964
O14   O     O_R   0.727090 0.609470 0.563990 -0.639468
O15   O     O_R   0.272910 0.390530 0.436010 -0.643992
O16   O     O_R   0.727090 0.390530 0.436010 -0.639372
O17   O     O_R   0.272910 0.609470 0.563990 -0.644273
O18   O     O_R   0.272910 0.390530 0.563990 -0.642517
O19   O     O_R   0.727090 0.609470 0.436010 -0.640970
O20   O     O_R   0.272910 0.609470 0.436010 -0.639763
O21   O     O_R   0.727090 0.390530 0.563990 -0.640981
O22   O     O_R   0.227090 0.109470 0.063990 -0.639641
O23   O     O_3   0.250010 0.000000 0.000000 -0.478863
O24   O     O_R   0.772910 0.890530 0.936010 -0.643929
O25   O     O_R   0.227090 0.890530 0.936010 -0.639666
O26   O     O_R   0.772910 0.109470 0.063990 -0.644104
O27   O     O_R   0.772910 0.890530 0.063990 -0.642114
O28   O     O_R   0.227090 0.109470 0.936010 -0.640727
O29   O     O_R   0.772910 0.109470 0.936010 -0.642092
O30   O     O_R   0.227090 0.890530 0.063990 -0.644285
O31   O     O_R   0.662570 0.545500 0.500000 -0.648496
O32   O     O_R   0.337430 0.454500 0.500000 -0.643412
O33   O     O_R   0.662570 0.454500 0.500000 -0.648312
O34   O     O_3   0.749990 0.000000 0.000000 -0.478729
O35   O     O_R   0.337430 0.545500 0.500000 -0.646007
O36   O     O_R   0.162570 0.045500 0.000000 -0.648750
O37   O     O_R   0.837430 0.954500 0.000000 -0.643403
O38   O     O_R   0.162570 0.954500 0.000000 -0.645072
O39   O     O_R   0.837430 0.045500 0.000000 -0.643473
O40   O     O_R   0.837440 0.500000 0.454520 -0.648761
O41   O     O_R   0.162560 0.500000 0.545480 -0.647810
O42   O     O_R   0.837440 0.500000 0.545480 -0.648693
O43   O     O_R   0.162560 0.500000 0.454520 -0.645975
O44   O     O_R   0.337440 0.000000 0.954520 -0.647367
O45   O     O_R   0.772930 0.563990 0.390540 -0.643937
O46   O     O_R   0.662560 0.000000 0.045480 -0.646397
O47   O     O_R   0.337440 0.000000 0.045480 -0.649175
O48   O     O_R   0.662560 0.000000 0.954520 -0.646491
O49   O     O_R   0.227070 0.436010 0.609460 -0.643381
O50   O     O_R   0.772930 0.436010 0.609460 -0.643967
O51   O     O_R   0.227070 0.563990 0.390540 -0.645135
O52   O     O_R   0.227070 0.436010 0.390540 -0.644747
Zn1   Zn    Zn3+2 0.782760 0.500000 0.564970 0.970160
Zn2   Zn    Zn3+2 0.282740 0.435020 0.500000 0.972050
Zn3   Zn    Zn3+2 0.717260 0.435020 0.500000 0.971850
Zn4   Zn    Zn3+2 0.282740 0.564980 0.500000 0.972482
Zn5   Zn    Zn3+2 0.217260 0.064980 0.000000 0.972661
Zn6   Zn    Zn3+2 0.782740 0.935020 0.000000 0.973005
Zn7   Zn    Zn3+2 0.217260 0.935020 0.000000 0.972080
Zn8   Zn    Zn3+2 0.782740 0.064980 0.000000 0.972899
Zn9   Zn    Zn3+2 0.217240 0.500000 0.435030 0.969936
Zn10  Zn    Zn3+2 0.782760 0.500000 0.435030 0.970149
Zn11  Zn    Zn3+2 0.217240 0.500000 0.564970 0.969553
Zn12  Zn    Zn3+2 0.282760 0.000000 0.064970 0.969632
Zn13  Zn    Zn3+2 0.717240 0.000000 0.935030 0.968920
Zn14  Zn    Zn3+2 0.282760 0.000000 0.935030 0.969957
Zn15  Zn    Zn3+2 0.717240 0.000000 0.064970 0.969015
Zn16  Zn    Zn3+2 0.717260 0.564980 0.500000 0.971691

loop_
_geom_bond_atom_site_label_1
_geom_bond_atom_site_label_2
_ccdc_geom_bond_type
C68   O13   A    
C10   H73   S    
C132  C150  A    
C133  C151  A    
C104  N8    T    
O35   Zn4   S    
O10   Zn12  S    
C159  C177  A    
O13   Zn14  S    
C128  C145  A    
C72   C101  A    
C167  C185  A    
C33   C45   S    
C105  C123  S    
C7    H70   S    
C80   C183  A    
C74   C92   S    
C138  O15   A    
C1    C122  S    
C76   C94   S    
C139  H28   S    
C78   C96   S    
C84   C117  A    
C192  H64   S    
C32   O44   A    
C30   O40   A    
C86   C119  A    
C4    C12   A    
C85   C103  S    
O29   Zn8   S    
C38   H34   S    
C85   C188  A    
O24   Zn6   S    
C59   C60   A    
C21   C22   S    
C57   C133  S    
C57   O26   A    
C107  C124  A    
C127  O51   A    
C77   C180  A    
C51   C64   A    
C82   C185  A    
C165  C183  A    
C166  C184  A    
C169  C187  A    
O22   Zn5   S    
C4    C23   A    
C21   C192  A    
C5    H68   S    
O34   Zn15  S    
C109  H16   S    
C112  H19   S    
O31   Zn16  S    
C16   C20   A    
C40   C55   A    
C79   C120  A    
C80   C112  A    
C118  H25   S    
O36   Zn5   S    
C73   C91   S    
C5    C25   A    
C83   C100  S    
C32   C47   S    
C36   C44   A    
C110  H17   S    
C62   H2    S    
C182  O5    A    
C35   C135  S    
C16   H79   S    
C75   C93   S    
C176  C184  S    
O14   Zn16  S    
C49   C62   A    
C70   C79   A    
C13   O30   A    
C46   O10   A    
C113  H20   S    
C177  C187  S    
C99   N4    T    
O3    Zn11  S    
C101  C122  A    
C169  H59   S    
C8    C17   A    
C147  H37   S    
C127  O20   A    
C124  C160  S    
C153  H42   S    
C125  C171  S    
O7    Zn12  S    
C3    C11   A    
C71   C88   S    
C178  C186  S    
O4    Zn10  S    
C41   C45   A    
C84   C187  A    
C9    C191  A    
C143  C161  A    
C52   C65   A    
C110  C128  A    
C90   H10   S    
C11   C18   A    
C100  N5    T    
C84   C102  S    
C31   O43   A    
C76   C179  A    
C86   C104  S    
C46   O22   A    
C73   C106  A    
O28   Zn5   S    
C145  H35   S    
C89   N10   T    
C31   C43   S    
O34   Zn13  S    
C42   C53   A    
O49   Zn11  S    
C131  C182  S    
C39   C54   A    
O51   Zn9   S    
C137  C155  A    
C72   C175  A    
C164  C181  A    
C147  C165  A    
C74   C107  A    
C26   O33   A    
C76   C109  A    
C153  C170  A    
C91   N11   T    
C78   C111  A    
C61   H80   S    
C39   C45   A    
O40   Zn10  S    
C116  O21   A    
C66   C67   A    
C32   O47   A    
C50   C63   A    
O12   Zn2   S    
C70   C87   S    
C24   O8    A    
C53   C60   A    
O33   Zn3   S    
C54   C59   A    
C168  C186  A    
O15   Zn2   S    
C83   C115  A    
C131  C148  A    
C105  O49   A    
C101  H11   S    
C8    C190  A    
C143  H32   S    
C145  C163  A    
C79   H9    S    
C3    H65   S    
C146  C164  A    
C50   C56   A    
C116  C120  S    
O27   Zn6   S    
C42   H78   S    
C24   O29   A    
C164  H53   S    
C119  H26   S    
C1    O45   A    
C128  C149  S    
C179  C189  S    
C137  H27   S    
O16   Zn3   S    
C170  H60   S    
C83   C186  A    
C66   H6    S    
C19   C28   S    
C55   C69   A    
C90   C121  A    
C144  H33   S    
C31   O41   A    
C148  H38   S    
O41   Zn11  S    
O37   Zn6   S    
C142  H31   S    
C39   H45   S    
C149  O2    A    
C130  C147  A    
C165  H54   S    
C57   O11   A    
O50   Zn1   S    
C168  H58   S    
C71   C174  A    
O1    Zn16  S    
C121  C139  A    
C111  H18   S    
C122  C140  A    
O47   Zn12  S    
C92   N12   T    
O12   Zn11  S    
C93   N13   T    
C71   C90   A    
C146  H36   S    
C155  H44   S    
C125  C143  A    
C95   N15   T    
C64   H4    S    
O23   Zn14  S    
C126  C144  A    
C11   H74   S    
C56   C58   A    
C68   O25   A    
C33   O46   A    
O18   Zn2   S    
C24   C130  S    
C9    C18   A    
C170  C188  A    
C13   C129  S    
C2    O27   A    
C3    C22   A    
C87   N1    T    
C81   C184  A    
C112  C130  A    
C22   C191  A    
O12   Zn4   S    
O48   Zn13  S    
C148  C166  A    
C82   C99   S    
C142  C159  A    
C38   C49   A    
C15   C19   A    
C1    O19   A    
C156  C174  A    
C123  C141  A    
O11   Zn15  S    
C121  C127  S    
C67   H7    S    
C80   C97   S    
C160  O17   A    
C81   C98   S    
O44   Zn14  S    
C9    H72   S    
C41   H67   S    
C180  C188  S    
C111  C129  A    
O39   Zn8   S    
C154  H43   S    
C69   H8    S    
C2    C132  S    
C33   O48   A    
O25   Zn7   S    
C97   N2    T    
C105  O18   A    
C171  O4    A    
C75   C108  A    
C182  O28   A    
C55   C60   A    
C88   N9    T    
C30   C44   S    
C117  C134  A    
O5    Zn14  S    
C172  H61   S    
C13   O7    A    
C27   O32   A    
C34   C43   A    
C14   C20   A    
O34   Zn6   S    
C37   H23   S    
C152  H41   S    
C115  C133  A    
C156  H46   S    
C191  H63   S    
C150  H39   S    
C37   C43   A    
C61   C64   A    
C38   C44   A    
C62   C63   A    
C175  C185  S    
C136  C154  A    
C134  C152  A    
O30   Zn7   S    
C51   C58   A    
C8    H71   S    
C161  H50   S    
C34   H1    S    
C7    C16   A    
C28   O36   A    
O9    Zn13  S    
C17   C26   S    
O43   Zn9   S    
O23   Zn12  S    
C135  C153  A    
O34   Zn8   S    
C172  C189  A    
C7    C25   A    
C73   C176  A    
C68   C134  S    
C152  C169  A    
C74   C177  A    
C65   C69   A    
C150  C167  A    
C12   C19   A    
C96   N16   T    
C29   O37   A    
O52   Zn9   S    
O42   Zn1   S    
C85   C118  A    
C10   C192  A    
C98   N3    T    
C141  C158  A    
C173  C183  S    
C149  O14   A    
C81   C113  A    
O46   Zn15  S    
C190  H62   S    
C120  C137  A    
C161  C178  A    
C159  H49   S    
C118  C135  A    
C40   C47   A    
C26   O31   A    
C2    O6    A    
O38   Zn7   S    
C103  N7    T    
O1    Zn10  S    
C106  H13   S    
C21   C190  A    
C94   N14   T    
C166  H55   S    
C138  O52   A    
C140  H29   S    
C129  C146  A    
C10   C17   A    
C151  C168  A    
O45   Zn10  S    
C75   C178  A    
O1    Zn1   S    
C107  H14   S    
O23   Zn7   S    
C35   O24   A    
C157  H47   S    
C28   O38   A    
C106  C123  A    
O12   Zn9   S    
C108  C125  A    
C41   C52   A    
C141  H30   S    
C155  C173  A    
C6    C15   A    
O17   Zn4   S    
C124  C142  A    
C102  N6    T    
C108  H15   S    
C174  C181  S    
O32   Zn2   S    
C40   H56   S    
C14   H76   S    
C20   C29   S    
C35   O9    A    
C34   C50   A    
C27   O35   A    
O20   Zn4   S    
C82   C114  A    
C114  H21   S    
O8    Zn13  S    
C54   C67   A    
C77   C95   S    
C49   C58   A    
C115  H22   S    
C29   O39   A    
O2    Zn1   S    
C117  H24   S    
C52   C59   A    
C140  C157  A    
C171  O16   A    
C109  C126  A    
C151  H40   S    
C5    C14   A    
C154  C172  A    
C163  H52   S    
O21   Zn3   S    
C37   C48   A    
C53   C66   A    
C162  C179  A    
C36   C51   A    
C157  C175  A    
C65   H5    S    
C158  C176  A    
C30   O42   A    
C160  O3    A    
O19   Zn16  S    
C48   C56   A    
C126  C138  S    
C86   C189  A    
C4    H66   S    
C113  C131  A    
C144  C162  A    
C114  C132  A    
C18   C27   S    
O6    Zn15  S    
C167  H57   S    
C78   C181  A    
O1    Zn3   S    
C12   H75   S    
O23   Zn5   S    
C119  C136  A    
C72   C89   S    
C48   C61   A    
C139  C156  A    
C6    C23   A    
C6    H69   S    
C63   H3    S    
C42   C47   A    
C23   C25   S    
C77   C110  A    
C70   C173  A    
C46   C136  S    
C163  C180  A    
C116  O50   A    
C36   H12   S    
C162  H51   S    
C15   H77   S    
O26   Zn8   S    
C158  H48   S    
