data_mof_unit_57097.cif
_audit_creation_date              2012-12-11T14:22:57-0500
_audit_creation_method            fapswitch 2.2
_symmetry_space_group_name_H-M    P1
_symmetry_Int_Tables_number       1
_space_group_crystal_system       triclinic
_cell_length_a                    11.066567
_cell_length_b                    11.001096
_cell_length_c                    18.642418
_cell_angle_alpha                 89.855063
_cell_angle_beta                  89.999957
_cell_angle_gamma                 59.765
_cell_volume                      1960.86001146

loop_
_atom_site_label
_atom_site_type_symbol
_atom_type_description
_atom_site_fract_x
_atom_site_fract_y
_atom_site_fract_z
_atom_type_partial_charge
C1    C     C_R   0.240144 0.644112 0.610882 0.543007
C2    C     C_3   0.654815 0.566122 0.801070 -0.252959
C3    C     C_3   0.699080 0.676801 0.811594 0.042477
C4    C     C_3   0.670151 0.649591 0.675382 0.055930
C5    C     C_3   0.820764 0.615515 0.690376 -0.247177
C6    C     C_3   0.638455 0.549258 0.720679 -0.215678
C7    C     C_R   0.686269 0.175246 0.827682 0.010355
C8    C     C_R   0.802672 0.153932 0.785047 0.056823
C9    C     C_R   0.792813 0.144942 0.709233 -0.014981
C10   C     C_R   0.546686 0.219812 0.722064 -0.161206
C11   C     C_R   0.558002 0.219535 0.794881 -0.176184
C12   C     C_R   0.654378 0.623310 0.600051 0.551881
C13   C     C_R   0.926819 0.143694 0.813639 0.128445
C14   C     C_R   0.043299 0.101610 0.769246 -0.124777
C15   C     C_R   0.036467 0.079598 0.696524 -0.150268
C16   C     C_R   0.913012 0.100129 0.666617 -0.097808
C17   C     C_R   0.661796 0.183624 0.677989 -0.013472
C18   C     C_R   0.196359 0.655146 0.838612 -0.003154
C19   C     C_R   0.198257 0.542700 0.800701 0.023145
C20   C     C_R   0.190183 0.548211 0.724736 0.016202
C21   C     C_R   0.232731 0.744836 0.728453 -0.154671
C22   C     C_R   0.225296 0.747922 0.802167 -0.156661
C23   C     C_R   0.627988 0.228560 0.603177 0.532352
C24   C     C_R   0.206737 0.425774 0.836808 -0.100723
C25   C     C_R   0.195655 0.322693 0.799590 -0.153905
C26   C     C_R   0.171274 0.336174 0.726096 -0.160277
C27   C     C_R   0.166351 0.448796 0.688958 -0.118042
C28   C     C_R   0.208117 0.651731 0.688065 -0.003305
C29   C     C_R   0.695282 0.697487 0.180499 -0.000374
C30   C     C_R   0.794450 0.582152 0.220152 0.038441
C31   C     C_R   0.748218 0.523311 0.271433 0.042393
C32   C     C_R   0.530786 0.745074 0.276765 -0.149007
C33   C     C_R   0.562306 0.781568 0.210194 -0.119891
C34   C     C_R   0.283849 0.623187 0.391437 0.550755
C35   C     C_R   0.937751 0.535168 0.217548 -0.091679
C36   C     C_R   0.029156 0.425401 0.262208 -0.128556
C37   C     C_R   0.983018 0.349689 0.300776 -0.123002
C38   C     C_R   0.843707 0.388610 0.296998 -0.090900
C39   C     C_R   0.624781 0.615134 0.308566 -0.011472
C40   C     C_R   0.660506 0.135553 0.183642 0.002256
C41   C     C_R   0.551738 0.135287 0.223857 0.028340
C42   C     C_R   0.571151 0.107527 0.297942 0.036167
C43   C     C_R   0.781738 0.119606 0.295223 -0.165960
C44   C     C_R   0.777219 0.123234 0.220732 -0.144209
C45   C     C_R   0.615128 0.588867 0.385474 0.539668
C46   C     C_R   0.423044 0.164240 0.193992 -0.115451
C47   C     C_R   0.327146 0.148222 0.234605 -0.168743
C48   C     C_R   0.358478 0.096851 0.304347 -0.132882
C49   C     C_R   0.481693 0.073669 0.335700 -0.072963
C50   C     C_R   0.669178 0.130764 0.333786 -0.004060
C51   C     C_R   0.220103 0.638616 0.163265 0.030170
C52   C     C_R   0.257386 0.729435 0.196233 0.095597
C53   C     C_R   0.231133 0.749389 0.270332 -0.019987
C54   C     C_R   0.284269 0.508172 0.275026 -0.166197
C55   C     C_R   0.250095 0.517596 0.201337 -0.186248
C56   C     C_R   0.622810 0.218248 0.398931 0.522945
C57   C     C_R   0.270623 0.829828 0.155658 0.277313
C58   C     C_R   0.196920 0.968409 0.179171 -0.105664
C59   C     C_R   0.137597 0.997520 0.247301 -0.194343
C60   C     C_R   0.162538 0.889330 0.294887 -0.137238
C61   C     C_R   0.259017 0.630160 0.312489 -0.012147
C62   C     C_R   0.701497 0.106243 0.897409 0.563716
C63   C     C_R   0.723842 0.688850 0.887990 0.561573
C64   C     C_R   0.122461 0.702816 0.907350 0.545950
C65   C     C_R   0.677222 0.100947 0.106622 0.538976
C66   C     C_R   0.729091 0.715297 0.106612 0.562294
C67   C     C_3   0.584059 0.819653 0.779050 -0.228630
C68   C     C_R   0.114740 0.698121 0.103694 0.559044
C69   C     C_3   0.568398 0.803923 0.698178 -0.241995
C70   C     C_3   0.837837 0.631547 0.770600 -0.221065
Cr1   Cr    Cr6+3 0.392940 0.397950 0.502230 0.997810
Cr2   Cr    Cr6+3 0.398400 0.708500 0.501260 0.988011
Cr3   Cr    Cr6+3 0.708640 0.393530 0.496460 0.987466
Cr4   Cr    Cr6+3 0.937880 0.938320 0.007620 1.026705
Cr5   Cr    Cr6+3 0.625560 0.937220 0.994510 0.994700
Cr6   Cr    Cr6+3 0.938080 0.625010 0.001190 0.996926
H1    H     H_    0.612287 0.902527 0.787369 0.147053
H2    H     H_    0.711117 0.437812 0.705618 0.151169
H3    H     H_    0.921373 0.528998 0.791627 0.167174
H4    H     H_    0.895960 0.505582 0.674176 0.147954
H5    H     H_    0.444698 0.251598 0.700360 0.173676
H6    H     H_    0.467799 0.240562 0.826116 0.154135
H7    H     H_    0.140209 0.085886 0.791293 0.087346
H8    H     H_    0.127005 0.048293 0.662796 0.107615
H9    H     H_    0.913390 0.078770 0.610008 0.137251
H10   H     H_    0.259700 0.816153 0.703144 0.135216
H11   H     H_    0.482014 0.854979 0.806138 0.118148
H12   H     H_    0.229704 0.408838 0.893571 0.130456
H13   H     H_    0.234323 0.828898 0.830428 0.134232
H14   H     H_    0.205757 0.233118 0.828596 0.102301
H15   H     H_    0.157654 0.258698 0.697395 0.117836
H16   H     H_    0.140610 0.457257 0.632699 0.141053
H17   H     H_    0.435435 0.818145 0.303775 0.150870
H18   H     H_    0.974521 0.594487 0.189125 0.142854
H19   H     H_    0.486302 0.876646 0.183362 0.160304
H20   H     H_    0.134772 0.397859 0.268492 0.128884
H21   H     H_    0.052940 0.266278 0.336538 0.100250
H22   H     H_    0.458226 0.834479 0.686660 0.128671
H23   H     H_    0.808565 0.332337 0.329151 0.152299
H24   H     H_    0.869509 0.114840 0.323033 0.109688
H25   H     H_    0.389590 0.208815 0.141147 0.141826
H26   H     H_    0.865608 0.116087 0.192138 0.157356
H27   H     H_    0.226550 0.180529 0.211854 0.118666
H28   H     H_    0.285609 0.080130 0.335328 0.111226
H29   H     H_    0.502884 0.037892 0.390910 0.135519
H30   H     H_    0.317439 0.410946 0.303873 0.160191
H31   H     H_    0.238598 0.436930 0.175101 0.115445
H32   H     H_    0.591470 0.876852 0.667524 0.119285
H33   H     H_    0.177882 0.052888 0.142743 0.088029
H34   H     H_    0.070920 0.103845 0.262746 0.112480
H35   H     H_    0.114197 0.919362 0.346947 0.158852
H36   H     H_    0.871912 0.710087 0.778807 0.128448
H37   H     H_    0.845190 0.686672 0.658971 0.114113
H38   H     H_    0.734436 0.463399 0.824206 0.146171
H39   H     H_    0.554138 0.599227 0.829102 0.126385
H40   H     H_    0.530446 0.571173 0.709737 0.131545
O1    O     O_R   0.507340 0.255690 0.581430 -0.526029
O2    O     O_R   0.524510 0.695820 0.424050 -0.513434
O3    O     O_R   0.736370 0.504260 0.414810 -0.507535
O4    O     O_R   0.691220 0.277270 0.422180 -0.536663
O5    O     O_3   0.499990 0.499990 0.499980 -0.279018
O6    O     O_R   0.089570 0.825450 0.930590 -0.514158
O7    O     O_R   0.818700 0.054260 0.929860 -0.463014
O8    O     O_R   0.606310 0.077010 0.915520 -0.540899
O9    O     O_R   0.646730 0.806540 0.917560 -0.502212
O10   O     O_R   0.837290 0.593240 0.915240 -0.522779
O11   O     O_R   0.065320 0.635310 0.931580 -0.518399
O12   O     O_R   0.280360 0.527380 0.578910 -0.503764
O13   O     O_R   0.068470 0.828620 0.091850 -0.486604
O14   O     O_R   0.799150 0.057200 0.079350 -0.500897
O15   O     O_R   0.585220 0.080180 0.076770 -0.542574
O16   O     O_R   0.627170 0.809480 0.067050 -0.489907
O17   O     O_R   0.816200 0.596410 0.076500 -0.499719
O18   O     O_R   0.045770 0.638240 0.081070 -0.547228
O19   O     O_3   0.833840 0.833520 0.001110 -0.273174
O20   O     O_R   0.260600 0.739610 0.584580 -0.526656
O21   O     O_R   0.532370 0.695050 0.573830 -0.507450
O22   O     O_R   0.744850 0.503430 0.576380 -0.520505
O23   O     O_R   0.699080 0.276500 0.571950 -0.507216
O24   O     O_R   0.498860 0.256520 0.419860 -0.532366
O25   O     O_R   0.272490 0.528150 0.429140 -0.488569
O26   O     O_R   0.252110 0.740440 0.423010 -0.534703
N1    N     N_3   0.930509 0.192965 0.884252 -0.603885
H41   H     H_    0.947629 0.277821 0.879302 0.215791
H42   H     H_    0.016931 0.112916 0.911308 0.240163
O27   O     O_3   0.329072 0.795329 0.087955 -0.684300
H43   H     H_    0.326419 0.879186 0.066415 0.315810

loop_
_geom_bond_atom_site_label_1
_geom_bond_atom_site_label_2
_ccdc_geom_bond_type
C45   O2    A    
C34   O25   A    
C8    C13   A    
Cr3   O3    S    
Cr2   O5    S    
C58   H33   S    
Cr6   O10   S    
C41   C42   A    
Cr1   O24   S    
C35   C36   A    
C67   H1    S    
C1    O12   A    
C37   H21   S    
C65   O14   A    
C7    C8    A    
C52   C53   A    
Cr2   O26   S    
C26   C27   A    
C17   C23   S    
C30   C35   A    
C64   O6    A    
C23   O23   A    
C36   C37   A    
C9    C16   A    
C30   C31   A    
C56   O24   A    
Cr5   O19   S    
C6    H2    S    
Cr3   O22   S    
C10   C17   A    
N1    H41   S    
C48   H28   S    
C29   C33   A    
C59   H34   S    
C18   C19   A    
C32   C39   A    
C4    C69   S    
C54   C55   A    
C53   C61   A    
C69   H32   S    
C19   C20   A    
C8    C9    A    
C1    C28   S    
C41   C46   A    
C4    C12   S    
C1    O20   A    
Cr1   O25   S    
C69   H22   S    
C45   O3    A    
Cr4   O7    S    
C59   C60   A    
Cr3   O4    S    
C13   C14   A    
C56   O4    A    
C2    C6    S    
C14   H7    S    
C33   H19   S    
C62   O8    A    
C62   O7    A    
C65   O15   A    
Cr6   O19   S    
Cr5   O15   S    
C54   C61   A    
C66   O16   A    
C11   H6    S    
Cr2   O21   S    
C46   H25   S    
C47   H27   S    
C54   H30   S    
C51   C52   A    
C3    C70   S    
C43   H24   S    
C4    C6    S    
C10   C11   A    
Cr1   O1    S    
C38   H23   S    
C49   H29   S    
Cr3   O23   S    
C26   H15   S    
C34   C61   S    
C50   C56   S    
Cr5   O8    S    
C55   H31   S    
C67   C69   S    
C7    C11   A    
C43   C44   A    
C7    C62   S    
C23   O1    A    
C37   C38   A    
C66   O17   A    
C2    H39   S    
C36   H20   S    
C47   C48   A    
C14   C15   A    
C64   O11   A    
C32   H17   S    
Cr4   O19   S    
C53   C60   A    
C25   H14   S    
C27   H16   S    
C24   C25   A    
C5    H4    S    
C24   H12   S    
C6    H40   S    
C63   O9    A    
C70   H36   S    
C42   C50   A    
C9    C17   A    
C40   C41   A    
Cr4   O6    S    
C21   C28   A    
Cr3   O5    S    
C40   C65   S    
Cr4   O14   S    
C16   H9    S    
C12   O22   A    
Cr1   O12   S    
C58   C59   A    
Cr5   O16   S    
O27   H43   S    
C35   H18   S    
N1    H42   S    
C46   C47   A    
C34   O26   A    
Cr6   O18   S    
C5    H37   S    
C70   H3    S    
C18   C22   A    
Cr1   O5    S    
C3    C67   S    
C4    C5    S    
C5    C70   S    
C21   H10   S    
Cr6   O17   S    
C43   C50   A    
C15   H8    S    
C20   C27   A    
C3    C63   S    
C20   C28   A    
C10   H5    S    
C67   H11   S    
C31   C38   A    
C39   C45   S    
C57   O27   S    
C32   C33   A    
C68   O18   A    
C2    C3    S    
C25   C26   A    
C60   H35   S    
C2    H38   S    
C18   C64   S    
C57   C58   A    
C48   C49   A    
C22   H13   S    
C31   C39   A    
C19   C24   A    
C51   C55   A    
C51   C68   S    
C13   N1    S    
C68   O13   A    
C63   O10   A    
Cr2   O20   S    
C52   C57   A    
C42   C49   A    
C29   C30   A    
C29   C66   S    
C40   C44   A    
Cr4   O13   S    
Cr2   O2    S    
Cr6   O11   S    
C12   O21   A    
Cr5   O9    S    
C21   C22   A    
C15   C16   A    
C44   H26   S    
