data_mof_unit_5413.cif
_audit_creation_date              2012-12-10T18:26:18-0500
_audit_creation_method            fapswitch 2.2
_symmetry_space_group_name_H-M    P1
_symmetry_Int_Tables_number       1
_space_group_crystal_system       triclinic
_cell_length_a                    14.883807
_cell_length_b                    14.1562
_cell_length_c                    22.521584
_cell_angle_alpha                 90.641898
_cell_angle_beta                  87.167214
_cell_angle_gamma                 91.092334
_cell_volume                      4738.34599624

loop_
_atom_site_label
_atom_site_type_symbol
_atom_type_description
_atom_site_fract_x
_atom_site_fract_y
_atom_site_fract_z
_atom_type_partial_charge
C1    C     C_R   0.327098 0.499643 0.499603 0.865553
C2    C     C_R   0.672846 0.500435 0.498993 0.863600
C3    C     C_R   0.579515 0.515709 0.226804 -0.020540
C4    C     C_R   0.454616 0.474701 0.776740 -0.011704
C5    C     C_R   0.573311 0.535350 0.288123 -0.099876
C6    C     C_R   0.439702 0.479272 0.716096 -0.091811
C7    C     C_R   0.500078 0.498029 0.322907 -0.206953
C8    C     C_R   0.511709 0.502680 0.676022 -0.215780
C9    C     C_R   0.426874 0.457966 0.293693 -0.172715
C10   C     C_R   0.593503 0.534390 0.699066 -0.176444
C11   C     C_R   0.436342 0.435575 0.232918 0.478362
C12   C     C_R   0.608294 0.522204 0.759763 0.518668
C13   C     C_R   0.522450 0.445113 0.202836 0.020901
C14   C     C_R   0.543574 0.469423 0.795291 -0.003875
C15   C     C_R   0.817566 0.523944 0.447286 -0.271475
C16   C     C_R   0.181728 0.475010 0.549966 -0.253297
C17   C     C_R   0.768086 0.500552 0.498872 -0.065580
C18   C     C_R   0.231636 0.500860 0.499194 -0.077076
C19   C     C_R   0.808589 0.474284 0.550057 -0.186479
C20   C     C_R   0.191528 0.537920 0.450499 -0.202024
C21   C     C_R   0.901798 0.478601 0.552111 0.037585
C22   C     C_R   0.098126 0.537149 0.448823 0.030530
C23   C     C_R   0.499855 0.499704 0.388232 0.895904
C24   C     C_R   0.500628 0.500710 0.611653 0.906986
C25   C     C_R   0.953085 0.506171 0.500137 -0.018750
C26   C     C_R   0.046546 0.509009 0.500474 -0.027138
C27   C     C_R   0.910696 0.527428 0.447140 0.014555
C28   C     C_R   0.088968 0.483257 0.552487 0.020620
C29   C     C_R   0.944580 0.457635 0.604807 -0.138535
C30   C     C_R   0.055443 0.560707 0.396612 -0.127376
C31   C     C_R   0.038515 0.465674 0.605793 0.415474
C32   C     C_R   0.961803 0.551192 0.394995 0.402267
C33   C     C_R   0.552548 0.799531 0.458794 0.491656
C34   C     C_R   0.480856 0.200523 0.551801 0.472382
C35   C     C_R   0.450999 0.799295 0.543226 0.535926
C36   C     C_R   0.521611 0.198603 0.448913 0.492220
C37   C     C_R   0.462229 0.898937 0.549083 -0.178575
C38   C     C_R   0.535626 0.099482 0.450941 -0.194977
C39   C     C_R   0.542995 0.898830 0.453091 -0.205354
C40   C     C_R   0.468454 0.099999 0.550970 -0.199269
C41   C     C_R   0.501099 0.949230 0.500633 -0.134950
C42   C     C_R   0.501166 0.049477 0.500726 -0.134233
C43   C     C_R   0.434858 0.948425 0.601527 0.385622
C44   C     C_R   0.578935 0.048905 0.403272 0.380373
C45   C     C_R   0.577650 0.948964 0.402811 0.380714
C46   C     C_R   0.432061 0.048854 0.600893 0.420643
C47   C     C_R   0.646054 0.418035 0.873849 0.571740
C48   C     C_R   0.491183 0.329166 0.121620 0.622205
C49   C     C_R   0.499382 0.354827 0.873864 0.559350
C50   C     C_R   0.633665 0.399880 0.121877 0.583204
C51   C     C_R   0.498616 0.334979 0.934909 -0.162991
C52   C     C_R   0.645989 0.390387 0.059713 -0.152666
C53   C     C_R   0.573685 0.364903 0.966084 -0.137238
C54   C     C_R   0.571493 0.359298 0.028240 -0.152891
C55   C     C_R   0.651960 0.397585 0.934666 -0.195088
C56   C     C_R   0.496323 0.318905 0.059386 -0.202000
C57   C     C_R   0.425636 0.287947 0.965864 0.396989
C58   C     C_R   0.728059 0.412364 0.028134 0.390396
C59   C     C_R   0.428446 0.273250 0.027394 0.391794
C60   C     C_R   0.732306 0.409549 0.965408 0.390538
H1    H     H_    0.782847 0.539208 0.407587 0.181088
H2    H     H_    0.216008 0.449986 0.587382 0.195206
H3    H     H_    0.766464 0.452747 0.588336 0.132033
H4    H     H_    0.233849 0.563739 0.413444 0.147724
N1    N     N_R   0.563497 0.415950 0.848771 -0.334857
N2    N     N_R   0.548445 0.392055 0.148167 -0.335598
N3    N     N_R   0.500000 0.750030 0.500000 -0.209036
N4    N     N_R   0.500000 0.249970 0.500000 -0.204646
O1    O     O_R   0.367850 0.580280 0.500010 -0.638319
O2    O     O_R   0.632150 0.419720 0.499990 -0.620918
O3    O     O_R   0.632150 0.580280 0.499990 -0.618343
O4    O     O_R   0.367850 0.419720 0.500010 -0.613425
O5    O     O_R   0.499970 0.580290 0.416160 -0.591362
O6    O     O_R   0.500030 0.419710 0.583840 -0.574887
O7    O     O_R   0.500030 0.580290 0.583840 -0.573058
O8    O     O_R   0.499970 0.419710 0.416160 -0.586141
O9    O     O_2   0.721775 0.434902 0.840446 -0.487838
O10   O     O_2   0.434248 0.273994 0.154758 -0.505097
O11   O     O_2   0.438911 0.311349 0.839682 -0.542951
O12   O     O_2   0.705133 0.413728 0.155507 -0.546831
Zn1   Zn    Zn3+2 0.500000 0.607200 0.500000 0.985966
Zn2   Zn    Zn3+2 0.500000 0.392800 0.500000 0.974913
O13   O     O_3   0.350217 0.257091 0.937031 -0.609638
C61   C     C_3   0.287384 0.331025 0.935620 0.175848
H5    H     H_    0.264072 0.334399 0.889607 0.197578
H6    H     H_    0.315875 0.402333 0.946690 0.113881
C62   C     C_3   0.205641 0.310289 0.977613 -0.356511
H7    H     H_    0.175549 0.240223 0.966503 0.233303
H8    H     H_    0.226671 0.308846 0.024051 0.259071
C63   C     C_3   0.134849 0.386172 0.973488 -0.986358
H9    H     H_    0.165168 0.457609 0.979984 0.275766
H10   H     H_    0.081484 0.374888 0.008936 0.265598
H11   H     H_    0.104339 0.382613 0.929478 0.275045
O14   O     O_3   0.806103 0.428420 0.058017 -0.622245
C64   C     C_3   0.831710 0.525242 0.055909 0.157888
H12   H     H_    0.813294 0.557823 0.099761 0.182449
H13   H     H_    0.798840 0.566339 0.021160 0.128396
C65   C     C_3   0.933753 0.533642 0.044837 -0.360559
H14   H     H_    0.967687 0.491213 0.078067 0.219910
H15   H     H_    0.952673 0.505452 0.999810 0.252488
C66   C     C_3   0.966625 0.636107 0.049132 -0.950160
H16   H     H_    0.933923 0.679956 0.016081 0.270598
H17   H     H_    0.040566 0.639812 0.039859 0.271005
H18   H     H_    0.951216 0.664912 0.094505 0.268355
O15   O     O_3   0.082418 0.451822 0.657860 -0.650011
C67   C     C_3   0.073085 0.532003 0.695945 0.126377
H19   H     H_    0.096543 0.511540 0.739991 0.184895
H20   H     H_    0.001753 0.552906 0.703622 0.139829
C68   C     C_3   0.130030 0.617396 0.673445 -0.389653
H21   H     H_    0.200171 0.596040 0.662223 0.243098
H22   H     H_    0.101600 0.645584 0.632683 0.211021
C69   C     C_3   0.131215 0.695920 0.720391 -0.942039
H23   H     H_    0.061735 0.719653 0.731842 0.270851
H24   H     H_    0.171661 0.757062 0.703042 0.253852
H25   H     H_    0.161879 0.670637 0.761152 0.269687
O16   O     O_3   0.920510 0.564691 0.342006 -0.631273
C70   C     C_3   0.916994 0.476940 0.311399 0.060375
H26   H     H_    0.863674 0.430503 0.332606 0.148515
H27   H     H_    0.982578 0.439828 0.311303 0.141945
C71   C     C_3   0.895026 0.493317 0.246851 -0.310182
H28   H     H_    0.826822 0.523584 0.245263 0.248673
H29   H     H_    0.944731 0.544378 0.226353 0.230175
C72   C     C_3   0.898345 0.401004 0.211209 -0.866283
H30   H     H_    0.966295 0.370015 0.211913 0.239461
H31   H     H_    0.883833 0.414785 0.164363 0.311668
H32   H     H_    0.847520 0.349556 0.229910 0.282039
O17   O     O_3   0.618905 0.753595 0.425430 -0.591406
C73   C     C_3   0.699780 0.756856 0.456567 0.185104
H33   H     H_    0.736477 0.691688 0.444926 0.186517
H34   H     H_    0.688492 0.757240 0.506014 0.120173
C74   C     C_3   0.761698 0.839913 0.437464 -0.372795
H35   H     H_    0.768529 0.842618 0.388166 0.276845
H36   H     H_    0.732937 0.906985 0.454931 0.202714
C75   C     C_3   0.855159 0.830109 0.461571 -0.954866
H37   H     H_    0.850480 0.827127 0.510901 0.267904
H38   H     H_    0.897993 0.891982 0.447962 0.266980
H39   H     H_    0.887460 0.764955 0.443582 0.281294
O18   O     O_3   0.479059 0.247249 0.605858 -0.589988
C76   C     C_3   0.563885 0.237971 0.631220 0.133757
H40   H     H_    0.609697 0.296150 0.615028 0.153421
H41   H     H_    0.597341 0.169645 0.619858 0.103796
C77   C     C_3   0.551603 0.243604 0.698975 -0.288782
H42   H     H_    0.508303 0.303734 0.712073 0.256604
H43   H     H_    0.517581 0.177976 0.715777 0.258613
C78   C     C_3   0.641620 0.255791 0.727994 -0.923177
H44   H     H_    0.686840 0.196867 0.714763 0.258258
H45   H     H_    0.630524 0.255815 0.777095 0.281553
H46   H     H_    0.674258 0.323983 0.714601 0.279429
O19   O     O_3   0.385797 0.753239 0.578668 -0.619864
C79   C     C_3   0.304321 0.747234 0.548099 0.124353
H47   H     H_    0.268351 0.681409 0.562634 0.179392
H48   H     H_    0.315453 0.742707 0.498711 0.143551
C80   C     C_3   0.240795 0.828660 0.563507 -0.463347
H49   H     H_    0.220695 0.826700 0.611436 0.218567
H50   H     H_    0.274329 0.897421 0.552841 0.207976
C81   C     C_3   0.155544 0.819848 0.528618 -0.916069
H51   H     H_    0.172531 0.823849 0.480110 0.264429
H52   H     H_    0.109782 0.878475 0.541448 0.265645
H53   H     H_    0.119928 0.751658 0.538398 0.263859
O20   O     O_3   0.529458 0.242225 0.394536 -0.595141
C82   C     C_3   0.443902 0.243161 0.369483 0.176319
H54   H     H_    0.451022 0.292756 0.332283 0.186619
H55   H     H_    0.390602 0.269917 0.401616 0.135616
C83   C     C_3   0.414642 0.148440 0.341851 -0.434755
H56   H     H_    0.468341 0.123564 0.309848 0.269655
H57   H     H_    0.401386 0.094754 0.376869 0.206779
C84   C     C_3   0.328654 0.159002 0.308462 -0.897446
H58   H     H_    0.273115 0.183619 0.339239 0.265290
H59   H     H_    0.308778 0.089640 0.289137 0.259740
H60   H     H_    0.339616 0.210421 0.271773 0.310546
O21   O     O_3   0.441542 0.902244 0.655244 -0.611597
C85   C     C_3   0.357816 0.890046 0.686736 0.166256
H61   H     H_    0.340325 0.813413 0.686897 0.183004
H62   H     H_    0.301466 0.926763 0.667320 0.082778
C86   C     C_3   0.366802 0.922984 0.751098 -0.336290
H63   H     H_    0.420492 0.882491 0.771368 0.230687
H64   H     H_    0.386336 0.999093 0.752100 0.257688
C87   C     C_3   0.278915 0.908464 0.787924 -0.977276
H65   H     H_    0.223946 0.948067 0.768469 0.263304
H66   H     H_    0.287402 0.934671 0.834003 0.279073
H67   H     H_    0.260203 0.832193 0.789636 0.270102
O22   O     O_3   0.620217 0.096511 0.355584 -0.617593
C88   C     C_3   0.714225 0.104142 0.362444 0.139764
H68   H     H_    0.747818 0.098105 0.317442 0.168152
H69   H     H_    0.741523 0.046527 0.389355 0.111041
C89   C     C_3   0.738948 0.200786 0.389149 -0.309433
H70   H     H_    0.709827 0.257660 0.362860 0.262165
H71   H     H_    0.710721 0.205687 0.435634 0.215966
C90   C     C_3   0.840659 0.216331 0.389355 -1.002272
H72   H     H_    0.871577 0.160396 0.415406 0.271765
H73   H     H_    0.855863 0.286076 0.410024 0.273017
H74   H     H_    0.870521 0.215530 0.343163 0.265976
O23   O     O_3   0.614087 0.900630 0.353782 -0.619873
C91   C     C_3   0.551400 0.895404 0.308475 0.139199
H75   H     H_    0.590417 0.886197 0.265534 0.170800
H76   H     H_    0.512591 0.961352 0.304506 0.123683
C92   C     C_3   0.486896 0.810265 0.317327 -0.339647
H77   H     H_    0.525979 0.745897 0.324741 0.271019
H78   H     H_    0.441044 0.822498 0.356980 0.200206
C93   C     C_3   0.430398 0.793500 0.263370 -0.978567
H79   H     H_    0.389856 0.856691 0.255136 0.268155
H80   H     H_    0.384083 0.732071 0.271610 0.271822
H81   H     H_    0.474466 0.777917 0.223340 0.266964
O24   O     O_3   0.395452 0.096821 0.649926 -0.621470
C94   C     C_3   0.301244 0.105820 0.644686 0.052009
H82   H     H_    0.268006 0.088350 0.688556 0.170029
H83   H     H_    0.271579 0.056854 0.611297 0.086212
C95   C     C_3   0.277671 0.207106 0.629783 -0.275499
H84   H     H_    0.309547 0.256344 0.661493 0.269156
H85   H     H_    0.303341 0.223942 0.583946 0.222343
C96   C     C_3   0.176030 0.220380 0.633508 -0.921541
H86   H     H_    0.142651 0.169668 0.603294 0.251758
H87   H     H_    0.160663 0.292961 0.619822 0.301154
H88   H     H_    0.148666 0.209685 0.679776 0.272640
O25   O     O_3   0.358637 0.223603 0.056328 -0.623038
C97   C     C_3   0.384149 0.128852 0.064289 0.159054
H89   H     H_    0.347164 0.102697 0.105097 0.182402
H90   H     H_    0.457250 0.121556 0.072041 0.123231
C98   C     C_3   0.357643 0.066625 0.011586 -0.357931
H91   H     H_    0.285630 0.077226 0.003010 0.245603
H92   H     H_    0.399077 0.086832 0.971203 0.245454
C99   C     C_3   0.372152 0.962298 0.023640 -0.978914
H93   H     H_    0.443993 0.950013 0.031761 0.267100
H94   H     H_    0.353243 0.919333 0.984473 0.274257
H95   H     H_    0.329722 0.939057 0.062946 0.268005
O26   O     O_3   0.814745 0.425254 0.935597 -0.611147
C100  C     C_3   0.849790 0.338137 0.914193 0.159405
H96   H     H_    0.903222 0.355004 0.879528 0.182804
H97   H     H_    0.798590 0.293262 0.892098 0.138059
C101  C     C_3   0.891410 0.282394 0.963713 -0.385052
H98   H     H_    0.934967 0.330059 0.989579 0.252917
H99   H     H_    0.837197 0.253435 0.994366 0.229139
C102  C     C_3   0.947233 0.200667 0.938442 -0.958340
H100  H     H_    0.904505 0.151289 0.912911 0.267048
H101  H     H_    0.975673 0.161537 0.975401 0.274415
H102  H     H_    0.003697 0.227649 0.908867 0.269300
C103  C     C_1   0.630884 0.580288 0.188137 0.210783
N5    N     N_1   0.671193 0.632693 0.157535 -0.246317
C104  C     C_1   0.380895 0.493407 0.819441 0.212685
N6    N     N_1   0.321763 0.510399 0.852870 -0.258774
C105  C     C_1   0.643194 0.592374 0.313974 0.199422
N7    N     N_1   0.700020 0.638504 0.333082 -0.159855
C106  C     C_1   0.351005 0.456987 0.696701 0.186058
N8    N     N_1   0.279182 0.437563 0.683189 -0.211679
C107  C     C_1   0.342418 0.435188 0.325304 0.184747
N9    N     N_1   0.274778 0.414913 0.349763 -0.225633
C108  C     C_1   0.660079 0.585182 0.662211 0.238322
N10   N     N_1   0.713018 0.626996 0.633169 -0.217391
O27   O     O_3   0.359948 0.408623 0.204042 -0.594373
C109  C     C_3   0.331792 0.485249 0.170441 0.086694
H103  H     H_    0.381816 0.500820 0.133231 0.125686
H104  H     H_    0.322671 0.549701 0.198942 0.134246
C110  C     C_3   0.241668 0.458745 0.144582 -0.273713
H105  H     H_    0.249376 0.393601 0.116988 0.245477
H106  H     H_    0.191060 0.444069 0.181461 0.229030
C111  C     C_3   0.207878 0.537673 0.106417 -0.993768
H107  H     H_    0.199390 0.603547 0.133206 0.277059
H108  H     H_    0.141742 0.516420 0.089311 0.272766
H109  H     H_    0.255982 0.551248 0.068033 0.265322
O28   O     O_3   0.680381 0.570798 0.783242 -0.585075
C112  C     C_3   0.649463 0.642860 0.822970 0.108966
H110  H     H_    0.705764 0.662206 0.851616 0.183147
H111  H     H_    0.592710 0.619118 0.853687 0.112105
C113  C     C_3   0.623743 0.731018 0.789052 -0.381817
H112  H     H_    0.681430 0.753944 0.759070 0.245063
H113  H     H_    0.565461 0.714249 0.761530 0.225365
C114  C     C_3   0.598492 0.811949 0.831585 -0.944584
H114  H     H_    0.538958 0.791543 0.860651 0.263378
H115  H     H_    0.581738 0.874991 0.805708 0.273628
H116  H     H_    0.655668 0.830763 0.859600 0.264507
C115  C     C_1   0.893723 0.425789 0.657664 0.195842
N11   N     N_1   0.853227 0.400494 0.699910 -0.172650
C116  C     C_1   0.106468 0.589964 0.343236 0.227055
N12   N     N_1   0.147164 0.613165 0.300579 -0.223430

loop_
_geom_bond_atom_site_label_1
_geom_bond_atom_site_label_2
_ccdc_geom_bond_type
C16   C28   A    
C91   H76   S    
C62   H7    S    
C37   C43   A    
C66   H16   S    
C95   H85   S    
C2    O2    A    
C92   C93   S    
C76   H41   S    
C41   C42   A    
C64   H12   S    
C61   C62   S    
C23   O8    A    
O25   C97   S    
C74   C75   S    
C73   H33   S    
C32   O16   S    
C75   H39   S    
C69   H24   S    
C82   H54   S    
C64   C65   S    
C72   H30   S    
C39   C41   A    
C94   H82   S    
C71   H28   S    
C40   C46   A    
C33   N3    A    
C1    C18   S    
C11   O27   S    
C49   N1    A    
C63   H11   S    
C11   C13   A    
C34   C40   A    
C81   H51   S    
C35   C37   A    
C104  N6    T    
C61   H6    S    
C38   C42   A    
C97   H90   S    
C88   H69   S    
C112  H110  S    
C76   C77   S    
C59   O25   S    
C72   H31   S    
C91   C92   S    
C67   H19   S    
C58   C60   A    
C106  N8    T    
C65   H14   S    
C111  H109  S    
C33   O17   S    
O16   C70   S    
C101  C102  S    
C48   C56   A    
C105  N7    T    
C48   O10   S    
C92   H78   S    
C100  H96   S    
O22   C88   S    
C68   H22   S    
C78   H45   S    
C63   H10   S    
C14   N1    S    
C43   C46   A    
O13   C61   S    
C19   H3    S    
C93   H79   S    
C49   C51   A    
C79   C80   S    
C111  H108  S    
C50   C52   A    
C114  H116  S    
C57   O13   S    
O17   C73   S    
C5    C105  S    
C51   C57   A    
C80   H50   S    
C9    C107  S    
C102  H100  S    
C112  H111  S    
C3    C13   A    
C85   C86   S    
C39   C45   A    
C109  C110  S    
C40   C42   A    
C91   H75   S    
C89   H70   S    
C66   H17   S    
C55   C60   A    
C2    C17   S    
C4    C14   A    
C83   H57   S    
C31   O15   S    
C77   C78   S    
O14   C64   S    
C16   H2    S    
C23   O5    A    
C115  N11   T    
C113  C114  S    
C18   C20   A    
C10   C12   A    
O5    Zn1   S    
C69   H23   S    
C82   H55   S    
C52   C54   A    
C78   H44   S    
C84   H60   S    
C13   N2    S    
C53   C55   A    
C45   O23   S    
C102  H101  S    
C54   C56   A    
C1    O4    A    
C29   C115  S    
C87   H65   S    
C69   H25   S    
O1    Zn1   S    
C61   H5    S    
C86   H64   S    
C68   C69   S    
O8    Zn2   S    
C84   H58   S    
C5    C7    A    
C110  H106  S    
C43   O21   S    
C86   C87   S    
C95   H84   S    
C72   H32   S    
C75   H38   S    
C99   H95   S    
C3    C5    A    
C109  H103  S    
C53   C54   A    
C21   C29   A    
C34   O18   S    
C1    O1    A    
C49   O11   S    
C84   H59   S    
C50   O12   S    
C51   C53   A    
C20   H4    S    
C90   H74   S    
C99   H94   S    
C88   H68   S    
C28   C31   A    
C96   H86   S    
C38   C44   A    
C98   H92   S    
C9    C11   A    
C15   C27   A    
C86   H63   S    
C113  H113  S    
C35   N3    A    
C15   H1    S    
C114  H114  S    
C111  H107  S    
C36   N4    A    
C112  C113  S    
C64   H13   S    
C116  N12   T    
O27   C109  S    
C25   C26   A    
C33   C39   A    
C97   H89   S    
C80   C81   S    
C101  H99   S    
C50   N2    A    
O21   C85   S    
C52   C58   A    
C3    C103  S    
C6    C8    A    
C4    C6    A    
C96   H87   S    
C20   C22   A    
O23   C91   S    
C66   H18   S    
C65   H15   S    
C62   H8    S    
C95   C96   S    
O4    Zn2   S    
C79   H48   S    
C6    C106  S    
C70   C71   S    
C100  C101  S    
C47   O9    S    
C89   H71   S    
C2    O3    A    
C73   C74   S    
C44   O22   S    
C98   H91   S    
C78   H46   S    
C85   H61   S    
C71   H29   S    
C82   C83   S    
C47   C55   A    
C58   O14   S    
C94   C95   S    
C90   H72   S    
C15   C17   A    
C21   C25   A    
C83   H56   S    
C22   C30   A    
C19   C21   A    
C27   C32   A    
C77   H42   S    
C26   C28   A    
C81   H53   S    
O7    Zn1   S    
C44   C45   A    
C85   H62   S    
O28   C112  S    
C74   H36   S    
O6    Zn2   S    
C73   H34   S    
C110  C111  S    
C87   H66   S    
C76   H40   S    
C71   C72   S    
C24   O7    A    
N3    Zn1   S    
C75   H37   S    
O3    Zn1   S    
C46   O24   S    
C25   C27   A    
C65   C66   S    
C12   O28   S    
O15   C67   S    
C70   H26   S    
C56   C59   A    
C88   C89   S    
C97   C98   S    
N4    Zn2   S    
C16   C18   A    
C89   C90   S    
C70   H27   S    
C113  H112  S    
C101  H98   S    
C29   C31   A    
C100  H97   S    
C34   N4    A    
O19   C79   S    
O20   C82   S    
C36   C38   A    
C30   C32   A    
C114  H115  S    
C24   O6    A    
C63   H9    S    
C110  H105  S    
C67   H20   S    
C93   H81   S    
C7    C23   S    
C81   H52   S    
C8    C24   S    
C4    C104  S    
C60   O26   S    
C83   C84   S    
C37   C41   A    
C92   H77   S    
O2    Zn2   S    
C102  H102  S    
C103  N5    T    
C87   H67   S    
C57   C59   A    
O18   C76   S    
C36   O20   S    
C17   C19   A    
C7    C9    A    
C12   C14   A    
C96   H88   S    
O24   C94   S    
C30   C116  S    
C8    C10   A    
O26   C100  S    
C22   C26   A    
C62   C63   S    
C68   H21   S    
C79   H47   S    
C10   C108  S    
C35   O19   S    
C48   N2    A    
C80   H49   S    
C107  N9    T    
C94   H83   S    
C109  H104  S    
C99   H93   S    
C47   N1    A    
C93   H80   S    
C77   H43   S    
C74   H35   S    
C108  N10   T    
C90   H73   S    
C98   C99   S    
C67   C68   S    
