data_mof_unit_14200.cif
_audit_creation_date              2013-03-05T16:19:19-0500
_audit_creation_method            fapswitch 2.2
_symmetry_space_group_name_H-M    P1
_symmetry_Int_Tables_number       1
_space_group_crystal_system       triclinic
_cell_length_a                    11.016408
_cell_length_b                    9.970104
_cell_length_c                    23.359635
_cell_angle_alpha                 89.949893
_cell_angle_beta                  91.361118
_cell_angle_gamma                 91.503407
_cell_volume                      2564.09231452

loop_
_atom_site_label
_atom_site_type_symbol
_atom_site_description
_atom_site_fract_x
_atom_site_fract_y
_atom_site_fract_z
_atom_type_partial_charge
O1    O     O_R   0.314910 0.616040 0.499990 -0.575405
O2    O     O_R   0.314910 0.383960 0.499990 -0.600199
C1    C     C_R   0.258647 0.497999 0.505532 0.934584
O3    O     O_R   0.500080 0.616070 0.416130 -0.619295
O4    O     O_R   0.500080 0.383930 0.416130 -0.616669
C2    C     C_R   0.498651 0.500082 0.389701 0.904876
Zn1   Zn    Zn3+2 0.500150 0.654960 0.499970 0.940901
Zn2   Zn    Zn3+2 0.500150 0.345040 0.499970 0.928611
O5    O     O_R   0.685320 0.616040 0.499970 -0.634832
O6    O     O_R   0.685320 0.383960 0.499970 -0.633670
O7    O     O_R   0.500150 0.616010 0.583820 -0.623916
O8    O     O_R   0.500150 0.383990 0.583820 -0.640795
C3    C     C_R   0.741760 0.501332 0.495879 0.838234
C4    C     C_R   0.498851 0.499721 0.610064 0.867722
C5    C     C_R   0.568225 0.576827 0.879539 0.509369
N1    N     N_R   0.480497 0.501638 0.851258 -0.353644
C6    C     C_R   0.391424 0.432113 0.878838 0.502790
C7    C     C_R   0.388756 0.434165 0.938331 -0.004599
C8    C     C_R   0.479611 0.508584 0.969099 -0.056894
C9    C     C_R   0.571412 0.582061 0.939916 -0.034456
C10   C     C_R   0.297877 0.362642 0.967502 -0.156673
C11   C     C_R   0.296855 0.363427 0.026904 -0.157218
C12   C     C_R   0.386904 0.435433 0.058176 -0.007679
C13   C     C_R   0.478328 0.508498 0.029295 -0.021428
C14   C     C_R   0.568587 0.580611 0.060671 -0.059899
C15   C     C_R   0.658776 0.653670 0.032148 -0.147597
C16   C     C_R   0.661858 0.656082 0.972315 0.165178
C17   C     C_R   0.388274 0.436020 0.117963 0.509875
N2    N     N_R   0.477810 0.505659 0.147530 -0.358059
C18   C     C_R   0.567011 0.577169 0.120433 0.515399
O9    O     O_2   0.651295 0.644921 0.848649 -0.565580
O10   O     O_2   0.306301 0.360723 0.848473 -0.553221
H1    H     H_    0.227424 0.305384 0.944539 0.193482
H2    H     H_    0.225742 0.306885 0.048184 0.194982
O11   O     O_2   0.300898 0.368189 0.146464 -0.539294
O12   O     O_2   0.654487 0.643483 0.151406 -0.553209
H3    H     H_    0.727870 0.709373 0.056717 0.195874
C19   C     C_R   0.457991 0.620325 0.238774 -0.083516
H4    H     H_    0.437135 0.712198 0.216256 0.148322
C20   C     C_R   0.464829 0.619495 0.298090 -0.181176
H5    H     H_    0.448042 0.711498 0.320881 0.168142
C21   C     C_R   0.492396 0.500703 0.327392 -0.035474
C22   C     C_R   0.511977 0.382593 0.296711 -0.201164
H6    H     H_    0.533258 0.289844 0.318469 0.155564
C23   C     C_R   0.505765 0.383984 0.237310 -0.087177
H7    H     H_    0.522791 0.293331 0.213626 0.146314
C24   C     C_R   0.479243 0.502923 0.208422 0.305594
C25   C     C_R   0.413126 0.586300 0.758839 -0.129699
H8    H     H_    0.356119 0.656357 0.780329 0.155473
C26   C     C_R   0.417960 0.587026 0.699661 -0.233643
H9    H     H_    0.362039 0.655652 0.675632 0.184641
C27   C     C_R   0.493174 0.498222 0.671947 -0.067312
C28   C     C_R   0.560738 0.405599 0.703487 -0.219781
H10   H     H_    0.618677 0.337108 0.681824 0.144696
C29   C     C_R   0.555900 0.403468 0.763059 0.241396
C30   C     C_R   0.482393 0.495879 0.790480 0.319294
C31   C     C_3   0.067131 0.602443 0.546869 -0.031570
C32   C     C_3   0.058752 0.361608 0.530608 -0.027275
H11   H     H_    0.070322 0.563208 0.591307 0.125020
H12   H     H_    0.067553 0.367715 0.577925 0.129624
C33   C     C_3   0.931493 0.621098 0.533734 -0.045990
C34   C     C_3   0.921859 0.359583 0.516858 -0.029501
H13   H     H_    0.881993 0.619176 0.574849 0.147800
H14   H     H_    0.874310 0.336146 0.557435 0.150650
H15   H     H_    0.903190 0.616355 0.415555 0.193702
H16   H     H_    0.896912 0.444765 0.404193 0.186977
C35   C     C_3   0.074992 0.516151 0.440107 0.310251
C36   C     C_3   0.121238 0.494422 0.505132 -0.104443
C37   C     C_3   0.879187 0.501785 0.495100 -0.017405
C38   C     C_3   0.933301 0.521002 0.434967 -0.421287
C39   C     C_3   0.385647 0.075661 0.474805 -0.291610
C40   C     C_3   0.378775 0.918838 0.485263 -0.278671
H17   H     H_    0.376670 0.095581 0.427900 0.185102
H18   H     H_    0.338321 0.869124 0.446725 0.212897
H19   H     H_    0.308549 0.125535 0.490769 0.231045
H20   H     H_    0.316766 0.899141 0.519937 0.214999
H21   H     H_    0.585309 0.129036 0.416916 0.170160
H22   H     H_    0.536905 0.898580 0.410020 0.166272
C41   C     C_3   0.591814 0.081084 0.459862 -0.311313
C42   C     C_3   0.577513 0.921815 0.453155 -0.288461
C43   C     C_3   0.526295 0.085633 0.558113 0.463003
C44   C     C_3   0.545704 0.923013 0.556843 0.462599
N3    N     N_3   0.499750 0.138610 0.498760 -0.073861
N4    N     N_3   0.499750 0.861390 0.498760 -0.067534
H23   H     H_    0.683610 0.105208 0.475460 0.165286
H24   H     H_    0.666509 0.873937 0.451806 0.165829
C45   C     C_3   0.628905 0.304194 0.796986 -0.876050
H25   H     H_    0.695342 0.358209 0.825689 0.257399
H26   H     H_    0.567364 0.240647 0.823204 0.250977
H27   H     H_    0.679829 0.237371 0.768668 0.237181
I1    I     I_    0.156295 0.771192 0.586699 -0.459511
I2    I     I_    0.117133 0.163701 0.549382 -0.466605
C46   C     C_3   0.917045 0.762788 0.507274 -0.771389
H28   H     H_    0.993638 0.792236 0.480072 0.287254
H29   H     H_    0.835438 0.772748 0.479909 0.235334
H30   H     H_    0.917285 0.838233 0.542013 0.266246
C47   C     C_3   0.890722 0.242837 0.473881 -0.754125
H31   H     H_    0.966525 0.221986 0.445613 0.281113
H32   H     H_    0.873702 0.148482 0.497708 0.230880
H33   H     H_    0.812945 0.261414 0.444482 0.229940
I3    I     I_    0.148177 0.692781 0.397750 -0.363733
I4    I     I_    0.141312 0.362552 0.383977 -0.316428
C48   C     C_3   0.644246 0.154259 0.586359 -0.801809
H34   H     H_    0.729278 0.128587 0.565994 0.201653
H35   H     H_    0.655630 0.261961 0.585363 0.275349
H36   H     H_    0.652745 0.124861 0.632128 0.202387
C49   C     C_3   0.681362 0.884868 0.566944 -0.877580
H37   H     H_    0.741065 0.929204 0.534678 0.208600
H38   H     H_    0.718318 0.917588 0.609509 0.232825
H39   H     H_    0.691206 0.775822 0.568250 0.291152
C50   C     C_3   0.416302 0.126302 0.595872 -0.791385
H40   H     H_    0.443551 0.151015 0.640841 0.237704
H41   H     H_    0.368045 0.212665 0.578496 0.292646
H42   H     H_    0.343310 0.048161 0.596490 0.237843
C51   C     C_3   0.487036 0.862768 0.612272 -0.796280
H43   H     H_    0.544578 0.792349 0.636828 0.253025
H44   H     H_    0.481636 0.933921 0.648217 0.207511
H45   H     H_    0.397194 0.818694 0.603332 0.263958
C52   C     C_3   0.763186 0.737848 0.945596 -0.759578
H46   H     H_    0.820768 0.671839 0.920040 0.267538
H47   H     H_    0.724805 0.818444 0.918394 0.266321
H48   H     H_    0.823778 0.787687 0.978276 0.209202

loop_
_geom_bond_atom_site_label_1
_geom_bond_atom_site_label_2
_geom_bond_distance
_ccdc_geom_bond_type
C32   C34   1.534028 S    
C19   C20   1.385895 A    
C45   H25   1.109907 S    
C46   H28   1.101852 S    
C7    C10   1.403309 A    
C1    C36   1.513047 S    
C42   N4    1.498964 S    
C43   C44   1.641310 S    
C28   H10   1.081018 S    
Zn1   O7    1.996495 S    
C15   C16   1.399079 A    
N2    C24   1.422380 S    
O4    C2    1.312139 A    
C17   N2    1.365479 A    
C44   C51   1.572589 S    
C19   H4    1.083032 S    
O7    C4    1.310943 A    
C33   C46   1.551958 S    
C31   H11   1.109099 S    
C10   H1    1.083296 S    
C32   H12   1.108830 S    
C5    N1    1.365629 A    
Zn2   N3    2.058236 S    
Zn1   O5    2.086465 S    
C7    C8    1.413031 A    
C23   C24   1.397982 A    
C33   H13   1.115572 S    
O5    C3    1.320599 A    
C34   H14   1.115454 S    
C43   N3    1.508087 S    
C48   H35   1.078119 S    
C4    C27   1.448435 S    
C43   C50   1.577301 S    
C17   O11   1.350050 S    
N1    C6    1.360888 A    
C51   H44   1.103371 S    
C26   C27   1.398065 A    
C49   H37   1.097166 S    
C50   H42   1.105169 S    
C40   H20   1.086395 S    
C52   H47   1.110146 S    
Zn1   N4    2.058418 S    
C46   H29   1.097258 S    
C10   C11   1.387934 A    
C49   H38   1.111406 S    
O3    Zn1   1.996796 S    
C47   H32   1.106668 S    
C47   H31   1.100987 S    
C39   N3    1.487584 S    
C28   C29   1.393971 A    
C5    C9    1.410960 A    
C11   H2    1.083272 S    
C35   C36   1.606938 S    
C13   C14   1.404131 A    
C40   H18   1.106730 S    
C39   H17   1.115895 S    
C26   H9    1.080628 S    
C14   C15   1.397959 A    
C23   H7    1.082973 S    
C34   C37   1.584843 S    
O1    C1    1.323344 A    
C22   H6    1.083189 S    
N1    C30   1.421622 S    
N2    C18   1.366235 A    
C34   C47   1.563685 S    
Zn2   O8    1.997161 S    
C51   H45   1.088029 S    
C29   C30   1.407042 A    
C6    C7    1.390909 A    
H21   C41   1.112500 S    
C50   H41   1.096328 S    
C12   C17   1.396348 A    
C5    O9    1.347950 S    
C25   C26   1.384668 A    
C22   C23   1.387725 A    
C19   C24   1.396894 A    
C40   N4    1.491088 S    
C32   C36   1.597399 S    
C20   H5    1.083260 S    
O8    C4    1.307649 A    
C46   H30   1.106884 S    
C44   N4    1.557939 S    
C45   H26   1.110246 S    
C49   H39   1.095744 S    
O3    C2    1.310919 A    
C21   C22   1.403214 A    
C31   C36   1.590229 S    
C41   H23   1.087729 S    
C47   H33   1.104640 S    
C27   C28   1.399446 A    
C35   I3    2.165767 S    
C43   C48   1.582824 S    
C52   H48   1.110981 S    
C33   C37   1.582013 S    
C14   C18   1.396929 A    
C25   C30   1.396218 A    
C25   H8    1.083006 S    
C31   I1    2.129261 S    
C50   H40   1.111713 S    
O1    Zn1   2.067229 S    
O2    Zn2   2.087232 S    
O6    C3    1.315135 A    
O4    Zn2   1.996138 S    
C52   H46   1.110167 S    
C15   H3    1.083876 S    
C31   C33   1.534339 S    
C9    C16   1.427159 A    
C16   C52   1.511509 S    
C42   H24   1.102781 S    
C18   O12   1.350392 S    
C35   C38   1.564701 S    
C8    C9    1.420275 A    
O2    C1    1.317084 A    
C39   C40   1.582421 S    
C39   H19   1.070156 S    
H16   C38   1.107453 S    
C3    C37   1.514379 S    
C20   C21   1.403934 A    
C8    C13   1.406556 A    
C48   H36   1.110812 S    
H22   C42   1.114727 S    
C29   C45   1.504889 S    
C37   C38   1.548737 S    
C12   C13   1.411780 A    
C41   C42   1.599069 S    
C41   N3    1.502805 S    
Zn2   O6    2.066462 S    
C2    C21   1.455539 S    
C45   H27   1.110940 S    
C48   H34   1.096940 S    
C6    O10   1.350338 S    
C11   C12   1.400808 A    
C44   C49   1.564175 S    
H15   C38   1.108194 S    
C32   I2    2.133296 S    
C51   H43   1.108679 S    
C35   I4    2.169305 S    
