data_mof_unit_42674.cif
_audit_creation_date              2012-12-10T18:46:14-0500
_audit_creation_method            fapswitch 2.2
_symmetry_space_group_name_H-M    P1
_symmetry_Int_Tables_number       1
_space_group_crystal_system       triclinic
_cell_length_a                    9.895967
_cell_length_b                    10.704643
_cell_length_c                    13.025617
_cell_angle_alpha                 91.257929
_cell_angle_beta                  68.731507
_cell_angle_gamma                 89.977527
_cell_volume                      1285.49866129

loop_
_atom_site_label
_atom_site_type_symbol
_atom_type_description
_atom_site_fract_x
_atom_site_fract_y
_atom_site_fract_z
_atom_type_partial_charge
C1    C     C_R   0.500465 0.739969 0.499199 0.939098
C2    C     C_R   0.443115 0.483337 0.981971 0.137430
C3    C     C_R   0.464114 0.440372 0.874402 0.100658
C4    C     C_R   0.558047 0.470888 0.021401 0.042585
C5    C     C_R   0.673225 0.386388 0.966233 0.099009
C6    C     C_R   0.684781 0.332186 0.865088 -0.207122
C7    C     C_R   0.583379 0.361017 0.818402 -0.144373
C8    C     C_R   0.559740 0.535899 0.116145 -0.161182
C9    C     C_R   0.750706 0.395305 0.121742 0.363481
C10   C     C_R   0.362970 0.474586 0.826305 -0.201103
C11   C     C_R   0.604224 0.937123 0.527925 -0.139104
C12   C     C_R   0.417941 0.491273 0.705395 0.908024
C13   C     C_R   0.603757 0.065006 0.528483 -0.174979
C14   C     C_R   0.501235 0.127629 0.497634 -0.006206
C15   C     C_R   0.400306 0.063242 0.464844 -0.173744
C16   C     C_R   0.401003 0.935085 0.464189 -0.141389
C17   C     C_R   0.501836 0.872508 0.497071 -0.037002
C18   C     C_R   0.956609 0.411721 0.440996 -0.128286
C19   C     C_R   0.099423 0.410722 0.442199 -0.098621
C20   C     C_R   0.043812 0.590958 0.557126 -0.080843
C21   C     C_R   0.898630 0.587210 0.560749 0.403140
C22   C     C_R   0.500332 0.260084 0.499204 0.857904
C23   C     C_R   0.582186 0.498251 0.294764 0.968169
C24   C     C_R   0.772220 0.353528 0.015032 -0.191106
C25   C     C_R   0.638787 0.482906 0.174939 -0.218441
C26   C     C_R   0.220157 0.509564 0.896690 -0.046354
C27   C     C_R   0.193362 0.535656 0.008244 -0.142213
C28   C     C_R   0.304279 0.527241 0.049544 -0.138060
H1    H     H_    0.682112 0.114524 0.554170 0.162333
H2    H     H_    0.322079 0.111580 0.439136 0.160877
H3    H     H_    0.323873 0.885293 0.437444 0.201341
H4    H     H_    0.925293 0.340593 0.393978 0.203505
H5    H     H_    0.175552 0.339055 0.395809 0.154504
H6    H     H_    0.772096 0.267237 0.822093 0.158229
H7    H     H_    0.859171 0.287470 0.973948 0.187542
H8    H     H_    0.277631 0.547515 0.136438 0.145057
H9    H     H_    0.085584 0.562001 0.064159 0.194120
H10   H     H_    0.594614 0.315088 0.740802 0.151743
H11   H     H_    0.683385 0.889496 0.552672 0.218703
N1    N     N_R   0.142790 0.500030 0.500030 -0.127273
N2    N     N_R   0.857180 0.499940 0.500010 -0.116540
O1    O     O_R   0.385370 0.683250 0.500010 -0.607594
O2    O     O_R   0.614700 0.683220 0.500010 -0.582410
O3    O     O_R   0.328400 0.499990 0.653620 -0.544454
O4    O     O_R   0.557730 0.499960 0.653620 -0.574920
O5    O     O_R   0.385300 0.316780 0.499990 -0.626187
O6    O     O_R   0.614630 0.316750 0.499990 -0.630754
O7    O     O_R   0.442270 0.500040 0.346380 -0.607294
O8    O     O_R   0.671600 0.500010 0.346380 -0.564927
Zn1   Zn    Zn3+2 0.346870 0.500020 0.500000 1.014391
Zn2   Zn    Zn3+2 0.653130 0.499980 0.500000 1.027829
Cl1   Cl    Cl    0.861599 0.329311 0.186277 -0.647613
C29   C     C_2   0.086774 0.698237 0.611233 1.023756
O9    O     O_2   0.141004 0.681918 0.680240 -0.588089
O10   O     O_R   0.059801 0.819680 0.585685 -0.798072
H12   H     H_    0.091212 0.885731 0.629196 0.345740
Cl2   Cl    Cl    0.768310 0.689704 0.651879 -0.557922
C30   C     C_2   0.502401 0.667289 0.141828 0.933800
O11   O     O_2   0.480244 0.716363 0.232190 -0.646177
O12   O     O_R   0.482157 0.737793 0.059247 -0.760471
H13   H     H_    0.445213 0.825537 0.085551 0.353833
C31   C     C_2   0.094295 0.509624 0.860648 1.000379
O13   O     O_2   0.997161 0.587192 0.899414 -0.587417
O14   O     O_R   0.081662 0.416384 0.787852 -0.794325
H14   H     H_    0.991136 0.426753 0.769560 0.335386

loop_
_geom_bond_atom_site_label_1
_geom_bond_atom_site_label_2
_ccdc_geom_bond_type
O6    Zn2   S    
O10   H12   S    
C9    C24   A    
C21   Cl2   S    
C31   O13   D    
C12   O4    A    
N2    Zn2   S    
C2    C28   A    
O5    Zn1   S    
C29   O10   S    
C1    C17   S    
C4    C8    A    
O14   H14   S    
C10   C26   A    
O7    Zn1   S    
C22   O6    A    
C26   C31   S    
C9    C25   A    
C12   O3    A    
C3    C10   A    
C13   C14   A    
C16   H3    S    
C11   H11   S    
C8    C25   A    
C11   C13   A    
O2    Zn2   S    
C26   C27   A    
C6    C7    A    
C9    Cl1   S    
C10   C12   S    
C27   H9    S    
N1    Zn1   S    
C2    C4    A    
C20   C29   S    
C13   H1    S    
C22   O5    A    
C7    H10   S    
O1    Zn1   S    
C2    C3    A    
C3    C7    A    
C23   C25   S    
C5    C6    A    
C20   N1    A    
C21   N2    A    
C23   O8    A    
C24   H7    S    
C18   H4    S    
C19   N1    A    
O4    Zn2   S    
C30   O12   S    
C15   C16   A    
C5    C24   A    
C4    C5    A    
C1    O1    A    
C20   C21   A    
C28   H8    S    
C15   H2    S    
C14   C22   S    
C18   C19   A    
C19   H5    S    
C18   N2    A    
O3    Zn1   S    
C27   C28   A    
C14   C15   A    
O12   H13   S    
C31   O14   S    
C23   O7    A    
C8    C30   S    
C30   O11   D    
C29   O9    D    
C1    O2    A    
C11   C17   A    
C6    H6    S    
C16   C17   A    
O8    Zn2   S    
