data_mof_unit_8766.cif
_audit_creation_date              2012-12-11T16:05:07-0500
_audit_creation_method            fapswitch 2.2
_symmetry_space_group_name_H-M    P1
_symmetry_Int_Tables_number       1
_space_group_crystal_system       triclinic
_cell_length_a                    10.619262
_cell_length_b                    10.621296
_cell_length_c                    16.861659
_cell_angle_alpha                 98.50283
_cell_angle_beta                  98.586916
_cell_angle_gamma                 61.474361
_cell_volume                      1645.79821132

loop_
_atom_site_label
_atom_site_type_symbol
_atom_type_description
_atom_site_fract_x
_atom_site_fract_y
_atom_site_fract_z
_atom_type_partial_charge
Br1   Br    Br    0.494740 0.467029 0.753487 -0.503614
C1    C     C_R   0.382228 0.708082 0.386344 0.550979
C2    C     C_3   0.289991 0.720416 0.233118 -0.111836
C3    C     C_3   0.367336 0.759835 0.309167 0.045377
C4    C     C_R   0.369903 0.346465 0.358909 0.527655
C5    C     C_3   0.483832 0.751441 0.261270 -0.114765
C6    C     C_3   0.390220 0.914267 0.250527 -0.142520
C7    C     C_3   0.275772 0.920793 0.299911 -0.118982
C8    C     C_3   0.197568 0.882214 0.223292 -0.123812
C9    C     C_3   0.311865 0.875859 0.174732 0.066526
C10   C     C_3   0.432980 0.219196 0.763804 -0.067674
C11   C     C_3   0.379755 0.367412 0.734756 0.171559
C12   C     C_3   0.739166 0.381884 0.253976 -0.109977
C13   C     C_3   0.321975 0.317942 0.654300 0.048440
C14   C     C_3   0.374092 0.169167 0.683140 -0.146771
C15   C     C_3   0.226343 0.225173 0.716353 -0.176834
C16   C     C_R   0.784168 0.373280 0.405061 0.526697
C17   C     C_3   0.174219 0.375072 0.685754 -0.153245
C18   C     C_3   0.232978 0.425055 0.767340 -0.079263
C19   C     C_3   0.285929 0.276163 0.796147 0.017072
C20   C     C_1   0.847502 0.328150 0.705536 -0.006045
C21   C     C_1   0.893251 0.294977 0.773007 -0.016541
C22   C     C_1   0.335578 0.817965 0.708700 -0.006894
C23   C     C_3   0.845654 0.336334 0.328987 0.060635
C24   C     C_1   0.311167 0.843981 0.777682 -0.002016
C25   C     C_R   0.960062 0.283865 0.102831 0.547960
C26   C     C_R   0.319737 0.300257 0.120021 0.540728
C27   C     C_R   0.265713 0.943773 0.100159 0.528215
C28   C     C_R   0.355015 0.775086 0.626353 0.569977
C29   C     C_R   0.942525 0.275983 0.855936 0.543938
C30   C     C_R   0.276557 0.250927 0.877292 0.542337
C31   C     C_R   0.279780 0.885530 0.858705 0.561113
C32   C     C_R   0.363971 0.342721 0.582466 0.566900
C33   C     C_R   0.779816 0.376682 0.628430 0.571011
C34   C     C_3   0.936980 0.189373 0.286798 -0.139549
C35   C     C_1   0.343623 0.336641 0.275073 -0.065346
C36   C     C_1   0.332291 0.326937 0.203736 -0.069074
C37   C     C_3   0.831528 0.234521 0.210151 -0.105847
C38   C     C_3   0.470426 0.604707 0.114047 -0.361810
C39   C     C_3   0.026575 0.252877 0.258939 -0.155177
C40   C     C_3   0.933406 0.400664 0.302976 -0.115524
C41   C     C_3   0.827345 0.445969 0.227118 -0.108377
C42   C     C_3   0.919615 0.298844 0.183964 0.048246
C43   C     C_3   0.403856 0.715264 0.184158 -0.002433
Cr1   Cr    Cr6+3 0.608340 0.611040 0.520430 1.030186
Cr2   Cr    Cr6+3 0.287650 0.601120 0.489350 1.025059
Cr3   Cr    Cr6+3 0.604040 0.287870 0.490280 1.034847
Cr4   Cr    Cr6+3 0.054020 0.052700 0.970850 1.025125
Cr5   Cr    Cr6+3 0.059230 0.375120 0.993390 1.022525
Cr6   Cr    Cr6+3 0.374950 0.061200 0.992340 1.020650
H1    H     H_    0.621003 0.433271 0.256717 0.103665
H2    H     H_    0.789694 0.166925 0.170587 0.135023
H3    H     H_    0.974530 0.089124 0.316125 0.118207
H4    H     H_    0.144944 0.202570 0.258099 0.095131
H5    H     H_    0.975044 0.468119 0.342880 0.128154
H6    H     H_    0.784040 0.550255 0.200931 0.128736
H7    H     H_    0.250004 0.639947 0.227693 0.119030
H8    H     H_    0.599994 0.699363 0.281619 0.120870
H9    H     H_    0.559380 0.617057 0.095186 0.160611
H10   H     H_    0.511850 0.494274 0.131348 0.123276
H11   H     H_    0.387451 0.621200 0.062505 0.174412
H12   H     H_    0.429582 0.995231 0.255586 0.125897
H13   H     H_    0.227193 0.002165 0.350627 0.127532
H14   H     H_    0.080803 0.932487 0.203846 0.126280
H15   H     H_    0.540621 0.156071 0.795509 0.162257
H16   H     H_    0.431238 0.064727 0.647272 0.132835
H17   H     H_    0.164940 0.163685 0.710349 0.093163
H18   H     H_    0.068968 0.438282 0.651903 0.135018
H19   H     H_    0.176320 0.529956 0.802895 0.153604
O1    O     O_R   0.751220 0.499230 0.435170 -0.535415
O2    O     O_R   0.412990 0.180750 0.091610 -0.508466
O3    O     O_R   0.366620 0.943130 0.065760 -0.491762
O4    O     O_R   0.477220 0.727600 0.436870 -0.502359
O5    O     O_R   0.160510 0.906330 0.879210 -0.508638
O6    O     O_R   0.930190 0.179050 0.889450 -0.470606
O7    O     O_R   0.909140 0.398170 0.896710 -0.479245
O8    O     O_R   0.186190 0.363460 0.918830 -0.505804
O9    O     O_R   0.401670 0.173200 0.913310 -0.501201
O10   O     O_R   0.356120 0.936130 0.900470 -0.505881
O11   O     O_3   0.162740 0.163010 0.985530 -0.335612
O12   O     O_R   0.297880 0.469080 0.560050 -0.485954
O13   O     O_R   0.258650 0.745120 0.411470 -0.519480
O14   O     O_R   0.297070 0.467240 0.395960 -0.524913
O15   O     O_R   0.488830 0.252610 0.387790 -0.512160
O16   O     O_R   0.724400 0.302390 0.420980 -0.506292
O17   O     O_R   0.752100 0.501210 0.612190 -0.504938
O18   O     O_R   0.478040 0.729440 0.600970 -0.480874
O19   O     O_R   0.259530 0.747110 0.588490 -0.499698
O20   O     O_R   0.489720 0.254590 0.564810 -0.500324
O21   O     O_R   0.725220 0.304230 0.585080 -0.478196
O22   O     O_3   0.500010 0.500010 0.500020 -0.263604
O23   O     O_R   0.171830 0.913880 0.057510 -0.518503
O24   O     O_R   0.940690 0.186050 0.054730 -0.499549
O25   O     O_R   0.920470 0.405720 0.075010 -0.506150
O26   O     O_R   0.196690 0.370460 0.084120 -0.507910

loop_
_geom_bond_atom_site_label_1
_geom_bond_atom_site_label_2
_ccdc_geom_bond_type
C25   O25   A    
C6    C9    S    
C34   H3    S    
C8    H14   S    
C40   C41   S    
C5    H8    S    
C26   O26   A    
C18   C19   S    
C3    C7    S    
Cr6   O10   S    
C13   C32   S    
C6    C7    S    
C16   O16   A    
C22   C28   S    
C35   C36   T    
Cr1   O18   S    
C26   C36   S    
C31   O5    A    
C4    O14   A    
C37   H2    S    
C17   H18   S    
C14   C15   S    
C4    C35   S    
Cr1   O4    S    
C17   C18   S    
C33   O17   A    
Cr6   O3    S    
C40   H5    S    
C28   O19   A    
C41   H6    S    
C12   H1    S    
C10   C14   S    
C39   C42   S    
C7    C8    S    
Cr5   O25   S    
C8    C9    S    
C24   C31   S    
C16   O1    A    
C5    C43   S    
C20   C21   T    
C23   C40   S    
Cr3   O20   S    
Cr4   O6    S    
C27   O3    A    
Br1   C11   S    
Cr6   O9    S    
C12   C41   S    
C25   C42   S    
C30   O8    A    
Cr2   O19   S    
C38   H11   S    
C2    C43   S    
C16   C23   S    
Cr4   O24   S    
C9    C43   S    
C23   C34   S    
Cr4   O5    S    
C34   C37   S    
C3    C5    S    
C4    O15   A    
C20   C33   S    
C14   H16   S    
C10   C19   S    
C12   C23   S    
C1    C3    S    
Cr6   O2    S    
C33   O21   A    
C6    H12   S    
C2    C8    S    
C32   O20   A    
Cr2   O12   S    
C29   O7    A    
C15   C19   S    
C38   H9    S    
Cr5   O7    S    
C27   O23   A    
C15   H17   S    
Cr3   O15   S    
Cr5   O26   S    
C12   C37   S    
C5    C6    S    
C1    O4    A    
C2    H7    S    
C39   C40   S    
C11   C13   S    
C39   H4    S    
Cr3   O21   S    
C1    O13   A    
C41   C42   S    
C2    C3    S    
Cr3   O16   S    
C26   O2    A    
C30   O9    A    
C9    C27   S    
C21   C29   S    
Cr1   O1    S    
Cr3   O22   S    
C13   C17   S    
Cr6   O11   S    
Cr2   O13   S    
C10   C11   S    
C38   C43   S    
Cr2   O22   S    
Cr5   O11   S    
Cr4   O11   S    
Cr1   O17   S    
C37   C42   S    
C31   O10   A    
C29   O6    A    
C25   O24   A    
C38   H10   S    
C11   C18   S    
Cr5   O8    S    
C34   C39   S    
C22   C24   T    
Cr1   O22   S    
C28   O18   A    
C18   H19   S    
C7    H13   S    
Cr2   O14   S    
C15   C17   S    
Cr4   O23   S    
C13   C14   S    
C32   O12   A    
C10   H15   S    
C19   C30   S    
