data_mof_unit_63814.cif
_audit_creation_date              2012-12-10T17:41:37-0500
_audit_creation_method            fapswitch 2.2
_symmetry_space_group_name_H-M    P1
_symmetry_Int_Tables_number       1
_space_group_crystal_system       triclinic
_cell_length_a                    30.228059
_cell_length_b                    42.950461
_cell_length_c                    42.995689
_cell_angle_alpha                 90.003857
_cell_angle_beta                  89.999918
_cell_angle_gamma                 90.00002
_cell_volume                      55821.692838

loop_
_atom_site_label
_atom_site_type_symbol
_atom_type_description
_atom_site_fract_x
_atom_site_fract_y
_atom_site_fract_z
_atom_type_partial_charge
C1    C     C_R   0.999373 0.207242 0.207544 0.797423
C2    C     C_R   0.000636 0.792698 0.207472 0.796912
C3    C     C_R   0.999374 0.792759 0.792456 0.797418
C4    C     C_R   0.000636 0.207302 0.792528 0.796911
C5    C     C_R   0.499370 0.707243 0.207544 0.797424
C6    C     C_R   0.500636 0.292698 0.207472 0.796910
C7    C     C_R   0.499374 0.292758 0.792456 0.797419
C8    C     C_R   0.500636 0.707302 0.792528 0.796911
C9    C     C_R   0.499374 0.207242 0.707544 0.797419
C10   C     C_R   0.500636 0.792698 0.707472 0.796910
C11   C     C_R   0.499374 0.792758 0.292456 0.797415
C12   C     C_R   0.500636 0.207302 0.292528 0.796913
C13   C     C_R   0.999374 0.707241 0.707544 0.797420
C14   C     C_R   0.000636 0.292698 0.707472 0.796911
C15   C     C_R   0.999374 0.292758 0.292456 0.797419
C16   C     C_R   0.000636 0.707302 0.292528 0.796912
C17   C     C_R   0.027569 0.156164 0.186751 0.165745
C18   C     C_R   0.973233 0.813295 0.156118 0.160770
C19   C     C_R   0.027508 0.843866 0.813225 0.165738
C20   C     C_R   0.973233 0.186705 0.843882 0.160769
C21   C     C_R   0.527661 0.656211 0.186714 0.165758
C22   C     C_R   0.473232 0.313296 0.156118 0.160769
C23   C     C_R   0.527540 0.343850 0.813237 0.165742
C24   C     C_R   0.473233 0.686704 0.843882 0.160764
C25   C     C_R   0.527537 0.156148 0.686764 0.165741
C26   C     C_R   0.473233 0.813295 0.656118 0.160772
C27   C     C_R   0.527517 0.843861 0.313229 0.165739
C28   C     C_R   0.473229 0.186703 0.343880 0.160770
C29   C     C_R   0.027510 0.656136 0.686774 0.165738
C30   C     C_R   0.973233 0.313295 0.656118 0.160772
C31   C     C_R   0.027525 0.343858 0.313231 0.165741
C32   C     C_R   0.973233 0.686705 0.343882 0.160774
C33   C     C_R   0.000745 0.183021 0.183538 -0.029717
C34   C     C_R   0.999293 0.816766 0.183291 -0.033566
C35   C     C_R   0.000748 0.816981 0.816463 -0.029794
C36   C     C_R   0.999293 0.183234 0.816709 -0.033568
C37   C     C_R   0.500742 0.683023 0.183538 -0.029594
C38   C     C_R   0.499292 0.316766 0.183291 -0.033564
C39   C     C_R   0.500746 0.316980 0.816463 -0.029753
C40   C     C_R   0.499293 0.683234 0.816709 -0.033566
C41   C     C_R   0.500746 0.183020 0.683537 -0.029763
C42   C     C_R   0.499293 0.816766 0.683291 -0.033567
C43   C     C_R   0.500747 0.816981 0.316463 -0.029778
C44   C     C_R   0.499293 0.183234 0.316708 -0.033562
C45   C     C_R   0.000748 0.683019 0.683537 -0.029786
C46   C     C_R   0.999293 0.316766 0.683291 -0.033567
C47   C     C_R   0.000747 0.316981 0.316463 -0.029777
C48   C     C_R   0.999293 0.683234 0.316709 -0.033567
C49   C     C_R   0.974983 0.187003 0.156701 -0.232325
C50   C     C_R   0.024295 0.843936 0.187635 -0.231581
C51   C     C_R   0.975049 0.812971 0.843326 -0.232322
C52   C     C_R   0.024295 0.156064 0.812365 -0.231580
C53   C     C_R   0.474882 0.686963 0.156743 -0.232335
C54   C     C_R   0.524296 0.343935 0.187635 -0.231582
C55   C     C_R   0.475014 0.312984 0.843312 -0.232324
C56   C     C_R   0.524296 0.656065 0.812365 -0.231576
C57   C     C_R   0.475018 0.187018 0.656686 -0.232318
C58   C     C_R   0.524295 0.843936 0.687635 -0.231582
C59   C     C_R   0.475039 0.812975 0.343322 -0.232324
C60   C     C_R   0.524300 0.156066 0.312366 -0.231581
C61   C     C_R   0.975047 0.687028 0.656675 -0.232326
C62   C     C_R   0.024295 0.343936 0.687635 -0.231581
C63   C     C_R   0.975031 0.312977 0.343319 -0.232319
C64   C     C_R   0.024295 0.656064 0.312365 -0.231584
C65   C     C_R   0.974877 0.164449 0.133478 -0.162653
C66   C     C_R   0.024393 0.867237 0.165159 -0.163266
C67   C     C_R   0.974945 0.835523 0.866551 -0.162686
C68   C     C_R   0.024393 0.132763 0.834841 -0.163262
C69   C     C_R   0.474772 0.664405 0.133522 -0.162601
C70   C     C_R   0.524393 0.367237 0.165158 -0.163277
C71   C     C_R   0.474909 0.335538 0.866536 -0.162670
C72   C     C_R   0.524394 0.632763 0.834842 -0.163264
C73   C     C_R   0.474913 0.164464 0.633462 -0.162672
C74   C     C_R   0.524393 0.867237 0.665158 -0.163264
C75   C     C_R   0.474935 0.835527 0.366547 -0.162685
C76   C     C_R   0.524398 0.132765 0.334843 -0.163261
C77   C     C_R   0.974944 0.664476 0.633450 -0.162688
C78   C     C_R   0.024393 0.367237 0.665158 -0.163263
C79   C     C_R   0.974926 0.335530 0.366544 -0.162679
C80   C     C_R   0.024393 0.632763 0.334841 -0.163265
C81   C     C_R   0.000964 0.137688 0.136567 0.090669
C82   C     C_R   0.999037 0.863898 0.138114 0.090457
C83   C     C_R   0.000967 0.862311 0.863437 0.090687
C84   C     C_R   0.999038 0.136102 0.861886 0.090459
C85   C     C_R   0.500958 0.637688 0.136572 0.090625
C86   C     C_R   0.499037 0.363898 0.138114 0.090458
C87   C     C_R   0.500965 0.362311 0.863435 0.090678
C88   C     C_R   0.499038 0.636101 0.861886 0.090461
C89   C     C_R   0.500965 0.137689 0.636564 0.090682
C90   C     C_R   0.499037 0.863898 0.638114 0.090458
C91   C     C_R   0.500966 0.862311 0.363437 0.090684
C92   C     C_R   0.499038 0.136102 0.361886 0.090458
C93   C     C_R   0.000967 0.637689 0.636563 0.090689
C94   C     C_R   0.999037 0.363898 0.638114 0.090458
C95   C     C_R   0.000966 0.362311 0.363436 0.090688
C96   C     C_R   0.999038 0.636101 0.361886 0.090458
C97   C     C_R   0.961449 0.103448 0.098857 -0.165610
C98   C     C_R   0.038455 0.902073 0.104334 -0.165811
C99   C     C_R   0.961462 0.896505 0.901192 -0.165606
C100  C     C_R   0.038455 0.097927 0.895666 -0.165803
C101  C     C_R   0.461431 0.603367 0.098942 -0.165623
C102  C     C_R   0.538455 0.402072 0.104334 -0.165814
C103  C     C_R   0.461455 0.396530 0.901166 -0.165608
C104  C     C_R   0.538455 0.597927 0.895666 -0.165793
C105  C     C_R   0.461455 0.103472 0.598832 -0.165609
C106  C     C_R   0.538455 0.902073 0.604334 -0.165810
C107  C     C_R   0.461460 0.896512 0.401185 -0.165608
C108  C     C_R   0.538456 0.097930 0.395669 -0.165808
C109  C     C_R   0.961463 0.603498 0.598804 -0.165606
C110  C     C_R   0.038455 0.402073 0.604334 -0.165806
C111  C     C_R   0.961457 0.396518 0.401179 -0.165608
C112  C     C_R   0.038455 0.597927 0.395666 -0.165812
C113  C     C_R   0.961818 0.080186 0.076278 -0.254062
C114  C     C_R   0.038096 0.924594 0.081018 -0.254089
C115  C     C_R   0.961828 0.919769 0.923768 -0.254102
C116  C     C_R   0.038096 0.075406 0.918982 -0.254026
C117  C     C_R   0.461803 0.580107 0.076361 -0.254051
C118  C     C_R   0.538096 0.424593 0.081018 -0.254145
C119  C     C_R   0.461823 0.419792 0.923744 -0.254082
C120  C     C_R   0.538097 0.575406 0.918982 -0.254001
C121  C     C_R   0.461823 0.080209 0.576255 -0.254090
C122  C     C_R   0.538096 0.924594 0.581018 -0.254067
C123  C     C_R   0.461827 0.919776 0.423761 -0.254100
C124  C     C_R   0.538098 0.075409 0.418985 -0.254040
C125  C     C_R   0.961829 0.580234 0.576228 -0.254105
C126  C     C_R   0.038096 0.424594 0.581018 -0.254042
C127  C     C_R   0.961824 0.419781 0.423756 -0.254070
C128  C     C_R   0.038096 0.575406 0.418982 -0.254066
C129  C     C_R   0.001989 0.066987 0.066404 -0.156471
C130  C     C_R   0.998001 0.934010 0.067386 -0.156391
C131  C     C_R   0.001989 0.933014 0.933597 -0.156444
C132  C     C_R   0.998001 0.065989 0.932614 -0.156408
C133  C     C_R   0.501987 0.566990 0.066404 -0.156489
C134  C     C_R   0.498001 0.434010 0.067385 -0.156376
C135  C     C_R   0.501989 0.433014 0.933596 -0.156457
C136  C     C_R   0.498001 0.565989 0.932614 -0.156416
C137  C     C_R   0.501989 0.066986 0.566403 -0.156455
C138  C     C_R   0.498001 0.934010 0.567385 -0.156396
C139  C     C_R   0.501989 0.933014 0.433596 -0.156447
C140  C     C_R   0.498002 0.065990 0.432614 -0.156404
C141  C     C_R   0.001989 0.566985 0.566403 -0.156442
C142  C     C_R   0.998001 0.434011 0.567385 -0.156404
C143  C     C_R   0.001989 0.433014 0.433596 -0.156461
C144  C     C_R   0.998001 0.565990 0.432615 -0.156396
C145  C     C_R   0.041938 0.077692 0.079509 0.617793
C146  C     C_R   0.958110 0.920541 0.077739 0.617742
C147  C     C_R   0.041932 0.922354 0.920447 0.617808
C148  C     C_R   0.958110 0.079459 0.922261 0.617749
C149  C     C_R   0.541946 0.577777 0.079429 0.617803
C150  C     C_R   0.458110 0.420541 0.077739 0.617739
C151  C     C_R   0.541935 0.422330 0.920470 0.617799
C152  C     C_R   0.458110 0.579459 0.922261 0.617760
C153  C     C_R   0.541935 0.077669 0.579531 0.617802
C154  C     C_R   0.458109 0.920541 0.577739 0.617742
C155  C     C_R   0.541933 0.922347 0.420454 0.617807
C156  C     C_R   0.458109 0.079456 0.422258 0.617742
C157  C     C_R   0.041931 0.577642 0.579557 0.617807
C158  C     C_R   0.958109 0.420541 0.577739 0.617744
C159  C     C_R   0.041935 0.422342 0.420458 0.617788
C160  C     C_R   0.958110 0.579459 0.422262 0.617741
C161  C     C_R   0.041367 0.100897 0.102092 -0.239029
C162  C     C_R   0.958674 0.898011 0.100989 -0.239063
C163  C     C_R   0.041362 0.899147 0.897867 -0.239028
C164  C     C_R   0.958674 0.101989 0.899011 -0.239058
C165  C     C_R   0.541371 0.600978 0.102017 -0.239013
C166  C     C_R   0.458674 0.398011 0.100989 -0.239072
C167  C     C_R   0.541364 0.399124 0.897888 -0.239029
C168  C     C_R   0.458674 0.601988 0.899010 -0.239055
C169  C     C_R   0.541364 0.100876 0.602112 -0.239030
C170  C     C_R   0.458674 0.898011 0.600989 -0.239062
C171  C     C_R   0.541363 0.899140 0.397873 -0.239028
C172  C     C_R   0.458674 0.101986 0.399008 -0.239060
C173  C     C_R   0.041362 0.600849 0.602137 -0.239030
C174  C     C_R   0.958674 0.398011 0.600989 -0.239058
C175  C     C_R   0.041364 0.399135 0.397877 -0.239037
C176  C     C_R   0.958674 0.601989 0.399011 -0.239064
C177  C     C_R   0.913554 0.250000 0.250000 0.809455
C178  C     C_R   0.086454 0.750000 0.250000 0.810062
C179  C     C_R   0.913554 0.750000 0.750000 0.809476
C180  C     C_R   0.086454 0.250000 0.750000 0.810062
C181  C     C_R   0.413554 0.750000 0.250000 0.809430
C182  C     C_R   0.586454 0.250000 0.250000 0.810060
C183  C     C_R   0.413554 0.250000 0.750000 0.809460
C184  C     C_R   0.586454 0.750000 0.750000 0.810061
C185  C     C_R   0.001215 0.113826 0.112026 0.020802
C186  C     C_R   0.998760 0.888498 0.114318 0.020555
C187  C     C_R   0.001219 0.886172 0.887979 0.020795
C188  C     C_R   0.998761 0.111501 0.885682 0.020548
C189  C     C_R   0.501207 0.613824 0.112032 0.020780
C190  C     C_R   0.498760 0.388498 0.114318 0.020563
C191  C     C_R   0.501217 0.386173 0.887976 0.020799
C192  C     C_R   0.498760 0.611502 0.885682 0.020544
C193  C     C_R   0.501217 0.113827 0.612024 0.020798
C194  C     C_R   0.498760 0.888498 0.614318 0.020553
C195  C     C_R   0.501218 0.886173 0.387978 0.020796
C196  C     C_R   0.498761 0.111502 0.385682 0.020551
C197  C     C_R   0.001220 0.613827 0.612021 0.020801
C198  C     C_R   0.998760 0.388498 0.614318 0.020550
C199  C     C_R   0.001218 0.386173 0.387977 0.020807
C200  C     C_R   0.998760 0.611502 0.385682 0.020553
C201  C     C_R   0.202264 0.276077 0.239214 -0.162783
C202  C     C_R   0.797615 0.724812 0.237284 -0.164521
C203  C     C_R   0.202264 0.723923 0.760787 -0.162785
C204  C     C_R   0.797615 0.275188 0.762713 -0.164518
C205  C     C_R   0.702264 0.776078 0.239216 -0.162782
C206  C     C_R   0.297615 0.224812 0.237286 -0.164520
C207  C     C_R   0.702264 0.223922 0.760786 -0.162784
C208  C     C_R   0.297615 0.775188 0.762712 -0.164518
C209  C     C_R   0.702264 0.276078 0.739214 -0.162785
C210  C     C_R   0.297615 0.724812 0.737287 -0.164520
C211  C     C_R   0.702264 0.723920 0.260781 -0.162779
C212  C     C_R   0.297615 0.275187 0.262713 -0.164520
C213  C     C_R   0.202264 0.776077 0.739213 -0.162786
C214  C     C_R   0.797615 0.224812 0.737286 -0.164520
C215  C     C_R   0.202264 0.223922 0.260785 -0.162784
C216  C     C_R   0.797614 0.775186 0.262715 -0.164519
C217  C     C_R   0.156146 0.275993 0.238991 -0.181463
C218  C     C_R   0.843733 0.724908 0.237076 -0.179456
C219  C     C_R   0.156146 0.724008 0.761010 -0.181463
C220  C     C_R   0.843733 0.275092 0.762922 -0.179458
C221  C     C_R   0.656146 0.775993 0.238993 -0.181452
C222  C     C_R   0.343733 0.224908 0.237078 -0.179457
C223  C     C_R   0.656146 0.224007 0.761008 -0.181466
C224  C     C_R   0.343733 0.775093 0.762921 -0.179458
C225  C     C_R   0.656146 0.275993 0.738992 -0.181466
C226  C     C_R   0.343733 0.724907 0.737079 -0.179458
C227  C     C_R   0.656146 0.724004 0.261004 -0.181493
C228  C     C_R   0.343733 0.275092 0.262922 -0.179458
C229  C     C_R   0.156146 0.775992 0.738990 -0.181463
C230  C     C_R   0.843733 0.224908 0.737078 -0.179458
C231  C     C_R   0.156146 0.224006 0.261008 -0.181473
C232  C     C_R   0.843732 0.775091 0.262924 -0.179459
C233  C     C_R   0.132751 0.250000 0.250000 -0.027691
C234  C     C_R   0.867168 0.750000 0.250000 -0.034385
C235  C     C_R   0.132751 0.750000 0.750000 -0.027685
C236  C     C_R   0.867167 0.250000 0.750000 -0.034384
C237  C     C_R   0.632750 0.749999 0.249999 -0.027699
C238  C     C_R   0.367168 0.250000 0.250000 -0.034384
C239  C     C_R   0.632751 0.250000 0.750000 -0.027690
C240  C     C_R   0.367168 0.750000 0.750000 -0.034383
C241  C     C_R   0.225605 0.250000 0.250000 0.098737
C242  C     C_R   0.774275 0.749999 0.250000 0.098774
C243  C     C_R   0.225605 0.750000 0.750000 0.098736
C244  C     C_R   0.774275 0.250000 0.750000 0.098773
C245  C     C_R   0.725605 0.749999 0.249999 0.098737
C246  C     C_R   0.274275 0.250000 0.250000 0.098773
C247  C     C_R   0.725605 0.250000 0.750000 0.098737
C248  C     C_R   0.274275 0.750000 0.750000 0.098772
C249  C     C_R   0.998139 0.542205 0.457305 0.815439
C250  C     C_R   0.001860 0.457582 0.457514 0.815339
C251  C     C_R   0.998139 0.457795 0.542695 0.815460
C252  C     C_R   0.001860 0.542418 0.542486 0.815349
C253  C     C_R   0.498139 0.042205 0.457305 0.815458
C254  C     C_R   0.501860 0.957582 0.457514 0.815347
C255  C     C_R   0.498139 0.957794 0.542695 0.815438
C256  C     C_R   0.501860 0.042418 0.542486 0.815336
C257  C     C_R   0.498139 0.542205 0.957305 0.815512
C258  C     C_R   0.501860 0.457581 0.957514 0.815338
C259  C     C_R   0.498139 0.457794 0.042695 0.815376
C260  C     C_R   0.501860 0.542421 0.042485 0.815300
C261  C     C_R   0.998139 0.042205 0.957305 0.815478
C262  C     C_R   0.001860 0.957582 0.957514 0.815348
C263  C     C_R   0.998139 0.957794 0.042695 0.815418
C264  C     C_R   0.001860 0.042419 0.042486 0.815328
C265  C     C_R   0.084166 0.250000 0.250000 0.776361
C266  C     C_R   0.915806 0.750000 0.250000 0.776883
C267  C     C_R   0.084166 0.750000 0.750000 0.776373
C268  C     C_R   0.915806 0.250000 0.750000 0.776881
C269  C     C_R   0.584166 0.750000 0.250000 0.776350
C270  C     C_R   0.415806 0.250000 0.250000 0.776881
C271  C     C_R   0.584166 0.250000 0.750000 0.776363
C272  C     C_R   0.415806 0.750000 0.750000 0.776881
C273  C     C_R   0.657449 0.248797 0.221734 -0.241353
C274  C     C_R   0.342581 0.750794 0.221719 -0.240600
C275  C     C_R   0.657449 0.751202 0.778266 -0.241349
C276  C     C_R   0.342580 0.249204 0.778281 -0.240583
C277  C     C_R   0.157449 0.748796 0.221734 -0.241353
C278  C     C_R   0.842581 0.250795 0.221719 -0.240590
C279  C     C_R   0.157449 0.251202 0.778266 -0.241351
C280  C     C_R   0.842580 0.749204 0.778281 -0.240579
C281  C     C_R   0.157449 0.248797 0.721734 -0.241352
C282  C     C_R   0.842581 0.750796 0.721719 -0.240581
C283  C     C_R   0.157449 0.751204 0.278266 -0.241353
C284  C     C_R   0.842580 0.249204 0.278281 -0.240581
C285  C     C_R   0.657449 0.748798 0.721734 -0.241353
C286  C     C_R   0.342581 0.250795 0.721719 -0.240582
C287  C     C_R   0.657449 0.251203 0.278266 -0.241354
C288  C     C_R   0.342581 0.749206 0.278281 -0.240576
C289  C     C_R   0.634522 0.250000 0.250000 -0.060111
C290  C     C_R   0.365499 0.750000 0.250000 -0.056333
C291  C     C_R   0.634522 0.750000 0.750000 -0.060110
C292  C     C_R   0.365499 0.250000 0.750000 -0.056344
C293  C     C_R   0.134522 0.750000 0.250000 -0.060112
C294  C     C_R   0.865499 0.250000 0.250000 -0.056342
C295  C     C_R   0.134522 0.250000 0.750000 -0.060111
C296  C     C_R   0.865499 0.750000 0.750000 -0.056350
C297  C     C_R   0.703604 0.250687 0.278499 0.109039
C298  C     C_R   0.296426 0.749726 0.278506 0.109914
C299  C     C_R   0.703604 0.749313 0.721501 0.109040
C300  C     C_R   0.296426 0.250275 0.721494 0.109917
C301  C     C_R   0.203604 0.750688 0.278498 0.109039
C302  C     C_R   0.796426 0.249725 0.278506 0.109915
C303  C     C_R   0.203604 0.249312 0.721501 0.109039
C304  C     C_R   0.796426 0.750276 0.721494 0.109917
C305  C     C_R   0.203604 0.250687 0.778499 0.109038
C306  C     C_R   0.796426 0.749724 0.778506 0.109914
C307  C     C_R   0.203604 0.749311 0.221501 0.109038
C308  C     C_R   0.796426 0.250275 0.221494 0.109919
C309  C     C_R   0.703604 0.750687 0.778499 0.109037
C310  C     C_R   0.296426 0.249724 0.778506 0.109916
C311  C     C_R   0.703604 0.249312 0.221501 0.109039
C312  C     C_R   0.296426 0.750274 0.221493 0.109922
C313  C     C_R   0.726802 0.250000 0.250000 0.060982
C314  C     C_R   0.273228 0.750000 0.250000 0.060632
C315  C     C_R   0.726802 0.750000 0.750000 0.060982
C316  C     C_R   0.273228 0.250000 0.750000 0.060633
C317  C     C_R   0.226802 0.750000 0.250000 0.060983
C318  C     C_R   0.773228 0.250000 0.250000 0.060633
C319  C     C_R   0.226802 0.250000 0.750000 0.060983
C320  C     C_R   0.773228 0.750000 0.750000 0.060633
C321  C     C_R   0.726939 0.250764 0.306677 -0.206153
C322  C     C_R   0.273092 0.750059 0.306682 -0.206628
C323  C     C_R   0.726939 0.749237 0.693323 -0.206154
C324  C     C_R   0.273092 0.249943 0.693318 -0.206628
C325  C     C_R   0.226939 0.750767 0.306676 -0.206154
C326  C     C_R   0.773092 0.250057 0.306682 -0.206629
C327  C     C_R   0.226939 0.249236 0.693323 -0.206152
C328  C     C_R   0.773092 0.749945 0.693318 -0.206628
C329  C     C_R   0.226939 0.250764 0.806677 -0.206152
C330  C     C_R   0.773091 0.750055 0.806682 -0.206622
C331  C     C_R   0.226939 0.749232 0.193323 -0.206155
C332  C     C_R   0.773092 0.249943 0.193318 -0.206630
C333  C     C_R   0.726939 0.750763 0.806677 -0.206149
C334  C     C_R   0.273092 0.250057 0.806682 -0.206626
C335  C     C_R   0.726939 0.249235 0.193323 -0.206156
C336  C     C_R   0.273092 0.749940 0.193318 -0.206633
C337  C     C_R   0.027218 0.133735 0.163148 -0.152780
C338  C     C_R   0.973553 0.836985 0.133782 -0.153221
C339  C     C_R   0.027156 0.866294 0.836830 -0.152785
C340  C     C_R   0.973554 0.163015 0.866219 -0.153217
C341  C     C_R   0.527312 0.633779 0.163111 -0.152763
C342  C     C_R   0.473552 0.336985 0.133782 -0.153219
C343  C     C_R   0.527189 0.366279 0.836842 -0.152782
C344  C     C_R   0.473553 0.663015 0.866218 -0.153205
C345  C     C_R   0.527185 0.133719 0.663160 -0.152788
C346  C     C_R   0.473553 0.836985 0.633782 -0.153222
C347  C     C_R   0.527165 0.866289 0.336834 -0.152784
C348  C     C_R   0.473549 0.163014 0.366217 -0.153220
C349  C     C_R   0.027158 0.633708 0.663169 -0.152781
C350  C     C_R   0.973553 0.336985 0.633782 -0.153222
C351  C     C_R   0.027173 0.366286 0.336835 -0.152792
C352  C     C_R   0.973553 0.663015 0.366219 -0.153225
Cu1   Cu    Cu3+1 0.998750 0.227760 0.272030 0.951257
Cu2   Cu    Cu3+1 0.001250 0.772240 0.272030 0.948942
Cu3   Cu    Cu3+1 0.998750 0.772240 0.727970 0.951238
Cu4   Cu    Cu3+1 0.001250 0.227760 0.727970 0.948944
Cu5   Cu    Cu3+1 0.498750 0.727760 0.272030 0.951276
Cu6   Cu    Cu3+1 0.501250 0.272240 0.272030 0.948941
Cu7   Cu    Cu3+1 0.498750 0.272240 0.727970 0.951254
Cu8   Cu    Cu3+1 0.501250 0.727760 0.727970 0.948944
Cu9   Cu    Cu3+1 0.498750 0.227760 0.772030 0.951256
Cu10  Cu    Cu3+1 0.501250 0.772240 0.772030 0.948951
Cu11  Cu    Cu3+1 0.498750 0.772240 0.227970 0.951283
Cu12  Cu    Cu3+1 0.501250 0.227760 0.227970 0.948946
Cu13  Cu    Cu3+1 0.998750 0.727760 0.772030 0.951243
Cu14  Cu    Cu3+1 0.001250 0.272240 0.772030 0.948947
Cu15  Cu    Cu3+1 0.998750 0.272240 0.227970 0.951255
Cu16  Cu    Cu3+1 0.001250 0.727760 0.227970 0.948941
Cu17  Cu    Cu3+1 0.954280 0.000000 0.000000 1.053840
Cu18  Cu    Cu3+1 0.045720 0.000000 0.000000 1.053970
Cu19  Cu    Cu3+1 0.454280 0.500000 0.000000 1.053830
Cu20  Cu    Cu3+1 0.545720 0.500000 0.000000 1.053988
Cu21  Cu    Cu3+1 0.454280 0.000000 0.500000 1.053839
Cu22  Cu    Cu3+1 0.545720 0.000000 0.500000 1.053964
Cu23  Cu    Cu3+1 0.954280 0.500000 0.500000 1.053839
Cu24  Cu    Cu3+1 0.045720 0.500000 0.500000 1.053961
H1    H     H_    0.639282 0.248115 0.199986 0.146333
H2    H     H_    0.360757 0.751160 0.199966 0.142235
H3    H     H_    0.639281 0.751883 0.800014 0.146336
H4    H     H_    0.360757 0.248837 0.800033 0.142249
H5    H     H_    0.139282 0.748113 0.199986 0.146335
H6    H     H_    0.860757 0.251163 0.199966 0.142245
H7    H     H_    0.139282 0.251884 0.800013 0.146335
H8    H     H_    0.860757 0.748835 0.800033 0.142253
H9    H     H_    0.139282 0.248115 0.699986 0.146334
H10   H     H_    0.860757 0.751164 0.699967 0.142252
H11   H     H_    0.139282 0.751887 0.300013 0.146335
H12   H     H_    0.860757 0.248837 0.300033 0.142250
H13   H     H_    0.639282 0.748117 0.699986 0.146333
H14   H     H_    0.360757 0.251163 0.699967 0.142248
H15   H     H_    0.639281 0.251885 0.300013 0.146334
H16   H     H_    0.360757 0.748839 0.300033 0.142249
H17   H     H_    0.072454 0.108916 0.111738 0.161435
H18   H     H_    0.927634 0.888040 0.108698 0.161472
H19   H     H_    0.072444 0.891164 0.888185 0.161426
H20   H     H_    0.927634 0.111960 0.891302 0.161473
H21   H     H_    0.572464 0.609060 0.111601 0.161453
H22   H     H_    0.427634 0.388040 0.108698 0.161470
H23   H     H_    0.572449 0.391122 0.888226 0.161431
H24   H     H_    0.427634 0.611959 0.891301 0.161473
H25   H     H_    0.572449 0.108876 0.611776 0.161431
H26   H     H_    0.427634 0.888040 0.608698 0.161472
H27   H     H_    0.572446 0.891151 0.388198 0.161426
H28   H     H_    0.427633 0.111955 0.391297 0.161473
H29   H     H_    0.072444 0.608829 0.611820 0.161421
H30   H     H_    0.927634 0.388040 0.608698 0.161473
H31   H     H_    0.072449 0.391143 0.388205 0.161430
H32   H     H_    0.927634 0.611960 0.391303 0.161472
H33   H     H_    0.219754 0.296340 0.230623 0.133409
H34   H     H_    0.780124 0.705260 0.227182 0.133544
H35   H     H_    0.219754 0.703661 0.769379 0.133412
H36   H     H_    0.780123 0.294741 0.772814 0.133547
H37   H     H_    0.719754 0.796341 0.230628 0.133411
H38   H     H_    0.280124 0.205259 0.227186 0.133546
H39   H     H_    0.719754 0.203660 0.769377 0.133412
H40   H     H_    0.280124 0.794742 0.772812 0.133548
H41   H     H_    0.719754 0.296341 0.730623 0.133411
H42   H     H_    0.280124 0.705258 0.727188 0.133547
H43   H     H_    0.719753 0.703656 0.269370 0.133411
H44   H     H_    0.280123 0.294741 0.272814 0.133545
H45   H     H_    0.219754 0.796339 0.730620 0.133411
H46   H     H_    0.780123 0.205259 0.727186 0.133546
H47   H     H_    0.219753 0.203659 0.269376 0.133411
H48   H     H_    0.780123 0.794738 0.272817 0.133545
H49   H     H_    0.138807 0.296367 0.230519 0.151304
H50   H     H_    0.861019 0.705234 0.227050 0.154694
H51   H     H_    0.138807 0.703634 0.769484 0.151303
H52   H     H_    0.861019 0.294768 0.772947 0.154694
H53   H     H_    0.638807 0.796368 0.230523 0.151302
H54   H     H_    0.361019 0.205232 0.227053 0.154694
H55   H     H_    0.638807 0.203633 0.769481 0.151308
H56   H     H_    0.361019 0.794768 0.772945 0.154694
H57   H     H_    0.638807 0.296367 0.730519 0.151309
H58   H     H_    0.361019 0.705231 0.727055 0.154693
H59   H     H_    0.638806 0.703630 0.269474 0.151338
H60   H     H_    0.361018 0.294767 0.272947 0.154692
H61   H     H_    0.138807 0.796366 0.730516 0.151301
H62   H     H_    0.861019 0.205232 0.727053 0.154694
H63   H     H_    0.138806 0.203633 0.269480 0.151316
H64   H     H_    0.861018 0.794765 0.272950 0.154694
H65   H     H_    0.709489 0.251198 0.328688 0.147470
H66   H     H_    0.290541 0.749947 0.328698 0.146203
H67   H     H_    0.709490 0.748805 0.671312 0.147470
H68   H     H_    0.290541 0.250057 0.671302 0.146203
H69   H     H_    0.209489 0.751201 0.328688 0.147469
H70   H     H_    0.790541 0.249944 0.328698 0.146204
H71   H     H_    0.209490 0.248803 0.671312 0.147470
H72   H     H_    0.790541 0.750059 0.671302 0.146203
H73   H     H_    0.209489 0.251197 0.828688 0.147472
H74   H     H_    0.790541 0.749941 0.828698 0.146207
H75   H     H_    0.209490 0.748799 0.171312 0.147471
H76   H     H_    0.790541 0.250056 0.171302 0.146202
H77   H     H_    0.709489 0.751195 0.828688 0.147476
H78   H     H_    0.290541 0.249943 0.828698 0.146204
H79   H     H_    0.709490 0.248802 0.171312 0.147471
H80   H     H_    0.290541 0.750052 0.171302 0.146202
H81   H     H_    0.047187 0.112918 0.165582 0.136396
H82   H     H_    0.954169 0.834362 0.112737 0.136559
H83   H     H_    0.047073 0.887132 0.834377 0.136396
H84   H     H_    0.954169 0.165638 0.887263 0.136561
H85   H     H_    0.547360 0.612997 0.165514 0.136400
H86   H     H_    0.454168 0.334362 0.112737 0.136561
H87   H     H_    0.547133 0.387105 0.834398 0.136396
H88   H     H_    0.454168 0.665638 0.887263 0.136569
H89   H     H_    0.547127 0.112891 0.665604 0.136397
H90   H     H_    0.454169 0.834362 0.612737 0.136557
H91   H     H_    0.547091 0.887124 0.334383 0.136396
H92   H     H_    0.454161 0.165635 0.387260 0.136559
H93   H     H_    0.047076 0.612870 0.665622 0.136393
H94   H     H_    0.954169 0.334362 0.612737 0.136558
H95   H     H_    0.047105 0.387119 0.334387 0.136395
H96   H     H_    0.954169 0.665638 0.387263 0.136557
H97   H     H_    0.954465 0.207497 0.153875 0.152490
H98   H     H_    0.044232 0.846972 0.208359 0.157491
H99   H     H_    0.954580 0.792456 0.846172 0.152568
H100  H     H_    0.044231 0.153028 0.791641 0.157492
H101  H     H_    0.454290 0.707425 0.153948 0.152376
H102  H     H_    0.544232 0.346972 0.208358 0.157487
H103  H     H_    0.454519 0.292481 0.846147 0.152527
H104  H     H_    0.544233 0.653028 0.791641 0.157491
H105  H     H_    0.454526 0.207523 0.653849 0.152529
H106  H     H_    0.544232 0.846972 0.708359 0.157492
H107  H     H_    0.454563 0.792463 0.346165 0.152555
H108  H     H_    0.544240 0.153031 0.291644 0.157488
H109  H     H_    0.954577 0.707541 0.653830 0.152565
H110  H     H_    0.044232 0.346972 0.708359 0.157492
H111  H     H_    0.954548 0.292468 0.346160 0.152544
H112  H     H_    0.044231 0.653028 0.291641 0.157491
H113  H     H_    0.954789 0.168059 0.112931 0.141418
H114  H     H_    0.043891 0.888034 0.169045 0.142640
H115  H     H_    0.954909 0.831890 0.887118 0.141415
H116  H     H_    0.043891 0.111965 0.830955 0.142645
H117  H     H_    0.454606 0.667980 0.113008 0.141439
H118  H     H_    0.543892 0.388034 0.169045 0.142627
H119  H     H_    0.454846 0.331917 0.887092 0.141417
H120  H     H_    0.543892 0.611966 0.830955 0.142642
H121  H     H_    0.454852 0.168087 0.612904 0.141415
H122  H     H_    0.543891 0.888034 0.669045 0.142642
H123  H     H_    0.454891 0.831897 0.387111 0.141415
H124  H     H_    0.543900 0.111969 0.330958 0.142644
H125  H     H_    0.954907 0.668108 0.612884 0.141410
H126  H     H_    0.043891 0.388034 0.669045 0.142647
H127  H     H_    0.954876 0.331903 0.387106 0.141412
H128  H     H_    0.043891 0.611965 0.330954 0.142642
H129  H     H_    0.930052 0.112956 0.106421 0.149278
H130  H     H_    0.069804 0.894841 0.114167 0.149318
H131  H     H_    0.930071 0.886961 0.893664 0.149283
H132  H     H_    0.069804 0.105159 0.885833 0.149325
H133  H     H_    0.430028 0.612811 0.106571 0.149294
H134  H     H_    0.569804 0.394840 0.114166 0.149312
H135  H     H_    0.430061 0.387005 0.893619 0.149280
H136  H     H_    0.569804 0.605159 0.885834 0.149329
H137  H     H_    0.430062 0.112997 0.606378 0.149281
H138  H     H_    0.569804 0.894841 0.614166 0.149319
H139  H     H_    0.430068 0.886974 0.393651 0.149282
H140  H     H_    0.569806 0.105164 0.385839 0.149321
H141  H     H_    0.930072 0.613044 0.606330 0.149278
H142  H     H_    0.069804 0.394841 0.614167 0.149322
H143  H     H_    0.930063 0.386984 0.393641 0.149274
H144  H     H_    0.069804 0.605158 0.385833 0.149319
H145  H     H_    0.930574 0.072517 0.066624 0.188958
H146  H     H_    0.069287 0.934554 0.073635 0.188930
H147  H     H_    0.930591 0.927402 0.933459 0.188963
H148  H     H_    0.069287 0.065446 0.926364 0.188954
H149  H     H_    0.430551 0.572374 0.066772 0.188966
H150  H     H_    0.569287 0.434553 0.073635 0.188904
H151  H     H_    0.430582 0.427445 0.933415 0.188960
H152  H     H_    0.569287 0.565447 0.926365 0.188961
H153  H     H_    0.430583 0.072557 0.566583 0.188960
H154  H     H_    0.569287 0.934553 0.573635 0.188938
H155  H     H_    0.430589 0.927415 0.433446 0.188963
H156  H     H_    0.569289 0.065452 0.426370 0.188946
H157  H     H_    0.930593 0.572604 0.566535 0.188962
H158  H     H_    0.069287 0.434554 0.573635 0.188948
H159  H     H_    0.930584 0.427424 0.433437 0.188954
H160  H     H_    0.069287 0.565446 0.426364 0.188940
O1    O     O_R   0.998720 0.199050 0.236460 -0.580993
O2    O     O_R   0.001280 0.800950 0.236460 -0.584962
O3    O     O_R   0.998720 0.800950 0.763540 -0.580998
O4    O     O_R   0.001280 0.199050 0.763540 -0.584962
O5    O     O_R   0.498720 0.699050 0.236460 -0.580987
O6    O     O_R   0.501280 0.300950 0.236460 -0.584964
O7    O     O_R   0.498720 0.300950 0.763540 -0.580995
O8    O     O_R   0.501280 0.699050 0.763540 -0.584963
O9    O     O_R   0.498720 0.199050 0.736460 -0.580994
O10   O     O_R   0.501280 0.800950 0.736460 -0.584962
O11   O     O_R   0.498720 0.800950 0.263540 -0.580998
O12   O     O_R   0.501280 0.199050 0.263540 -0.584961
O13   O     O_R   0.998720 0.699050 0.736460 -0.580998
O14   O     O_R   0.001280 0.300950 0.736460 -0.584962
O15   O     O_R   0.998720 0.300950 0.263540 -0.580997
O16   O     O_R   0.001280 0.699050 0.263540 -0.584963
O17   O     O_R   0.998350 0.236240 0.199260 -0.587373
O18   O     O_R   0.001650 0.763760 0.199260 -0.583991
O19   O     O_R   0.998350 0.763760 0.800740 -0.587395
O20   O     O_R   0.001650 0.236240 0.800740 -0.583991
O21   O     O_R   0.498350 0.736240 0.199260 -0.587335
O22   O     O_R   0.501650 0.263760 0.199260 -0.583991
O23   O     O_R   0.498350 0.263760 0.800740 -0.587383
O24   O     O_R   0.501650 0.736240 0.800740 -0.583989
O25   O     O_R   0.498350 0.236240 0.699260 -0.587386
O26   O     O_R   0.501650 0.763760 0.699260 -0.583992
O27   O     O_R   0.498350 0.763760 0.300740 -0.587396
O28   O     O_R   0.501650 0.236240 0.300740 -0.583992
O29   O     O_R   0.998350 0.736240 0.699260 -0.587397
O30   O     O_R   0.001650 0.263760 0.699260 -0.583992
O31   O     O_R   0.998350 0.263760 0.300740 -0.587391
O32   O     O_R   0.001650 0.736240 0.300740 -0.583992
O33   O     O_R   0.934150 0.231190 0.268610 -0.583806
O34   O     O_R   0.065850 0.768810 0.268610 -0.584081
O35   O     O_R   0.934150 0.768810 0.731390 -0.583805
O36   O     O_R   0.065850 0.231190 0.731390 -0.584081
O37   O     O_R   0.434150 0.731190 0.268610 -0.583808
O38   O     O_R   0.565850 0.268810 0.268610 -0.584081
O39   O     O_R   0.434150 0.268810 0.731390 -0.583805
O40   O     O_R   0.565850 0.731190 0.731390 -0.584081
O41   O     O_R   0.434150 0.231190 0.768610 -0.583805
O42   O     O_R   0.565850 0.768810 0.768610 -0.584078
O43   O     O_R   0.434150 0.768810 0.231390 -0.583806
O44   O     O_R   0.565850 0.231190 0.231390 -0.584081
O45   O     O_R   0.934150 0.731190 0.768610 -0.583804
O46   O     O_R   0.065850 0.268810 0.768610 -0.584080
O47   O     O_R   0.934150 0.268810 0.231390 -0.583807
O48   O     O_R   0.065850 0.731190 0.231390 -0.584082
O49   O     O_R   0.063290 0.231180 0.268590 -0.587020
O50   O     O_R   0.936710 0.768820 0.268590 -0.587972
O51   O     O_R   0.063290 0.768820 0.731410 -0.587029
O52   O     O_R   0.936710 0.231180 0.731410 -0.587971
O53   O     O_R   0.563290 0.731180 0.268590 -0.587008
O54   O     O_R   0.436710 0.268820 0.268590 -0.587972
O55   O     O_R   0.563290 0.268820 0.731410 -0.587024
O56   O     O_R   0.436710 0.731180 0.731410 -0.587971
O57   O     O_R   0.563290 0.231180 0.768590 -0.587024
O58   O     O_R   0.436710 0.768820 0.768590 -0.587971
O59   O     O_R   0.563290 0.768820 0.231410 -0.587026
O60   O     O_R   0.436710 0.231180 0.231410 -0.587971
O61   O     O_R   0.063290 0.731180 0.768590 -0.587027
O62   O     O_R   0.936710 0.268820 0.768590 -0.587972
O63   O     O_R   0.063290 0.268820 0.231410 -0.587027
O64   O     O_R   0.936710 0.731180 0.231410 -0.587973
O65   O     O_R   0.960850 0.531910 0.467880 -0.517404
O66   O     O_R   0.039150 0.468090 0.467880 -0.517345
O67   O     O_R   0.960850 0.468090 0.532120 -0.517402
O68   O     O_R   0.039150 0.531910 0.532120 -0.517345
O69   O     O_R   0.460850 0.031910 0.467880 -0.517402
O70   O     O_R   0.539150 0.968090 0.467880 -0.517342
O71   O     O_R   0.460850 0.968090 0.532120 -0.517403
O72   O     O_R   0.539150 0.031910 0.532120 -0.517339
O73   O     O_R   0.460850 0.531910 0.967880 -0.517397
O74   O     O_R   0.539150 0.468090 0.967880 -0.517337
O75   O     O_R   0.460850 0.468090 0.032120 -0.517405
O76   O     O_R   0.539150 0.531910 0.032120 -0.517309
O77   O     O_R   0.960850 0.031910 0.967880 -0.517400
O78   O     O_R   0.039150 0.968090 0.967880 -0.517344
O79   O     O_R   0.960850 0.968090 0.032120 -0.517404
O80   O     O_R   0.039150 0.031910 0.032120 -0.517335
O81   O     O_R   0.035590 0.531900 0.467860 -0.596835
O82   O     O_R   0.964410 0.468100 0.467860 -0.596872
O83   O     O_R   0.035590 0.468100 0.532140 -0.596811
O84   O     O_R   0.964410 0.531900 0.532140 -0.596873
O85   O     O_R   0.535590 0.031900 0.467860 -0.596812
O86   O     O_R   0.464410 0.968100 0.467860 -0.596872
O87   O     O_R   0.535590 0.968100 0.532140 -0.596835
O88   O     O_R   0.464410 0.031900 0.532140 -0.596876
O89   O     O_R   0.535590 0.531900 0.967860 -0.596746
O90   O     O_R   0.464410 0.468100 0.967860 -0.596874
O91   O     O_R   0.535590 0.468100 0.032140 -0.596903
O92   O     O_R   0.464410 0.531900 0.032140 -0.596880
O93   O     O_R   0.035590 0.031900 0.967860 -0.596789
O94   O     O_R   0.964410 0.968100 0.967860 -0.596873
O95   O     O_R   0.035590 0.968100 0.032140 -0.596858
O96   O     O_R   0.964410 0.031900 0.032140 -0.596873
C353  C     C_3   0.057699 0.151414 0.214327 -0.843804
H161  H     H_    0.079720 0.130961 0.211100 0.222197
H162  H     H_    0.079045 0.172207 0.217618 0.224887
H163  H     H_    0.037794 0.147293 0.235611 0.251535
C354  C     C_3   0.943925 0.785343 0.150897 -0.834929
H164  H     H_    0.922333 0.788381 0.130211 0.222057
H165  H     H_    0.964464 0.764306 0.146935 0.250516
H166  H     H_    0.922153 0.781708 0.171388 0.228738
C355  C     C_3   0.057575 0.848651 0.785622 -0.843703
H167  H     H_    0.079563 0.869124 0.788833 0.222166
H168  H     H_    0.078955 0.827880 0.782305 0.224929
H169  H     H_    0.037621 0.852760 0.764359 0.251541
C356  C     C_3   0.943925 0.214656 0.849104 -0.834927
H170  H     H_    0.922333 0.211619 0.869789 0.222058
H171  H     H_    0.964464 0.235694 0.853065 0.250516
H172  H     H_    0.922153 0.218291 0.828612 0.228737
C357  C     C_3   0.557887 0.651515 0.214247 -0.843991
H173  H     H_    0.579956 0.631092 0.210995 0.222250
H174  H     H_    0.579181 0.672341 0.217498 0.224829
H175  H     H_    0.538057 0.647376 0.235562 0.251528
C358  C     C_3   0.443924 0.285344 0.150897 -0.834929
H176  H     H_    0.422331 0.288381 0.130212 0.222057
H177  H     H_    0.464462 0.264306 0.146935 0.250516
H178  H     H_    0.422152 0.281709 0.171389 0.228736
C359  C     C_3   0.557641 0.348616 0.785649 -0.843758
H179  H     H_    0.579647 0.369078 0.788869 0.222183
H180  H     H_    0.579003 0.327833 0.782346 0.224907
H181  H     H_    0.537714 0.352732 0.764375 0.251539
C360  C     C_3   0.443924 0.714656 0.849103 -0.834918
H182  H     H_    0.422332 0.711619 0.869789 0.222061
H183  H     H_    0.464463 0.735694 0.853065 0.250519
H184  H     H_    0.422152 0.718291 0.828612 0.228735
C361  C     C_3   0.557634 0.151378 0.714355 -0.843733
H185  H     H_    0.579638 0.130915 0.711136 0.222177
H186  H     H_    0.578998 0.172160 0.717660 0.224907
H187  H     H_    0.537703 0.147263 0.735628 0.251535
C362  C     C_3   0.443925 0.785343 0.650897 -0.834934
H188  H     H_    0.422333 0.788381 0.630211 0.222056
H189  H     H_    0.464463 0.764306 0.646935 0.250516
H190  H     H_    0.422152 0.781708 0.671388 0.228738
C363  C     C_3   0.557594 0.848641 0.285630 -0.843722
H191  H     H_    0.579587 0.869111 0.288844 0.222171
H192  H     H_    0.578968 0.827866 0.282317 0.224922
H193  H     H_    0.537648 0.852752 0.264363 0.251543
C364  C     C_3   0.443916 0.214653 0.349099 -0.834933
H194  H     H_    0.422322 0.211615 0.369784 0.222058
H195  H     H_    0.464452 0.235692 0.353062 0.250515
H196  H     H_    0.422146 0.218286 0.328606 0.228734
C365  C     C_3   0.057579 0.651352 0.714375 -0.843717
H197  H     H_    0.079569 0.630880 0.711163 0.222169
H198  H     H_    0.078958 0.672124 0.717691 0.224928
H199  H     H_    0.037628 0.647243 0.735640 0.251545
C366  C     C_3   0.943925 0.285343 0.650897 -0.834930
H200  H     H_    0.922333 0.288381 0.630211 0.222056
H201  H     H_    0.964463 0.264306 0.646935 0.250516
H202  H     H_    0.922152 0.281708 0.671388 0.228737
C367  C     C_3   0.057610 0.348634 0.285635 -0.843717
H203  H     H_    0.079608 0.369101 0.288851 0.222170
H204  H     H_    0.078981 0.327856 0.282326 0.224915
H205  H     H_    0.037670 0.352747 0.264366 0.251535
C368  C     C_3   0.943925 0.714657 0.349104 -0.834935
H206  H     H_    0.922334 0.711619 0.369789 0.222056
H207  H     H_    0.964464 0.735694 0.353065 0.250515
H208  H     H_    0.922153 0.718292 0.328612 0.228738
F1    F     F_    0.081641 0.065791 0.070766 -0.650468
F2    F     F_    0.918486 0.928822 0.065394 -0.650560
F3    F     F_    0.081624 0.934306 0.929141 -0.650489
F4    F     F_    0.918486 0.071178 0.934607 -0.650548
F5    F     F_    0.581663 0.565965 0.070597 -0.650454
F6    F     F_    0.418486 0.428822 0.065394 -0.650567
F7    F     F_    0.581633 0.434255 0.929190 -0.650478
F8    F     F_    0.418486 0.571178 0.934606 -0.650539
F9    F     F_    0.581632 0.065743 0.570812 -0.650482
F10   F     F_    0.418486 0.928822 0.565394 -0.650559
F11   F     F_    0.581626 0.934290 0.429156 -0.650488
F12   F     F_    0.418484 0.071172 0.434600 -0.650551
F13   F     F_    0.081623 0.565686 0.570867 -0.650491
F14   F     F_    0.918486 0.428822 0.565394 -0.650554
F15   F     F_    0.081632 0.434279 0.429166 -0.650476
F16   F     F_    0.918486 0.571179 0.434607 -0.650560

loop_
_geom_bond_atom_site_label_1
_geom_bond_atom_site_label_2
_ccdc_geom_bond_type
C9    O9    A    
C4    C36   S    
C255  O87   A    
C362  H188  S    
C305  C319  A    
C5    C37   S    
C226  H58   S    
C365  H198  S    
C109  C197  A    
C53   C69   A    
C256  O72   A    
C99   C187  A    
C363  H191  S    
C313  C318  A    
C160  F16   S    
C310  C316  A    
C368  H206  S    
C97   C185  A    
C166  H22   S    
C3    O19   A    
C31   C367  S    
C145  F1    S    
C277  H5    S    
C87   C191  S    
C100  C188  A    
C222  H54   S    
C101  C189  A    
C20   C340  A    
C182  O44   A    
C278  H6    S    
C322  C325  A    
C130  C146  A    
C85   C189  S    
C336  H80   S    
Cu21  O71   S    
C154  C170  A    
C26   C362  S    
C214  C244  A    
C238  C270  S    
Cu6   Cu12  S    
C332  H76   S    
Cu4   O36   S    
C204  H36   S    
C175  H31   S    
C56   C72   A    
C104  C192  A    
C160  C176  A    
C117  H149  S    
C329  C334  A    
C287  C289  A    
C230  C236  A    
C85   C341  A    
C20   C356  S    
C144  C160  A    
Cu19  O90   S    
C119  H151  S    
C281  C303  A    
C25   C345  A    
C130  C263  S    
C282  C304  A    
C226  C240  A    
Cu24  O68   S    
C131  C262  S    
Cu22  O70   S    
C138  C154  A    
C151  F7    S    
C72   C88   A    
C117  C133  A    
C177  C294  S    
Cu10  O42   S    
C267  O51   A    
C265  O63   A    
Cu9   O41   S    
C114  C130  A    
C42   C58   A    
C179  C296  S    
C273  C289  A    
C203  C219  A    
C267  O61   A    
C359  H180  S    
C57   C73   A    
C354  H165  S    
C17   C337  A    
C270  O54   A    
Cu18  O80   S    
C300  C316  A    
C357  H175  S    
C321  H65   S    
C242  C245  S    
C179  O35   A    
C349  H93   S    
C170  H26   S    
C32   C368  S    
C75   H123  S    
C171  C195  A    
C358  H178  S    
C25   C41   A    
C346  H90   S    
C227  C237  A    
C297  C321  A    
C92   C196  S    
C173  C197  A    
C28   C44   A    
Cu21  O88   S    
C221  C237  A    
C74   H122  S    
C354  H164  S    
C309  C333  A    
C16   O32   A    
C228  C238  A    
Cu12  O44   S    
C66   C82   A    
C24   C344  A    
C54   C70   A    
C89   C193  S    
C232  C234  A    
C73   H121  S    
C10   O10   A    
C229  H61   S    
C127  C143  A    
C47   C63   A    
C361  H187  S    
C143  C159  A    
C128  C144  A    
C343  H87   S    
C353  H161  S    
Cu7   O25   S    
Cu21  Cu22  S    
C140  C156  A    
C251  O83   A    
Cu24  O83   S    
C273  H1    S    
C220  H52   S    
Cu6   O38   S    
C82   C186  S    
C362  H190  S    
C180  C295  S    
C35   C51   A    
C356  H170  S    
C225  C239  A    
C181  C290  S    
C172  C196  A    
Cu16  O64   S    
C158  F14   S    
C138  C255  S    
C1    O1    A    
Cu4   O52   S    
C363  H193  S    
C213  C229  A    
C92   C348  A    
C368  H208  S    
C29   C365  S    
C212  C228  A    
C142  C251  S    
C68   H116  S    
C250  O82   A    
C9    C41   S    
C164  C188  A    
C207  C247  A    
Cu23  Cu24  S    
C80   H128  S    
Cu5   O27   S    
C167  C191  A    
C303  C327  A    
C249  O81   A    
C168  C192  A    
C244  C247  S    
C147  F3    S    
C74   C90   A    
C358  H177  S    
C45   C61   A    
C12   C44   S    
C223  C239  A    
C360  H182  S    
C27   C363  S    
C13   C45   S    
C4    O4    A    
C257  O89   A    
C78   C94   A    
C324  C327  A    
C151  C167  A    
C353  H162  S    
C3    O3    A    
C115  H147  S    
C201  C241  A    
C79   H127  S    
C110  H142  S    
C261  O77   A    
C52   H100  S    
C98   C114  A    
C24   C360  S    
C41   C57   A    
C252  O84   A    
C263  O95   A    
Cu5   O5    S    
C98   C186  A    
C243  C248  S    
C64   H112  S    
C7    C39   S    
C19   C35   A    
C140  C253  S    
C8    C40   S    
Cu15  O47   S    
C361  H186  S    
C333  H77   S    
C50   H98   S    
C114  H146  S    
C215  H47   S    
Cu19  Cu20  S    
C288  C290  A    
C216  H48   S    
Cu8   O56   S    
C331  H75   S    
Cu18  O78   S    
C285  H13   S    
C144  C249  S    
C84   C340  A    
Cu17  O77   S    
C364  H194  S    
C283  H11   S    
C204  C244  A    
C307  C317  A    
C210  C248  A    
C281  H9    S    
C342  H86   S    
C309  C315  A    
C106  C194  A    
C264  O80   A    
C111  H143  S    
C315  C320  A    
C145  C161  A    
C112  H144  S    
C316  C319  A    
C312  C314  A    
C156  F12   S    
C26   C346  A    
C2    O18   A    
C19   C339  A    
C279  C305  A    
C14   O14   A    
C178  O34   A    
C123  C139  A    
C4    O20   A    
C311  C335  A    
C22   C358  S    
C55   H103  S    
C121  C137  A    
Cu10  O24   S    
C353  H163  S    
C330  H74   S    
C182  O38   A    
C260  O92   A    
C133  C260  S    
Cu13  O19   S    
Cu7   O55   S    
C100  H132  S    
C354  H166  S    
C93   C349  A    
C254  O70   A    
C131  C147  A    
C108  C124  A    
C253  O69   A    
C129  C264  S    
C210  H42   S    
C331  C336  A    
C269  O59   A    
C118  C134  A    
C43   C59   A    
C37   C53   A    
C275  C309  A    
C159  F15   S    
C299  C323  A    
C29   C349  A    
C210  C226  A    
C106  C122  A    
C124  H156  S    
C344  H88   S    
C31   C351  A    
C18   C34   A    
C12   O28   A    
Cu11  O11   S    
Cu5   O37   S    
C272  O56   A    
C22   C342  A    
C90   C346  A    
C235  C267  S    
C39   C55   A    
C86   C190  S    
C306  C330  A    
Cu7   O39   S    
C125  C141  A    
C25   C361  S    
C148  C164  A    
C13   O29   A    
C219  C235  A    
C139  C254  S    
C149  C165  A    
C276  C310  A    
C360  H184  S    
C325  H69   S    
C338  H82   S    
C211  H43   S    
C15   C47   S    
C324  H68   S    
C328  H72   S    
C28   C348  A    
C116  H148  S    
C52   C68   A    
C69   H117  S    
C156  C172  A    
C135  C258  S    
C7    O23   A    
C93   C197  S    
C208  C248  A    
Cu1   O1    S    
C159  C175  A    
C177  O33   A    
Cu4   O30   S    
C116  C132  A    
C3    C35   S    
C367  H205  S    
C266  O64   A    
Cu4   O4    S    
C178  C293  S    
C217  H49   S    
C271  O57   A    
C51   C67   A    
C44   C60   A    
C274  C290  A    
C175  C199  A    
Cu8   O8    S    
C184  O42   A    
C1    O17   A    
C6    O6    A    
C110  C126  A    
C367  H203  S    
C364  H196  S    
C173  H29   S    
C322  H66   S    
Cu2   O32   S    
C305  C329  A    
C300  C324  A    
C103  C191  A    
C53   H101  S    
Cu4   Cu14  S    
C69   C85   A    
C26   C42   A    
C98   H130  S    
C177  O47   A    
C109  C125  A    
C96   C200  S    
C179  O45   A    
C172  H28   S    
C286  C300  A    
Cu21  O69   S    
C30   C46   A    
C83   C339  A    
C205  H37   S    
C120  H152  S    
C94   C198  S    
C215  C241  A    
C97   H129  S    
C13   O13   A    
C72   H120  S    
Cu17  O79   S    
C208  C224  A    
C334  H78   S    
C139  C155  A    
C285  C291  A    
Cu18  O95   S    
C352  H96   S    
C286  C292  A    
C51   H99   S    
C355  H169  S    
Cu3   O35   S    
Cu15  O17   S    
C23   C343  A    
Cu2   O2    S    
C281  C295  A    
C91   C347  A    
Cu12  O12   S    
C23   C359  S    
C146  F2    S    
C265  O49   A    
C206  C222  A    
C231  H63   S    
C280  C296  A    
Cu15  O63   S    
C182  C289  S    
C55   C71   A    
C302  C326  A    
C278  C294  A    
Cu3   O29   S    
C233  C265  S    
C171  H27   S    
C21   C341  A    
C49   H97   S    
C136  C257  S    
C56   H104  S    
C223  H55   S    
C357  H174  S    
C163  H19   S    
C181  O37   A    
C10   O26   A    
C306  C320  A    
C71   H119  S    
C355  H168  S    
C22   C38   A    
C183  O39   A    
Cu5   Cu11  S    
C101  H133  S    
C184  O40   A    
C19   C355  S    
C10   C42   S    
C266  O50   A    
C100  C116  A    
C332  C335  A    
C107  C123  A    
C298  C314  A    
C272  O58   A    
C359  H179  S    
C2    O2    A    
C169  H25   S    
C14   C46   S    
C202  H34   S    
C207  C223  A    
C146  C162  A    
C277  C293  A    
C58   C74   A    
C125  H157  S    
C204  C220  A    
Cu24  O66   S    
C206  C246  A    
C234  C266  S    
C142  C158  A    
C355  H167  S    
Cu10  O10   S    
C99   C115  A    
C108  H140  S    
C33   C49   A    
C321  C326  A    
C230  H62   S    
C253  O85   A    
C21   C37   A    
C15   O15   A    
C284  H12   S    
C87   C343  A    
C161  C185  A    
C174  H30   S    
C63   H111  S    
Cu16  O48   S    
C95   C351  A    
C88   C192  S    
C323  H67   S    
C134  C259  S    
C40   C56   A    
C330  C333  A    
C212  H44   S    
C46   C62   A    
C165  C189  A    
C86   C342  A    
Cu19  O75   S    
C21   C357  S    
C12   O12   A    
C30   C366  S    
C5    O5    A    
C282  H10   S    
C218  H50   S    
C314  C317  A    
C368  H207  S    
C362  H189  S    
C31   C47   A    
C64   C80   A    
C209  C225  A    
C176  C200  A    
C77   H125  S    
C208  H40   S    
Cu8   Cu10  S    
Cu14  O62   S    
C62   C78   A    
C76   C92   A    
Cu13  O61   S    
C168  H24   S    
C279  H7    S    
C113  H145  S    
C274  C312  A    
C350  H94   S    
Cu18  O93   S    
Cu2   Cu16  S    
C224  H56   S    
C301  C325  A    
Cu17  O94   S    
C68   C84   A    
C259  O75   A    
C7    O7    A    
C258  O74   A    
C347  H91   S    
C254  O86   A    
Cu20  O74   S    
C106  H138  S    
C133  C149  A    
Cu20  O89   S    
C158  C174  A    
C345  H89   S    
C62   H110  S    
C262  O94   A    
C119  C135  A    
C273  C311  A    
C241  C246  S    
C96   C352  A    
Cu16  O16   S    
C229  C235  A    
Cu23  O67   S    
Cu2   O34   S    
C79   C95   A    
C147  C163  A    
Cu14  O14   S    
C65   C81   A    
C90   C194  S    
C270  O60   A    
C213  H45   S    
C170  C194  A    
C304  C328  A    
C9    O25   A    
C231  C233  A    
C184  C291  S    
C122  C138  A    
C113  C129  A    
C66   H114  S    
C71   C87   A    
C221  H53   S    
C14   O30   A    
C302  C318  A    
C60   C76   A    
C122  H154  S    
C181  O43   A    
C167  H23   S    
C148  F4    S    
C152  C168  A    
C217  C233  A    
C214  C230  A    
C203  H35   S    
Cu23  O84   S    
C277  C307  A    
C359  H181  S    
C252  O68   A    
C326  H70   S    
C278  C308  A    
C357  H173  S    
C201  H33   S    
C94   C350  A    
C54   H102  S    
C287  C297  A    
C183  O41   A    
C2    C34   S    
C124  C140  A    
C307  C331  A    
C58   H106  S    
C169  C193  A    
C27   C347  A    
C112  C200  A    
C256  O88   A    
Cu6   O28   S    
C284  C294  A    
C312  C336  A    
C101  C117  A    
Cu6   O6    S    
Cu11  O43   S    
C73   C89   A    
C224  C240  A    
C275  C291  A    
C216  C242  A    
C211  C245  A    
C32   C48   A    
C165  H21   S    
C263  O79   A    
C135  C151  A    
C275  H3    S    
C17   C33   A    
C102  C190  A    
C126  C142  A    
Cu19  O73   S    
C155  F11   S    
C207  H39   S    
Cu9   O9    S    
C112  C128  A    
C268  O52   A    
C11   O27   A    
C18   C338  A    
C201  C217  A    
C154  F10   S    
C27   C43   A    
C137  C256  S    
C153  F9    S    
C99   H131  S    
C29   C45   A    
C236  C268  S    
C141  C252  S    
C178  O48   A    
C237  C269  S    
C88   C344  A    
C327  H71   S    
C283  C301  A    
C136  C152  A    
C366  H201  S    
C206  H38   S    
C157  C173  A    
C60   H108  S    
C202  C242  A    
C150  F6    S    
Cu1   O49   S    
C143  C250  S    
C329  H73   S    
Cu17  O96   S    
C153  C169  A    
C365  H197  S    
C6    O22   A    
C282  C296  A    
C16   C48   S    
C107  C195  A    
C104  H136  S    
Cu20  O91   S    
C1    C33   S    
C63   C79   A    
C366  H200  S    
C105  C193  A    
Cu15  O15   S    
C284  C302  A    
C49   C65   A    
C104  C120  A    
C215  C231  A    
Cu12  O60   S    
C301  C317  A    
C283  C293  A    
C183  C292  S    
C360  H183  S    
C18   C354  S    
C303  C319  A    
Cu1   Cu15  S    
C304  C320  A    
C203  C243  A    
C89   C345  A    
Cu3   Cu13  S    
C91   C195  S    
C163  C187  A    
C323  C328  A    
Cu9   O23   S    
C205  C221  A    
C82   C338  A    
C105  H137  S    
C250  O66   A    
C48   C64   A    
C111  C199  A    
C176  H32   S    
C249  O65   A    
C174  C198  A    
C162  H18   S    
C276  H4    S    
C123  H155  S    
C367  H204  S    
C260  O76   A    
C38   C54   A    
Cu22  O87   S    
C109  H141  S    
C81   C337  A    
C11   C43   S    
C202  C218  A    
C356  H171  S    
Cu24  O81   S    
C80   C96   A    
C286  H14   S    
C209  C247  A    
Cu23  O82   S    
C225  H57   S    
C102  C118  A    
C299  C315  A    
Cu3   O3    S    
Cu22  O72   S    
C30   C350  A    
C259  O91   A    
C285  C299  A    
Cu1   O33   S    
C110  C198  A    
Cu6   O54   S    
C83   C187  S    
C108  C196  A    
C81   C185  S    
C78   H126  S    
C127  H159  S    
C232  H64   S    
C269  O53   A    
C262  O78   A    
C280  C306  A    
C121  H153  S    
C255  O71   A    
C34   C50   A    
C150  C166  A    
C335  H79   S    
C341  H85   S    
C137  C153  A    
C228  H60   S    
C213  C243  A    
Cu9   O57   S    
C218  C234  A    
C339  H83   S    
C61   C77   A    
C288  H16   S    
C120  C136  A    
C20   C36   A    
C337  H81   S    
C70   H118  S    
Cu3   O51   S    
Cu10  O58   S    
C209  H41   S    
Cu2   O50   S    
C311  C313  A    
Cu16  O18   S    
Cu14  O20   S    
C166  C190  A    
C268  O62   A    
Cu8   O26   S    
C8    O24   A    
C356  H172  S    
C103  H135  S    
C364  H195  S    
C162  C186  A    
C219  H51   S    
C67   H115  S    
C6    C38   S    
C164  H20   S    
C105  C121  A    
Cu7   Cu9   S    
C67   C83   A    
C363  H192  S    
C227  H59   S    
C50   C66   A    
C212  C246  A    
Cu7   O7    S    
C258  O90   A    
C103  C119  A    
C28   C364  S    
C15   O31   A    
C257  O73   A    
C141  C157  A    
C17   C353  S    
C32   C352  A    
C274  H2    S    
Cu1   O31   S    
C107  H139  S    
C111  C127  A    
C365  H199  S    
C348  H92   S    
Cu14  O46   S    
C97   C113  A    
Cu19  O92   S    
C70   C86   A    
C59   C75   A    
C351  H95   S    
C77   C93   A    
C298  C322  A    
Cu17  Cu18  S    
C366  H202  S    
C65   H113  S    
Cu23  O65   S    
C251  O67   A    
C134  C150  A    
C76   H124  S    
C132  C148  A    
Cu13  O45   S    
C220  C236  A    
C271  O55   A    
C308  C332  A    
C36   C52   A    
C8    O8    A    
C61   H109  S    
C75   C91   A    
C59   H107  S    
C340  H84   S    
Cu11  O21   S    
C149  F5    S    
C214  H46   S    
C239  C271  S    
C57   H105  S    
C240  C272  S    
C287  H15   S    
C11   O11   A    
C297  C313  A    
C152  F8    S    
Cu11  O59   S    
C308  C318  A    
C358  H176  S    
C118  H150  S    
C222  C238  A    
Cu20  O76   S    
C23   C39   A    
Cu22  O85   S    
C115  C131  A    
C279  C295  A    
C24   C40   A    
Cu21  O86   S    
C157  F13   S    
C129  C145  A    
C126  H158  S    
C5    O21   A    
Cu5   O53   S    
C84   C188  S    
C128  H160  S    
C276  C292  A    
C155  C171  A    
C180  O46   A    
Cu13  O13   S    
C95   C199  S    
C205  C245  A    
C161  H17   S    
C280  H8    S    
C288  C298  A    
C216  C232  A    
C211  C227  A    
C180  O36   A    
C264  O96   A    
C310  C334  A    
C361  H185  S    
Cu8   O40   S    
C16   O16   A    
C261  O93   A    
C132  C261  S    
C102  H134  S    
Cu12  O22   S    
