data_mof_unit_67406.cif
_audit_creation_date              2013-03-05T15:39:48-0500
_audit_creation_method            fapswitch 2.2
_symmetry_space_group_name_H-M    P1
_symmetry_Int_Tables_number       1
_space_group_crystal_system       triclinic
_cell_length_a                    12.269576
_cell_length_b                    12.46479
_cell_length_c                    7.508962
_cell_angle_alpha                 90.000056
_cell_angle_beta                  106.299671
_cell_angle_gamma                 90.000012
_cell_volume                      1102.24540515

loop_
_atom_site_label
_atom_site_type_symbol
_atom_site_description
_atom_site_fract_x
_atom_site_fract_y
_atom_site_fract_z
_atom_type_partial_charge
O1    O     O_R   0.398880 0.887420 0.621600 -0.569154
O2    O     O_R   0.601120 0.112580 0.378400 -0.513534
O3    O     O_R   0.601120 0.887420 0.378400 -0.569137
O4    O     O_R   0.398880 0.112580 0.621600 -0.513541
O5    O     O_R   0.898880 0.387420 0.621600 -0.569142
O6    O     O_R   0.101120 0.612580 0.378400 -0.513539
O7    O     O_R   0.101120 0.387420 0.378400 -0.569151
O8    O     O_R   0.898880 0.612580 0.621600 -0.513536
O9    O     O_R   0.369080 0.887420 0.305440 -0.608291
O10   O     O_R   0.630920 0.112580 0.694560 -0.570974
O11   O     O_R   0.630920 0.887420 0.694560 -0.608301
O12   O     O_R   0.369080 0.112580 0.305440 -0.570955
O13   O     O_R   0.869080 0.387420 0.305440 -0.608298
O14   O     O_R   0.130920 0.612580 0.694560 -0.570959
O15   O     O_R   0.130920 0.387420 0.694560 -0.608292
O16   O     O_R   0.869080 0.612580 0.305440 -0.570966
C1    C     C_R   0.347404 0.853871 0.455552 0.838058
C2    C     C_R   0.654042 0.144739 0.544640 0.849653
C3    C     C_R   0.652596 0.853872 0.544448 0.838070
C4    C     C_R   0.345958 0.144739 0.455360 0.849642
C5    C     C_R   0.847404 0.353872 0.455552 0.838068
C6    C     C_R   0.154042 0.644739 0.544640 0.849644
C7    C     C_R   0.152596 0.353871 0.544448 0.838060
C8    C     C_R   0.845958 0.644739 0.455360 0.849650
Cu1   Cu    Cu3+1 0.517640 0.000000 0.687200 1.082438
Cu2   Cu    Cu3+1 0.482360 1.000000 0.312800 1.082454
Cu3   Cu    Cu3+1 0.017640 0.500000 0.687200 1.082450
Cu4   Cu    Cu3+1 0.982360 0.500000 0.312800 1.082443
C9    C     C_2   0.248360 0.210920 0.436877 -0.076289
C10   C     C_2   0.748799 0.786112 0.563763 -0.059837
C11   C     C_2   0.751640 0.210919 0.563122 -0.076286
C12   C     C_2   0.251202 0.786110 0.436236 -0.059819
C13   C     C_2   0.748360 0.710920 0.436878 -0.076285
C14   C     C_2   0.248798 0.286111 0.563763 -0.059818
C15   C     C_2   0.251640 0.710919 0.563123 -0.076291
C16   C     C_2   0.751201 0.286112 0.436237 -0.059838
N1    N     N_2   0.455760 0.000000 0.031460 0.139707
N2    N     N_2   0.544240 1.000000 0.968540 0.139706
N3    N     N_2   0.955760 0.500000 0.031460 0.139706
N4    N     N_2   0.044240 0.500000 0.968540 0.139706
I1    I     I_    0.600048 0.659414 0.233935 -0.352814
I2    I     I_    0.393942 0.333625 0.775667 -0.310103
I3    I     I_    0.399950 0.659416 0.766069 -0.352819
I4    I     I_    0.606056 0.333628 0.224337 -0.310113
I5    I     I_    0.100050 0.159416 0.233930 -0.352819
I6    I     I_    0.893944 0.833629 0.775663 -0.310115
I7    I     I_    0.899952 0.159414 0.766063 -0.352818
I8    I     I_    0.106059 0.833623 0.224330 -0.310101
O17   O     O_3   0.361773 0.037553 0.908807 -0.454098
C17   C     C_3   0.268627 0.977853 0.925695 0.199053
H1    H     H_    0.245348 0.001784 0.052152 0.201616
H2    H     H_    0.285810 0.889976 0.927377 0.167033
C18   C     C_3   0.168741 0.002865 0.758877 -0.729534
H3    H     H_    0.187691 0.977743 0.628985 0.238639
H4    H     H_    0.092683 0.959573 0.770865 0.255004
H5    H     H_    0.151058 0.090378 0.752086 0.273397
O18   O     O_3   0.638229 0.037541 0.091204 -0.454106
C19   C     C_3   0.731376 0.977854 0.074281 0.199041
H6    H     H_    0.754642 0.001800 0.947821 0.201622
H7    H     H_    0.714200 0.889975 0.072584 0.167044
C20   C     C_3   0.831269 0.002864 0.241089 -0.729522
H8    H     H_    0.812346 0.977695 0.370982 0.238635
H9    H     H_    0.907336 0.959609 0.229042 0.255023
H10   H     H_    0.848923 0.090383 0.247927 0.273395
O19   O     O_3   0.861772 0.537545 0.908800 -0.454102
C21   C     C_3   0.768625 0.477853 0.925710 0.199045
H11   H     H_    0.745354 0.501794 0.052169 0.201620
H12   H     H_    0.785804 0.389975 0.927400 0.167039
C22   C     C_3   0.668734 0.502864 0.758900 -0.729531
H13   H     H_    0.687667 0.477715 0.629006 0.238638
H14   H     H_    0.592671 0.459595 0.770924 0.255016
H15   H     H_    0.651069 0.590381 0.752080 0.273396
O20   O     O_3   0.138227 0.537552 0.091194 -0.454098
C23   C     C_3   0.231374 0.477855 0.074300 0.199052
H16   H     H_    0.254651 0.501790 0.947843 0.201617
H17   H     H_    0.214193 0.389977 0.072614 0.167035
C24   C     C_3   0.331261 0.502867 0.241117 -0.729530
H18   H     H_    0.312316 0.477733 0.371009 0.238637
H19   H     H_    0.407322 0.459585 0.229115 0.255009
H20   H     H_    0.348936 0.590382 0.247920 0.273396

loop_
_geom_bond_atom_site_label_1
_geom_bond_atom_site_label_2
_geom_bond_distance
_ccdc_geom_bond_type
O16   Cu4   1.964935 S    
C21   H12   1.114872 S    
O2    C2    1.298292 A    
C12   I8    2.112688 S    
O20   C23   1.399052 S    
C18   H4    1.103316 S    
C14   I2    2.112691 S    
O4    Cu1   1.982978 S    
C5    C16   1.425332 S    
C24   H18   1.109399 S    
C6    C15   1.428445 S    
O11   C3    1.297857 A    
C23   H17   1.114875 S    
C18   H5    1.110572 S    
C21   C22   1.518734 S    
O11   Cu1   1.964935 S    
C19   H7    1.114874 S    
O6    C6    1.298293 A    
N4    O20   1.342010 S    
C22   H14   1.103318 S    
C20   H9    1.103330 S    
O5    Cu3   1.982977 S    
O6    Cu4   1.982976 S    
C23   C24   1.518735 S    
C17   H2    1.114873 S    
O13   Cu4   1.964935 S    
O3    C3    1.298600 A    
O14   Cu3   1.964933 S    
C15   I3    2.118775 S    
C19   C20   1.518733 S    
O15   C7    1.297856 A    
C21   H11   1.106552 S    
O16   C8    1.299125 A    
C11   I7    2.118777 S    
O1    Cu1   1.982977 S    
N3    O19   1.342011 S    
C22   H13   1.109397 S    
O9    Cu2   1.964935 S    
C4    C9    1.428445 S    
C24   H19   1.103321 S    
C17   C18   1.518735 S    
C23   H16   1.106557 S    
C12   C15   1.335430 D    
N3    N4    1.299877 D    
Cu4   N3    2.045105 S    
C19   H6    1.106552 S    
C18   H3    1.109393 S    
C9    C14   1.335429 D    
O7    Cu4   1.982978 S    
O12   Cu2   1.964935 S    
C20   H10   1.110585 S    
N1    N2    1.299877 D    
Cu1   N2    2.045106 S    
N2    O18   1.342014 S    
N1    O17   1.342009 S    
O15   Cu3   1.964935 S    
Cu3   N4    2.045106 S    
C7    C14   1.425331 S    
O12   C4    1.299125 A    
C17   H1    1.106553 S    
O13   C5    1.297855 A    
O2    Cu2   1.982976 S    
O10   Cu1   1.964933 S    
O9    C1    1.297854 A    
O19   C21   1.399048 S    
C16   I4    2.112697 S    
C22   H15   1.110576 S    
C24   H20   1.110577 S    
C1    C12   1.425331 S    
C10   C13   1.335430 D    
C10   I6    2.112699 S    
O3    Cu2   1.982978 S    
Cu2   N1    2.045105 S    
O1    C1    1.298600 A    
C8    C13   1.428445 S    
C13   I1    2.118779 S    
O14   C6    1.299126 A    
Cu1   Cu2   2.721763 S    
O18   C19   1.399050 S    
O10   C2    1.299128 A    
O7    C7    1.298600 A    
O8    C8    1.298293 A    
C20   H8    1.109411 S    
O4    C4    1.298293 A    
O5    C5    1.298600 A    
O17   C17   1.399050 S    
C9    I5    2.118777 S    
Cu3   Cu4   2.721763 S    
O8    Cu3   1.982978 S    
C11   C16   1.335431 D    
C2    C11   1.428444 S    
C3    C10   1.425331 S    
