data_mof_unit_53241.cif
_audit_creation_date              2012-12-10T18:42:42-0500
_audit_creation_method            fapswitch 2.2
_symmetry_space_group_name_H-M    P1
_symmetry_Int_Tables_number       1
_space_group_crystal_system       triclinic
_cell_length_a                    10.808948
_cell_length_b                    15.104614
_cell_length_c                    13.852862
_cell_angle_alpha                 90.380084
_cell_angle_beta                  89.977737
_cell_angle_gamma                 90.229303
_cell_volume                      2261.61931413

loop_
_atom_site_label
_atom_site_type_symbol
_atom_type_description
_atom_site_fract_x
_atom_site_fract_y
_atom_site_fract_z
_atom_type_partial_charge
C1    C     C_R   0.500328 0.330093 0.499736 0.811189
C2    C     C_R   0.501838 0.670315 0.500328 0.816511
C3    C     C_R   0.871457 0.494759 0.499651 -0.079898
C4    C     C_R   0.128188 0.502387 0.499424 -0.076385
C5    C     C_R   0.937878 0.451981 0.573478 0.002665
C6    C     C_R   0.061515 0.542652 0.424059 -0.004578
C7    C     C_R   0.442492 0.094716 0.567706 -0.181709
C8    C     C_R   0.504018 0.905931 0.415899 -0.187434
C9    C     C_R   0.437699 0.186472 0.567837 -0.229914
C10   C     C_R   0.500454 0.814107 0.414784 -0.234685
C11   C     C_R   0.504915 0.234122 0.499387 -0.095976
C12   C     C_R   0.508366 0.767087 0.501269 -0.100754
C13   C     C_R   0.578980 0.189986 0.431960 -0.270831
C14   C     C_R   0.524037 0.813035 0.588724 -0.257597
C15   C     C_R   0.590620 0.098166 0.434823 0.466607
C16   C     C_R   0.533840 0.905081 0.590318 0.460748
C17   C     C_R   0.518998 0.049622 0.502014 -0.009099
C18   C     C_R   0.520347 0.952325 0.503039 -0.000160
C19   C     C_R   0.558257 0.567909 0.108296 -0.291864
C20   C     C_R   0.403002 0.460365 0.891811 -0.290521
C21   C     C_R   0.558204 0.566270 0.209792 0.090128
C22   C     C_R   0.405471 0.460491 0.790300 0.087494
C23   C     C_R   0.262165 0.501709 0.499880 0.799455
C24   C     C_R   0.737687 0.497502 0.499981 0.792002
C25   C     C_R   0.440895 0.434097 0.209031 0.093130
C26   C     C_R   0.594664 0.539116 0.790978 0.099253
C27   C     C_R   0.440209 0.432543 0.107506 -0.294908
C28   C     C_R   0.596829 0.539194 0.892499 -0.288560
C29   C     C_R   0.499352 0.500129 0.054702 0.127616
C30   C     C_R   0.499718 0.499906 0.945357 0.131798
C31   C     C_R   0.232764 0.720675 0.286654 -0.135449
C32   C     C_R   0.747332 0.269832 0.688312 -0.119759
C33   C     C_R   0.173823 0.675493 0.361613 -0.129903
C34   C     C_R   0.806161 0.322020 0.618952 -0.112643
C35   C     C_R   0.122284 0.591375 0.344771 0.126971
C36   C     C_R   0.876703 0.396157 0.647224 0.129387
C37   C     C_R   0.130635 0.552925 0.252452 -0.130570
C38   C     C_R   0.888516 0.416759 0.745798 -0.167364
C39   C     C_R   0.191378 0.597769 0.178113 -0.126401
C40   C     C_R   0.828733 0.364766 0.814923 -0.135654
C41   C     C_R   0.242412 0.681586 0.195208 -0.107328
C42   C     C_R   0.758123 0.291444 0.786201 -0.101128
C43   C     C_R   0.933456 0.538490 0.425179 -0.241831
C44   C     C_R   0.066164 0.457992 0.573579 -0.243102
Cu1   Cu    Cu3+1 0.500000 0.499990 0.596430 0.942526
Cu2   Cu    Cu3+1 0.500000 0.500010 0.403570 0.942728
H1    H     H_    0.289160 0.716310 0.137556 0.123302
H2    H     H_    0.711961 0.251294 0.839800 0.121365
H3    H     H_    0.603106 0.622793 0.072546 0.127096
H4    H     H_    0.324537 0.430388 0.927597 0.123064
H5    H     H_    0.604731 0.618573 0.249392 0.114752
H6    H     H_    0.330840 0.429080 0.750800 0.113078
H7    H     H_    0.394153 0.382003 0.248077 0.122136
H8    H     H_    0.669622 0.570274 0.752029 0.119446
H9    H     H_    0.394885 0.377784 0.071138 0.128968
H10   H     H_    0.675291 0.569015 0.928826 0.124336
H11   H     H_    0.270872 0.786028 0.299417 0.125480
H12   H     H_    0.693184 0.212785 0.666166 0.126336
H13   H     H_    0.168122 0.705911 0.432496 0.113886
H14   H     H_    0.796494 0.305028 0.543257 0.090894
H15   H     H_    0.091814 0.487851 0.238626 0.117945
H16   H     H_    0.942421 0.473665 0.768879 0.119956
H17   H     H_    0.199043 0.567519 0.107316 0.127262
H18   H     H_    0.836909 0.381447 0.890765 0.128014
H19   H     H_    0.881875 0.571422 0.368725 0.152910
H20   H     H_    0.118056 0.424553 0.629475 0.143752
H21   H     H_    0.385156 0.058852 0.618392 0.186611
H22   H     H_    0.491885 0.940834 0.348552 0.182741
H23   H     H_    0.379275 0.220212 0.619808 0.153135
H24   H     H_    0.489593 0.780045 0.346283 0.161133
H25   H     H_    0.631396 0.227044 0.379014 0.159838
H26   H     H_    0.530299 0.777668 0.656325 0.169049
N1    N     N_R   0.500000 0.500020 0.258690 -0.166680
N2    N     N_R   0.500000 0.499980 0.741310 -0.168265
O1    O     O_R   0.500010 0.371450 0.581430 -0.575689
O2    O     O_R   0.499990 0.628550 0.418570 -0.588225
O3    O     O_R   0.500010 0.371460 0.418560 -0.594025
O4    O     O_R   0.499990 0.628540 0.581440 -0.588632
O5    O     O_R   0.319640 0.500000 0.581430 -0.597911
O6    O     O_R   0.680360 0.500000 0.418570 -0.590090
O7    O     O_R   0.319640 0.500010 0.418560 -0.569735
O8    O     O_R   0.680360 0.499990 0.581440 -0.581385
O9    O     O_3   0.664729 0.057406 0.366165 -0.627634
C45   C     C_3   0.777442 0.029413 0.407927 0.054956
H27   H     H_    0.822796 0.984582 0.354912 0.176816
H28   H     H_    0.762855 0.989418 0.473947 0.123069
C46   C     C_3   0.865044 0.107641 0.428554 -0.384480
H29   H     H_    0.873648 0.149176 0.362948 0.230911
H30   H     H_    0.826853 0.148935 0.488010 0.201472
C47   C     C_3   0.993185 0.075795 0.458335 -0.902208
H31   H     H_    0.986683 0.034294 0.524010 0.250529
H32   H     H_    0.053429 0.133773 0.474389 0.258547
H33   H     H_    0.036005 0.036596 0.399082 0.255841
O10   O     O_3   0.544101 0.947290 0.679136 -0.628814
C48   C     C_3   0.665713 0.980042 0.693043 0.053659
H34   H     H_    0.661696 0.029772 0.752405 0.171836
H35   H     H_    0.701992 0.015897 0.629213 0.119217
C49   C     C_3   0.754527 0.906095 0.722849 -0.374543
H36   H     H_    0.715444 0.870104 0.785667 0.228609
H37   H     H_    0.766138 0.858377 0.662169 0.206182
C50   C     C_3   0.881311 0.943418 0.749927 -0.909756
H38   H     H_    0.922328 0.979270 0.687864 0.252385
H39   H     H_    0.943898 0.888414 0.769994 0.257135
H40   H     H_    0.873253 0.989477 0.812443 0.256219

loop_
_geom_bond_atom_site_label_1
_geom_bond_atom_site_label_2
_ccdc_geom_bond_type
C38   C40   A    
C46   H29   S    
C50   H38   S    
C16   O10   S    
C27   C29   A    
C1    O3    A    
C44   H20   S    
C48   H34   S    
C1    C11   S    
C45   C46   S    
C32   H12   S    
C2    C12   S    
Cu2   O2    S    
C28   H10   S    
C48   C49   S    
C39   C41   A    
C20   C30   A    
Cu1   Cu2   S    
C3    C43   A    
C35   C37   A    
C45   H28   S    
C39   H17   S    
C27   H9    S    
C5    C36   S    
C21   N1    A    
C6    C35   S    
C7    C9    A    
C24   O8    A    
C20   H4    S    
C33   C35   A    
C24   O6    A    
Cu1   O8    S    
C7    C17   A    
C31   C33   A    
Cu1   O4    S    
C31   C41   A    
C25   N1    A    
C40   C42   A    
C33   H13   S    
C34   H14   S    
C3    C24   S    
C26   H8    S    
C1    O1    A    
C45   H27   S    
C4    C6    A    
C4    C23   S    
C15   O9    S    
C13   H25   S    
C8    C18   A    
Cu1   N2    S    
C32   C34   A    
C29   C30   S    
C2    O4    A    
Cu2   O7    S    
C19   H3    S    
C47   H32   S    
O9    C45   S    
C43   H19   S    
C17   C18   S    
C41   H1    S    
Cu1   O5    S    
C42   H2    S    
C9    C11   A    
C10   C12   A    
C10   H24   S    
C8    C10   A    
C5    C44   A    
C20   C22   A    
C8    H22   S    
C50   H40   S    
C49   H37   S    
C6    C43   A    
C13   C15   A    
C9    H23   S    
C14   C16   A    
C22   N2    A    
C19   C29   A    
C21   H5    S    
C2    O2    A    
C47   H33   S    
C22   H6    S    
C50   H39   S    
C15   C17   A    
C23   O7    A    
C19   C21   A    
C14   H26   S    
C25   H7    S    
C3    C5    A    
Cu2   O3    S    
C37   H15   S    
C48   H35   S    
C25   C27   A    
C49   C50   S    
C4    C44   A    
C26   C28   A    
C40   H18   S    
Cu1   O1    S    
C31   H11   S    
C28   C30   A    
C12   C14   A    
C37   C39   A    
Cu2   O6    S    
C11   C13   A    
C47   H31   S    
C36   C38   A    
C26   N2    A    
C34   C36   A    
O10   C48   S    
C7    H21   S    
C16   C18   A    
C49   H36   S    
C46   C47   S    
C46   H30   S    
C32   C42   A    
C23   O5    A    
Cu2   N1    S    
C38   H16   S    
