data_mof_unit_23465.cif
_audit_creation_date              2012-12-10T18:35:24-0500
_audit_creation_method            fapswitch 2.2
_symmetry_space_group_name_H-M    P1
_symmetry_Int_Tables_number       1
_space_group_crystal_system       triclinic
_cell_length_a                    15.128071
_cell_length_b                    13.830075
_cell_length_c                    10.793216
_cell_angle_alpha                 89.993813
_cell_angle_beta                  90.006978
_cell_angle_gamma                 89.931278
_cell_volume                      2258.18043183

loop_
_atom_site_label
_atom_site_type_symbol
_atom_type_description
_atom_site_fract_x
_atom_site_fract_y
_atom_site_fract_z
_atom_type_partial_charge
C1    C     C_R   0.329832 0.500046 0.500240 0.762119
C2    C     C_R   0.670168 0.499955 0.500224 0.762101
C3    C     C_R   0.048544 0.500088 0.502315 0.089811
C4    C     C_R   0.951458 0.499925 0.502307 0.089807
C5    C     C_R   0.556238 0.107257 0.420790 0.306256
C6    C     C_R   0.442944 0.892754 0.421894 0.306304
C7    C     C_R   0.443775 0.107488 0.579542 0.306851
C8    C     C_R   0.557024 0.892501 0.578444 0.306871
C9    C     C_R   0.555027 0.209193 0.422451 0.017891
C10   C     C_R   0.444198 0.790816 0.423505 0.018079
C11   C     C_R   0.444980 0.209421 0.577668 0.016817
C12   C     C_R   0.555790 0.790568 0.576617 0.016982
C13   C     C_R   0.500012 0.054559 0.500220 0.037444
C14   C     C_R   0.499974 0.945441 0.500225 0.037490
C15   C     C_R   0.499986 0.500006 0.262716 0.791184
C16   C     C_R   0.500017 0.499994 0.737258 0.797299
C17   C     C_R   0.657299 0.548398 0.128955 -0.133397
C18   C     C_R   0.342902 0.450886 0.870866 -0.137734
C19   C     C_R   0.657140 0.549048 0.870927 -0.137570
C20   C     C_R   0.342664 0.451729 0.128890 -0.133299
C21   C     C_R   0.734022 0.572062 0.064307 -0.108568
C22   C     C_R   0.266080 0.427578 0.935452 -0.112242
C23   C     C_R   0.733929 0.572450 0.935539 -0.112280
C24   C     C_R   0.265943 0.428076 0.064214 -0.108510
C25   C     C_R   0.578223 0.525104 0.934707 0.077093
C26   C     C_R   0.421731 0.475111 0.065178 0.073681
C27   C     C_R   0.578264 0.524925 0.065209 0.073657
C28   C     C_R   0.421804 0.474865 0.934676 0.077054
C29   C     C_R   0.500019 0.499975 0.870924 -0.163859
C30   C     C_R   0.499993 0.500019 0.128999 -0.167114
C31   C     C_R   0.094923 0.582349 0.462891 -0.151831
C32   C     C_R   0.905076 0.417658 0.462915 -0.151895
C33   C     C_R   0.904615 0.582124 0.541266 -0.154147
C34   C     C_R   0.095390 0.417892 0.541317 -0.154203
C35   C     C_R   0.186794 0.582538 0.462903 -0.160763
C36   C     C_R   0.813205 0.417465 0.462926 -0.160721
C37   C     C_R   0.812748 0.582294 0.539977 -0.181425
C38   C     C_R   0.187257 0.417718 0.540032 -0.181395
C39   C     C_R   0.233399 0.500099 0.501009 -0.045199
C40   C     C_R   0.766603 0.499906 0.500995 -0.045226
Cu1   Cu    Cu3+1 0.500000 0.596430 0.500000 0.968705
Cu2   Cu    Cu3+1 0.500000 0.403570 0.500000 0.968619
H1    H     H_    0.206085 0.410427 0.114279 0.147165
H2    H     H_    0.793657 0.590532 0.885413 0.144628
H3    H     H_    0.206348 0.409503 0.885305 0.144599
H4    H     H_    0.793826 0.589833 0.114400 0.147217
H5    H     H_    0.660892 0.548269 0.229022 0.130362
H6    H     H_    0.339462 0.450377 0.770793 0.122671
H7    H     H_    0.660607 0.549471 0.770860 0.122624
H8    H     H_    0.339033 0.451953 0.228948 0.130258
H9    H     H_    0.060181 0.646034 0.430529 0.146063
H10   H     H_    0.939815 0.353971 0.430580 0.146049
H11   H     H_    0.938988 0.645835 0.574000 0.146635
H12   H     H_    0.061020 0.354185 0.574082 0.146610
H13   H     H_    0.221310 0.646607 0.431510 0.164663
H14   H     H_    0.778687 0.353390 0.431565 0.164800
H15   H     H_    0.777864 0.646327 0.570995 0.162511
H16   H     H_    0.222145 0.353690 0.571080 0.162614
H17   H     H_    0.598388 0.249047 0.361311 0.165645
H18   H     H_    0.400250 0.750967 0.363174 0.165367
H19   H     H_    0.401639 0.249461 0.638770 0.162936
H20   H     H_    0.599729 0.750520 0.636908 0.162659
N1    N     N_R   0.500000 0.258690 0.500000 -0.225164
N2    N     N_R   0.500000 0.741310 0.500000 -0.225076
O1    O     O_R   0.371460 0.581430 0.500010 -0.578008
O2    O     O_R   0.628540 0.418570 0.499990 -0.577646
O3    O     O_R   0.628540 0.581430 0.499990 -0.589471
O4    O     O_R   0.371460 0.418570 0.500010 -0.589098
O5    O     O_R   0.499990 0.581440 0.319660 -0.572182
O6    O     O_R   0.500010 0.418560 0.680340 -0.571924
O7    O     O_R   0.500010 0.581440 0.680340 -0.571456
O8    O     O_R   0.499990 0.418560 0.319660 -0.572565
Cl1   Cl    Cl    0.628676 0.047906 0.318401 -0.528260
Cl2   Cl    Cl    0.369437 0.952115 0.320962 -0.528764
Cl3   Cl    Cl    0.371330 0.048453 0.682049 -0.528325
Cl4   Cl    Cl    0.630528 0.951520 0.679502 -0.528872

loop_
_geom_bond_atom_site_label_1
_geom_bond_atom_site_label_2
_ccdc_geom_bond_type
Cu1   Cu2   S    
C35   C39   A    
Cu2   O6    S    
Cu1   O3    S    
C7    C11   A    
C15   O8    A    
C32   C36   A    
C28   C29   A    
C37   C40   A    
C11   N1    A    
C38   C39   A    
C12   N2    A    
C8    Cl4   S    
C1    O4    A    
C25   C29   A    
C32   H10   S    
C20   H8    S    
C38   H16   S    
C20   C24   A    
C1    O1    A    
C5    C13   A    
Cu1   O7    S    
C9    N1    A    
C13   C14   S    
C27   C30   A    
Cu2   O4    S    
C16   O7    A    
C6    Cl2   S    
C33   H11   S    
C15   O5    A    
C35   H13   S    
C17   C27   A    
C36   C40   A    
C18   C28   A    
C2    O3    A    
C19   C23   A    
Cu1   O1    S    
C3    C34   A    
C11   H19   S    
C16   C29   S    
C17   C21   A    
C23   H2    S    
C9    H17   S    
C34   C38   A    
C10   H18   S    
C5    C9    A    
C36   H14   S    
C6    C14   A    
C12   H20   S    
C19   H7    S    
C8    C12   A    
Cu2   O8    S    
C16   O6    A    
C3    C31   A    
C4    C32   A    
C34   H12   S    
C21   C23   A    
C31   C35   A    
C3    C4    S    
C15   C30   S    
Cu1   O5    S    
C21   H4    S    
C4    C33   A    
C8    C14   A    
C18   C22   A    
C10   N2    A    
C17   H5    S    
C31   H9    S    
C2    O2    A    
C18   H6    S    
C6    C10   A    
C7    Cl3   S    
C26   C30   A    
C25   C27   A    
C26   C28   A    
C20   C26   A    
C22   C24   A    
C5    Cl1   S    
C19   C25   A    
C33   C37   A    
C1    C39   S    
C2    C40   S    
C7    C13   A    
C22   H3    S    
Cu2   O2    S    
C24   H1    S    
Cu1   N2    S    
Cu2   N1    S    
C37   H15   S    
