data_mof_unit_40638.cif
_audit_creation_date              2013-03-05T15:53:15-0500
_audit_creation_method            fapswitch 2.2
_symmetry_space_group_name_H-M    P1
_symmetry_Int_Tables_number       1
_space_group_crystal_system       triclinic
_cell_length_a                    17.410084
_cell_length_b                    24.453658
_cell_length_c                    15.080234
_cell_angle_alpha                 90.043022
_cell_angle_beta                  125.929835
_cell_angle_gamma                 90.258084
_cell_volume                      5198.62047353

loop_
_atom_site_label
_atom_site_type_symbol
_atom_site_description
_atom_site_fract_x
_atom_site_fract_y
_atom_site_fract_z
_atom_type_partial_charge
C1    C     C_R   0.353488 0.347168 0.910727 0.053045
C2    C     C_R   0.644792 0.346602 0.086902 0.047437
C3    C     C_R   0.853057 0.847283 0.910874 0.048333
C4    C     C_R   0.145107 0.846717 0.086962 0.046476
N1    N     N_R   0.395410 0.396350 0.944340 -0.055139
N2    N     N_R   0.604590 0.396350 0.055660 -0.055609
N3    N     N_R   0.895410 0.896350 0.944340 -0.055861
N4    N     N_R   0.104590 0.896350 0.055660 -0.055812
C5    C     C_R   0.400153 0.628436 0.085376 -0.090400
C6    C     C_R   0.600071 0.624385 0.911287 -0.081468
C7    C     C_R   0.900065 0.128393 0.085372 -0.089870
C8    C     C_R   0.099514 0.124907 0.911053 -0.071775
H1    H     H_    0.427181 0.641996 0.166583 0.077388
H2    H     H_    0.574062 0.629098 0.827175 0.121703
H3    H     H_    0.927051 0.141785 0.166638 0.079050
H4    H     H_    0.073245 0.129650 0.826865 0.118846
N5    N     N_R   0.449930 0.602500 0.055880 -0.048982
N6    N     N_R   0.550070 0.602500 0.944120 -0.054937
N7    N     N_R   0.949930 0.102500 0.055880 -0.049129
N8    N     N_R   0.050070 0.102500 0.944120 -0.055454
C9    C     C_R   0.490499 0.452550 0.258185 -0.146810
C10   C     C_R   0.452800 0.453129 0.699213 -0.157108
C11   C     C_R   0.990755 0.952559 0.258443 -0.147503
C12   C     C_R   0.953176 0.953139 0.699400 -0.160140
H5    H     H_    0.477724 0.410037 0.264094 0.104575
H6    H     H_    0.432147 0.411367 0.671713 0.100565
H7    H     H_    0.978043 0.910054 0.264453 0.104306
H8    H     H_    0.932433 0.911402 0.671784 0.105141
N9    N     N_R   0.525080 0.471030 0.205650 -0.044635
N10   N     N_R   0.474920 0.471030 0.794350 -0.038398
N11   N     N_R   0.025080 0.971030 0.205650 -0.044909
N12   N     N_R   0.974920 0.971030 0.794350 -0.038399
C13   C     C_R   0.248520 0.544777 0.695182 -0.142199
C14   C     C_R   0.769080 0.544378 0.280988 -0.109170
C15   C     C_R   0.748558 0.044778 0.695149 -0.141756
C16   C     C_R   0.269151 0.044419 0.280468 -0.107902
H9    H     H_    0.240333 0.586225 0.665901 0.096010
H10   H     H_    0.792018 0.585236 0.313281 0.098831
H11   H     H_    0.740358 0.086235 0.665907 0.096498
H12   H     H_    0.292156 0.085303 0.312523 0.097631
N13   N     N_R   0.320260 0.527820 0.794570 -0.040155
N14   N     N_R   0.679740 0.527820 0.205430 -0.044387
N15   N     N_R   0.820260 0.027820 0.794570 -0.040068
N16   N     N_R   0.179740 0.027820 0.205430 -0.044089
C17   C     C_R   0.499207 0.544128 0.268965 -0.038149
C18   C     C_R   0.453470 0.544316 0.698276 -0.021670
C19   C     C_R   0.999536 0.044143 0.269239 -0.036816
C20   C     C_R   0.954164 0.044356 0.698639 -0.034738
H13   H     H_    0.503315 0.585442 0.296033 0.075833
H14   H     H_    0.436148 0.586042 0.670006 0.066877
H15   H     H_    0.003813 0.085459 0.296396 0.079956
H16   H     H_    0.936930 0.086084 0.670378 0.070444
N17   N     N_R   0.524590 0.527840 0.205200 -0.045980
N18   N     N_R   0.475410 0.527840 0.794800 -0.038774
N19   N     N_R   0.024590 0.027840 0.205200 -0.046649
N20   N     N_R   0.975410 0.027840 0.794800 -0.037892
C21   C     C_R   0.248769 0.454192 0.695033 -0.111167
C22   C     C_R   0.768207 0.453257 0.269970 -0.133305
C23   C     C_R   0.748973 0.954203 0.694912 -0.113136
C24   C     C_R   0.268267 0.953280 0.269563 -0.133124
H17   H     H_    0.242000 0.413605 0.663718 0.072343
H18   H     H_    0.790435 0.411382 0.286505 0.088030
H19   H     H_    0.742616 0.913683 0.663498 0.074927
H20   H     H_    0.290520 0.911403 0.285978 0.087804
N21   N     N_R   0.320750 0.471000 0.795020 -0.045044
N22   N     N_R   0.679250 0.471000 0.204980 -0.048492
N23   N     N_R   0.820750 0.971000 0.795020 -0.045119
N24   N     N_R   0.179250 0.971000 0.204980 -0.048504
C25   C     C_R   0.309523 0.623209 0.902563 -0.130000
C26   C     C_R   0.687976 0.626795 0.094071 -0.127171
C27   C     C_R   0.809522 0.123309 0.902600 -0.130050
C28   C     C_R   0.187667 0.127266 0.093852 -0.129745
H21   H     H_    0.252294 0.626342 0.816632 0.108249
H22   H     H_    0.741422 0.636124 0.178240 0.092353
H23   H     H_    0.752282 0.126358 0.816670 0.107594
H24   H     H_    0.241172 0.136686 0.177986 0.092326
N25   N     N_R   0.393620 0.602490 0.942710 -0.051259
N26   N     N_R   0.606380 0.602490 0.057290 -0.047561
N27   N     N_R   0.893620 0.102490 0.942710 -0.051221
N28   N     N_R   0.106380 0.102490 0.057290 -0.047518
C29   C     C_R   0.445813 0.347475 0.091308 -0.160048
C30   C     C_R   0.553976 0.348702 0.905721 -0.149404
C31   C     C_R   0.945470 0.847653 0.091497 -0.157914
C32   C     C_R   0.054381 0.848864 0.905683 -0.147752
H25   H     H_    0.493937 0.334776 0.175383 0.140349
H26   H     H_    0.507224 0.336736 0.820629 0.138332
H27   H     H_    0.993465 0.834950 0.175600 0.139849
H28   H     H_    0.007978 0.836905 0.820516 0.137494
N29   N     N_R   0.451720 0.396350 0.057510 -0.049957
N30   N     N_R   0.548280 0.396350 0.942490 -0.050445
N31   N     N_R   0.951720 0.896350 0.057510 -0.050340
N32   N     N_R   0.048280 0.896350 0.942490 -0.051167
C33   C     C_R   0.385765 0.314501 0.000857 0.059088
C34   C     C_R   0.612718 0.315545 0.994274 0.062061
C35   C     C_R   0.884982 0.814804 0.001148 0.063995
C36   C     C_R   0.113399 0.815838 0.994306 0.065684
C37   C     C_R   0.310588 0.639444 0.989969 0.121279
C38   C     C_R   0.688675 0.638765 0.005094 0.085992
C39   C     C_R   0.810420 0.139468 0.990009 0.118131
C40   C     C_R   0.188089 0.139446 0.004658 0.091199
C41   C     C_R   0.472126 0.497774 0.297721 0.096054
C42   C     C_R   0.439142 0.498113 0.636915 0.076630
C43   C     C_R   0.972575 0.997795 0.298117 0.098633
C44   C     C_R   0.939929 0.998150 0.637344 0.075916
C45   C     C_R   0.203966 0.499514 0.630985 0.125359
C46   C     C_R   0.825758 0.498721 0.315576 0.145003
C47   C     C_R   0.704109 0.999517 0.630880 0.125144
C48   C     C_R   0.325843 0.998771 0.314873 0.144347
Ni1   Ni    Ni4+2 0.435420 0.434270 0.870230 0.216217
Ni2   Ni    Ni4+2 0.564580 0.434270 0.129770 0.221176
Ni3   Ni    Ni4+2 0.935420 0.934270 0.870230 0.219222
Ni4   Ni    Ni4+2 0.064580 0.934270 0.129770 0.221300
Ni5   Ni    Ni4+2 0.563430 0.564580 0.128740 0.232798
Ni6   Ni    Ni4+2 0.436570 0.564580 0.871260 0.219139
Ni7   Ni    Ni4+2 0.063430 0.064580 0.128740 0.234433
Ni8   Ni    Ni4+2 0.936570 0.064580 0.871260 0.219944
C49   C     C_2   0.977562 0.459820 0.378548 -0.089577
C50   C     C_2   0.079693 0.455841 0.461427 -0.104924
C51   C     C_2   0.477745 0.959815 0.378151 -0.089874
C52   C     C_2   0.579857 0.955838 0.461278 -0.105512
C53   C     C_2   0.927926 0.498901 0.386517 -0.176587
C54   C     C_2   0.130201 0.500819 0.514024 -0.161998
C55   C     C_2   0.428034 0.999005 0.385708 -0.176595
C56   C     C_2   0.630406 0.000813 0.513879 -0.160347
H29   H     H_    0.941893 0.426564 0.319874 0.124887
H30   H     H_    0.106939 0.415292 0.493122 0.114129
H31   H     H_    0.442116 0.926453 0.319741 0.124410
H32   H     H_    0.607030 0.915295 0.493114 0.114536
H33   H     H_    0.962070 0.531677 0.446544 0.142154
H34   H     H_    0.103884 0.540864 0.477360 0.154221
H35   H     H_    0.462132 0.031887 0.445491 0.141022
H36   H     H_    0.604194 0.040856 0.477156 0.154384
C57   C     C_R   0.221423 0.676494 0.057646 -0.055211
C58   C     C_R   0.771261 0.675311 0.925778 -0.024538
C59   C     C_R   0.721365 0.176265 0.058458 -0.055689
C60   C     C_R   0.270925 0.175233 0.924735 -0.025483
C61   C     C_R   0.236701 0.672331 0.977664 0.086319
C62   C     C_R   0.766134 0.667374 0.013618 0.064477
C63   C     C_R   0.735874 0.171876 0.977811 0.087367
C64   C     C_R   0.265846 0.167584 0.012764 0.066099
C65   C     C_R   0.186146 0.707660 0.887833 -0.175266
C66   C     C_R   0.831681 0.696609 0.110245 -0.150691
C67   C     C_R   0.683523 0.206523 0.887069 -0.177506
C68   C     C_R   0.332532 0.196233 0.109645 -0.154824
H37   H     H_    0.192524 0.706147 0.820723 0.116605
H38   H     H_    0.839177 0.690412 0.185717 0.112852
H39   H     H_    0.688800 0.204714 0.819165 0.116041
H40   H     H_    0.340267 0.189986 0.185255 0.113072
C69   C     C_R   0.633670 0.249728 0.889308 -0.062653
C70   C     C_R   0.379362 0.241160 0.106424 -0.021936
C71   C     C_R   0.136812 0.751041 0.890274 -0.074261
C72   C     C_R   0.877584 0.741952 0.106800 -0.028788
H41   H     H_    0.603913 0.278311 0.822279 0.113163
H42   H     H_    0.417208 0.266363 0.179208 0.116007
H43   H     H_    0.108353 0.780113 0.824179 0.112904
H44   H     H_    0.914640 0.767450 0.179207 0.114337
C73   C     C_R   0.636251 0.260184 0.983242 0.113076
C74   C     C_R   0.364727 0.257186 0.007736 0.099965
C75   C     C_R   0.137874 0.760851 0.983350 0.114918
C76   C     C_R   0.863449 0.757753 0.008317 0.099083
C77   C     C_R   0.673615 0.218922 0.063074 -0.006482
C78   C     C_R   0.320141 0.218368 0.921773 0.009494
C79   C     C_R   0.174129 0.719291 0.062394 -0.008817
C80   C     C_R   0.819698 0.718802 0.922848 0.028185
C81   C     C_3   0.706451 0.201259 0.176565 0.243996
C82   C     C_3   0.271806 0.210145 0.800486 0.218164
C83   C     C_3   0.204926 0.701072 0.174773 0.241522
C84   C     C_3   0.772618 0.710266 0.802189 0.189347
C85   C     C_3   0.252471 0.651054 0.162315 0.321297
C86   C     C_3   0.717701 0.661877 0.807370 0.294101
C87   C     C_3   0.753611 0.151161 0.163777 0.319609
C88   C     C_3   0.215295 0.162736 0.805840 0.304762
H45   H     H_    0.761709 0.228960 0.241522 -0.023963
H46   H     H_    0.222007 0.243014 0.748156 -0.008688
H47   H     H_    0.259776 0.728452 0.240957 -0.025099
H48   H     H_    0.721661 0.742657 0.749520 -0.013327
H49   H     H_    0.330599 0.651198 0.222894 -0.060613
H50   H     H_    0.640985 0.671189 0.760336 -0.036934
H51   H     H_    0.831802 0.151362 0.223689 -0.057841
H52   H     H_    0.139290 0.173499 0.760871 -0.041956
C89   C     C_R   0.406197 0.447071 0.476251 0.171221
C90   C     C_R   0.416783 0.447219 0.392706 0.160230
C91   C     C_R   0.906614 0.947134 0.476546 0.170604
C92   C     C_R   0.917147 0.947276 0.392979 0.157772
C93   C     C_R   0.407258 0.496455 0.524095 0.001504
C94   C     C_R   0.430061 0.496630 0.356769 0.021977
C95   C     C_R   0.907940 0.996524 0.524541 0.002206
C96   C     C_R   0.930628 0.996684 0.357233 0.021221
C97   C     C_R   0.395521 0.545396 0.468945 -0.114355
C98   C     C_R   0.408999 0.545577 0.386821 -0.043524
C99   C     C_R   0.896319 0.045484 0.469520 -0.108087
C100  C     C_R   0.909781 0.045656 0.387423 -0.034024
H53   H     H_    0.388793 0.584368 0.497548 0.122648
H54   H     H_    0.411837 0.584559 0.355470 0.115381
H55   H     H_    0.889725 0.084466 0.498200 0.124328
H56   H     H_    0.912755 0.084644 0.356194 0.116176
C101  C     C_3   0.476036 0.396669 0.433888 -0.517254
C102  C     C_3   0.465052 0.396561 0.525825 -0.507455
C103  C     C_3   0.976207 0.896648 0.433988 -0.516331
C104  C     C_3   0.965275 0.896545 0.525955 -0.503237
H57   H     H_    0.439804 0.361438 0.376901 0.193075
H58   H     H_    0.533505 0.403898 0.607050 0.206511
H59   H     H_    0.939825 0.861466 0.376906 0.192924
H60   H     H_    0.033773 0.903787 0.607184 0.206416
H61   H     H_    0.550506 0.404063 0.462857 0.207518
H62   H     H_    0.422934 0.361125 0.521980 0.194376
H63   H     H_    0.050697 0.903948 0.462947 0.208199
H64   H     H_    0.923028 0.861161 0.522025 0.198018
N33   N     N_3   0.303976 0.328786 0.800873 -0.203363
H65   H     H_    0.235708 0.344952 0.757921 0.083414
H66   H     H_    0.338328 0.344687 0.768426 0.123235
N34   N     N_3   0.685877 0.324541 0.193095 -0.187335
H67   H     H_    0.759281 0.324299 0.233681 0.069369
H68   H     H_    0.670295 0.350045 0.236156 0.116097
N35   N     N_3   0.801417 0.829088 0.800626 -0.198989
H69   H     H_    0.734256 0.846694 0.758499 0.082893
H70   H     H_    0.836236 0.843208 0.767475 0.135437
N36   N     N_3   0.185952 0.824508 0.193016 -0.187605
H71   H     H_    0.259369 0.824098 0.233713 0.068327
H72   H     H_    0.170461 0.849997 0.236181 0.115859
S1    S     S_3+6 0.614112 0.188630 0.193674 0.036236
O1    O     O_2   0.525933 0.167213 0.089967 -0.149860
O2    O     O_2   0.646623 0.148359 0.284274 -0.254001
O3    O     O_3   0.588956 0.247295 0.228815 -0.581372
H73   H     H_    0.641629 0.253003 0.307046 0.333128
S2    S     S_3+6 0.354471 0.193981 0.768775 0.053781
O4    O     O_2   0.439248 0.164407 0.862038 -0.131715
O5    O     O_2   0.307410 0.159111 0.667406 -0.233316
O6    O     O_3   0.393035 0.251634 0.746160 -0.571312
H74   H     H_    0.342184 0.261861 0.669647 0.330069
S3    S     S_3+6 0.110143 0.688548 0.187622 0.037024
O7    O     O_2   0.022464 0.669035 0.081174 -0.152103
O8    O     O_2   0.138864 0.646908 0.274977 -0.248640
O9    O     O_3   0.086108 0.746894 0.224909 -0.580465
H75   H     H_    0.138726 0.751776 0.303420 0.332176
S4    S     S_3+6 0.856429 0.696293 0.771459 0.060042
O10   O     O_2   0.907401 0.748025 0.781097 -0.344502
O11   O     O_2   0.929084 0.655305 0.849180 -0.109532
O12   O     O_3   0.799224 0.672741 0.642540 -0.453719
H76   H     H_    0.746060 0.698530 0.597382 0.318471
S5    S     S_3+6 0.198992 0.583959 0.132927 0.037196
O13   O     O_2   0.203379 0.562055 0.228766 -0.252049
O14   O     O_2   0.097487 0.585185 0.033788 -0.152519
O15   O     O_3   0.259788 0.542041 0.106761 -0.562864
H77   H     H_    0.234759 0.504941 0.102580 0.367227
S6    S     S_3+6 0.739114 0.592557 0.787075 0.038643
O16   O     O_2   0.718866 0.586391 0.676066 -0.246495
O17   O     O_2   0.839427 0.575891 0.874394 -0.163783
O18   O     O_3   0.665768 0.550904 0.793912 -0.564254
H78   H     H_    0.673148 0.514507 0.770964 0.367719
S7    S     S_3+6 0.700059 0.084095 0.135182 0.036054
O19   O     O_2   0.704173 0.062607 0.231097 -0.251163
O20   O     O_2   0.598608 0.085220 0.035878 -0.155165
O21   O     O_3   0.760868 0.041842 0.109599 -0.564123
H79   H     H_    0.735391 0.004851 0.105176 0.367015
S8    S     S_3+6 0.231557 0.092989 0.781605 0.039576
O22   O     O_2   0.186378 0.084834 0.661650 -0.270190
O23   O     O_2   0.334762 0.078310 0.847260 -0.152713
O24   O     O_3   0.178086 0.051134 0.818509 -0.557082
H80   H     H_    0.176476 0.014849 0.788191 0.367516

loop_
_geom_bond_atom_site_label_1
_geom_bond_atom_site_label_2
_geom_bond_distance
_ccdc_geom_bond_type
C22   H18   1.072955 S    
C31   H27   1.078176 S    
C72   C76   1.410062 A    
C57   C61   1.382929 A    
C30   C34   1.375835 A    
N12   Ni3   1.873468 S    
C73   C77   1.406856 A    
C102  H62   1.111871 S    
C59   C77   1.363695 A    
C66   H38   1.077719 S    
C25   N25   1.316734 A    
O12   H76   0.992128 S    
C14   N14   1.339873 A    
C20   N20   1.332497 A    
N13   Ni6   1.865388 S    
C4    N4    1.345840 A    
C87   H51   1.107242 S    
O3    H73   0.990543 S    
N6    Ni6   1.845469 S    
C27   N27   1.317811 A    
N5    Ni5   1.855217 S    
S7    O19   1.501097 D    
C83   C85   1.551718 S    
C60   C78   1.373199 A    
C89   C90   1.376141 A    
S4    O10   1.499065 D    
C67   H39   1.081388 S    
C18   C42   1.385640 A    
C32   N32   1.317987 A    
C7    N7    1.345392 A    
O18   H78   0.990564 S    
O6    H74   0.990584 S    
N1    Ni1   1.871752 S    
C8    N8    1.337846 A    
C86   H50   1.109074 S    
C1    N1    1.339062 A    
S4    O11   1.500550 D    
C76   C80   1.410005 A    
C83   H47   1.109515 S    
C25   H21   1.078617 S    
S1    O3    1.675567 S    
C3    N3    1.338834 A    
N35   H70   1.044344 S    
C90   C94   1.397340 A    
N34   H68   1.044928 S    
S7    O20   1.503124 D    
C26   N26   1.321430 A    
C81   H45   1.109549 S    
C20   C44   1.385500 A    
S8    O24   1.680536 S    
C87   S7    1.805037 S    
C28   N28   1.322847 A    
C29   C33   1.385971 A    
O15   H77   0.990457 S    
C56   H36   1.087206 S    
C68   H40   1.077863 S    
C7    C39   1.395573 A    
S5    O13   1.501164 D    
C50   C54   1.335496 D    
C66   C72   1.382626 A    
C21   H17   1.074640 S    
C6    C38   1.392049 A    
C69   H41   1.080939 S    
C51   C55   1.342938 D    
C5    H1    1.073677 S    
C83   S3    1.795896 S    
C40   C64   1.455458 S    
C23   N23   1.337844 A    
C4    C36   1.384448 A    
C7    H3    1.073381 S    
C22   N22   1.331444 A    
C11   C43   1.380667 A    
C72   H44   1.079765 S    
N16   Ni7   1.874991 S    
N3    Ni3   1.871752 S    
S8    O23   1.502075 D    
C102  H58   1.112391 S    
C68   C70   1.382959 A    
N11   Ni4   1.875613 S    
C101  H57   1.111953 S    
N4    N32   1.382081 A    
C59   C87   1.474001 S    
C15   N15   1.336887 A    
C70   H42   1.079481 S    
C95   C99   1.403364 A    
C98   H54   1.078127 S    
C24   C48   1.376268 A    
C16   N16   1.339695 A    
C60   C64   1.393930 A    
C84   S4    1.805126 S    
C29   N29   1.326685 A    
N15   N23   1.389519 A    
C88   H52   1.109243 S    
C84   C86   1.548556 S    
N3    N31   1.382082 A    
C103  C104  1.506483 S    
C104  H64   1.111856 S    
C65   C71   1.381916 A    
C78   C82   1.511800 S    
C82   C88   1.549726 S    
C103  H59   1.111962 S    
C82   S2    1.807976 S    
N2    Ni2   1.874029 S    
C39   C63   1.440699 S    
C2    N2    1.346603 A    
C90   C101  1.496222 S    
C63   C67   1.402161 A    
C47   C56   1.450541 S    
C89   C102  1.499409 S    
C57   C79   1.362055 A    
N24   Ni4   1.844921 S    
N17   Ni5   1.872177 S    
C18   H14   1.079970 S    
N9    N17   1.389272 A    
C3    N35   1.418266 S    
C99   H55   1.080554 S    
C11   H7    1.076644 S    
C16   C48   1.378127 A    
C2    C34   1.385251 A    
S6    O17   1.502812 D    
C82   H46   1.106679 S    
C42   C93   1.447661 S    
C19   C43   1.389381 A    
C21   C45   1.376538 A    
N8    N28   1.382083 A    
N10   Ni1   1.873468 S    
C81   S1    1.796889 S    
C99   C100  1.388607 A    
C14   C46   1.378070 A    
C8    H4    1.074108 S    
N9    Ni2   1.875613 S    
C16   H12   1.077996 S    
C103  H63   1.112475 S    
C13   C45   1.368710 A    
C101  H61   1.112471 S    
C6    H2    1.074177 S    
C85   S5    1.804485 S    
N8    Ni8   1.845469 S    
C89   C93   1.400759 A    
S7    O21   1.681023 S    
C19   H15   1.075600 S    
N2    N30   1.382081 A    
C1    N33   1.417386 S    
N29   Ni2   1.837765 S    
C23   C47   1.376461 A    
C92   C96   1.397244 A    
C4    N36   1.424262 S    
C52   C56   1.335664 D    
S5    O14   1.502972 D    
C29   H25   1.078046 S    
C11   N11   1.323408 A    
N31   Ni4   1.837765 S    
C94   C98   1.403801 A    
C15   H11   1.081988 S    
N35   H69   1.043703 S    
C12   N12   1.321506 A    
C91   C92   1.375859 A    
C26   H22   1.067941 S    
O21   H79   0.990453 S    
C26   C38   1.380562 A    
N15   Ni8   1.865388 S    
S1    O1    1.500262 D    
N10   N18   1.389185 A    
N14   Ni5   1.874991 S    
N36   H72   1.044932 S    
C17   H13   1.075574 S    
C100  H56   1.078088 S    
N28   Ni7   1.876252 S    
N7    Ni7   1.855217 S    
C79   C83   1.514875 S    
C104  H60   1.112395 S    
C92   C103  1.496270 S    
C31   C35   1.384726 A    
S8    O22   1.502993 D    
C18   N18   1.332953 A    
N5    N25   1.382081 A    
N33   H65   1.043841 S    
N20   Ni8   1.874267 S    
C28   H24   1.068247 S    
S3    O8    1.501915 D    
N22   Ni2   1.844921 S    
N7    N27   1.382081 A    
N21   Ni1   1.854482 S    
C17   C41   1.389639 A    
C81   C87   1.551347 S    
N11   N19   1.389272 A    
C91   C95   1.400675 A    
C80   C84   1.507923 S    
C5    N5    1.344634 A    
N6    N26   1.382083 A    
C38   C62   1.453447 S    
C34   C73   1.453601 S    
C71   H43   1.081224 S    
C61   C65   1.401943 A    
C85   H49   1.107428 S    
C10   H6    1.079447 S    
C75   C79   1.405972 A    
N16   N24   1.389432 A    
N26   Ni5   1.876252 S    
O9    H75   0.990532 S    
C48   C55   1.440835 S    
C33   C74   1.466095 S    
O24   H80   0.990579 S    
C45   C54   1.450313 S    
C32   C36   1.375361 A    
C25   C37   1.365941 A    
C57   C85   1.474382 S    
C12   H8    1.079389 S    
C19   N19   1.333101 A    
C28   C40   1.382084 A    
N23   Ni3   1.854482 S    
C97   C98   1.389197 A    
C84   H48   1.107091 S    
C44   C95   1.446838 S    
C9    H5    1.076779 S    
S6    O16   1.502004 D    
C88   S8    1.802071 S    
C5    C37   1.394781 A    
C10   N10   1.321887 A    
C55   H35   1.085472 S    
C14   H10   1.078107 S    
C23   H19   1.074818 S    
C43   C96   1.446632 S    
C64   C68   1.404882 A    
C53   H33   1.085497 S    
C30   N30   1.318909 A    
C9    N9    1.323711 A    
C58   C62   1.392590 A    
N13   N21   1.389519 A    
C51   C52   1.458674 S    
C52   H32   1.084248 S    
N32   Ni3   1.847497 S    
C93   C97   1.403556 A    
C49   C53   1.343010 D    
S2    O6    1.677995 S    
C31   N31   1.325823 A    
C59   C63   1.383845 A    
S2    O5    1.502357 D    
C91   C104  1.499435 S    
C10   C42   1.375113 A    
S4    O12   1.680488 S    
C96   C100  1.403633 A    
N25   Ni6   1.878781 S    
C24   H20   1.073055 S    
S5    O15   1.681098 S    
C13   N13   1.336778 A    
N4    Ni4   1.874029 S    
C9    C41   1.380877 A    
S1    O2    1.502110 D    
C30   H26   1.079935 S    
C49   C50   1.458365 S    
C27   H23   1.078489 S    
C2    N34   1.423948 S    
N36   H71   1.044063 S    
C32   H28   1.080434 S    
N19   Ni7   1.872177 S    
C6    N6    1.338437 A    
N27   Ni8   1.878781 S    
N18   Ni6   1.874267 S    
C46   C53   1.440546 S    
C62   C66   1.405803 A    
C65   H37   1.081556 S    
N33   H66   1.043988 S    
C58   C80   1.371095 A    
C13   H9    1.081989 S    
S3    O9    1.675488 S    
C27   C39   1.367074 A    
C101  C102  1.506629 S    
N1    N29   1.382082 A    
C37   C61   1.437153 S    
C8    C40   1.391645 A    
C15   C47   1.368803 A    
C74   C78   1.412318 A    
C17   N17   1.333545 A    
C97   H53   1.080595 S    
C67   C69   1.383207 A    
C36   C75   1.450655 S    
C60   C88   1.484815 S    
N34   H67   1.044017 S    
C24   N24   1.331702 A    
C1    C33   1.382247 A    
S2    O4    1.501488 D    
C58   C86   1.485985 S    
C22   C46   1.375862 A    
S3    O7    1.500409 D    
N14   N22   1.389432 A    
N12   N20   1.389185 A    
C86   S6    1.801347 S    
C3    C35   1.382254 A    
C50   H30   1.084224 S    
N30   Ni1   1.847497 S    
C12   C44   1.375123 A    
C20   H16   1.079900 S    
C49   H29   1.086005 S    
C69   C73   1.413739 A    
C54   H34   1.087242 S    
C70   C74   1.410717 A    
C77   C81   1.515784 S    
C35   C76   1.463429 S    
C41   C94   1.447486 S    
C71   C75   1.413152 A    
C21   N21   1.337828 A    
S6    O18   1.679791 S    
C51   H31   1.085994 S    
