data_mof_unit_63458.cif
_audit_creation_date              2012-12-10T16:59:27-0500
_audit_creation_method            fapswitch 2.2
_symmetry_space_group_name_H-M    P1
_symmetry_Int_Tables_number       1
_space_group_crystal_system       triclinic
_cell_length_a                    19.369945
_cell_length_b                    10.961378
_cell_length_c                    9.690799
_cell_angle_alpha                 89.894213
_cell_angle_beta                  90.148414
_cell_angle_gamma                 90.164192
_cell_volume                      2057.54410469

loop_
_atom_site_label
_atom_site_type_symbol
_atom_type_description
_atom_site_fract_x
_atom_site_fract_y
_atom_site_fract_z
_atom_type_partial_charge
C1    C     C_R   0.502441 0.265456 0.499944 0.768263
C2    C     C_R   0.291524 0.496213 0.498387 -0.312591
C3    C     C_R   0.929382 0.496322 0.494452 0.460581
C4    C     C_R   0.069548 0.495999 0.492968 0.501394
C5    C     C_R   0.817016 0.552582 0.600944 -0.199208
C6    C     C_R   0.745158 0.551008 0.602602 -0.173760
C7    C     C_R   0.708039 0.488918 0.499971 -0.223839
C8    C     C_R   0.744246 0.423640 0.396831 0.336476
C9    C     C_R   0.816268 0.428920 0.393655 0.665404
C10   C     C_R   0.853278 0.493084 0.495720 -0.162324
C11   C     C_2   0.516258 0.933008 0.397882 0.519371
C12   C     C_R   0.367497 0.499116 0.499800 0.895617
C13   C     C_2   0.487033 0.865783 0.498300 0.177497
C14   C     C_2   0.504431 0.064968 0.388301 0.241103
C15   C     C_2   0.513388 0.134583 0.501420 0.443033
C16   C     C_2   0.459517 0.430374 0.922478 0.615894
C17   C     C_2   0.452494 0.447341 0.077353 -0.065025
C18   C     C_R   0.497690 0.734401 0.499791 0.767484
C19   C     C_R   0.632330 0.496302 0.500038 0.798793
C20   C     C_R   0.253850 0.547247 0.607290 0.572981
C21   C     C_R   0.182023 0.546158 0.604062 -0.283354
C22   C     C_R   0.146006 0.493929 0.492756 -0.153411
C23   C     C_R   0.183446 0.440178 0.383515 0.366993
C24   C     C_R   0.256170 0.442114 0.387195 0.449650
Cu1   Cu    Cu3+1 0.500010 0.500020 0.638630 1.164760
Cu2   Cu    Cu3+1 0.499990 0.499980 0.361370 1.078851
H1    H     H_    0.407559 0.408930 0.127953 0.204446
H2    H     H_    0.545778 0.518629 0.107516 0.277450
H3    H     H_    0.154535 0.587929 0.688820 0.225852
H4    H     H_    0.844178 0.602457 0.680836 0.209889
H5    H     H_    0.718457 0.600695 0.682840 0.208988
N1    N     N_R   0.033179 0.471946 0.376335 -0.116397
N2    N     N_R   0.964596 0.471909 0.377052 -0.121630
N3    N     N_R   0.965567 0.522432 0.610906 -0.212894
N4    N     N_R   0.034279 0.522219 0.610159 -0.222313
N5    N     N_2   0.499250 0.498660 0.846910 0.081419
N6    N     N_2   0.499230 0.498630 0.153040 -0.254675
O1    O     O_R   0.500010 0.321960 0.617040 -0.520487
O2    O     O_R   0.499990 0.321920 0.382900 -0.563620
O3    O     O_R   0.400160 0.500010 0.617110 -0.515466
O4    O     O_R   0.400130 0.499970 0.382960 -0.547370
O5    O     O_R   0.500010 0.678080 0.617100 -0.525846
O6    O     O_R   0.499990 0.678040 0.382960 -0.528425
O7    O     O_R   0.599870 0.500030 0.617040 -0.555170
O8    O     O_R   0.599840 0.499990 0.382890 -0.567351
F1    F     F_    0.286346 0.601242 0.715551 -0.611177
O9    O     O_3   0.442777 0.919437 0.592356 -0.682172
H6    H     H_    0.422670 0.855037 0.652056 0.368666
O10   O     O_3   0.485374 0.116453 0.263465 -0.703418
H7    H     H_    0.480056 0.050243 0.194604 0.377948
F2    F     F_    0.537796 0.085144 0.621102 -0.611202
O11   O     O_3   0.421438 0.340668 0.857450 -0.685011
H8    H     H_    0.394609 0.295705 0.928216 0.324411
F3    F     F_    0.520910 0.603751 0.902314 -0.551968
O12   O     O_3   0.148194 0.384594 0.276302 -0.659189
H9    H     H_    0.181270 0.352252 0.207867 0.389457
F4    F     F_    0.292382 0.388142 0.284133 -0.655950
O13   O     O_3   0.711749 0.351457 0.299653 -0.630612
H10   H     H_    0.667941 0.320447 0.338903 0.329092
F5    F     F_    0.849791 0.365723 0.293826 -0.579860
F6    F     F_    0.556146 0.880420 0.298978 -0.626047

loop_
_geom_bond_atom_site_label_1
_geom_bond_atom_site_label_2
_ccdc_geom_bond_type
Cu1   O5    S    
C12   O3    A    
C23   C24   A    
C19   O8    A    
Cu2   N6    S    
C23   O12   S    
C6    C7    A    
C1    C15   S    
C15   F2    S    
Cu1   O1    S    
C4    C22   S    
C9    C10   A    
O9    H6    S    
Cu2   O8    S    
O12   H9    S    
C9    F5    S    
C2    C12   S    
N1    N2    A    
C6    H5    S    
O13   H10   S    
C4    N4    A    
C7    C8    A    
C3    C10   S    
C17   N6    D    
C21   C22   A    
C20   C21   A    
C11   C13   D    
C4    N1    A    
C13   C18   S    
C1    O1    A    
Cu1   O7    S    
Cu2   O6    S    
N3    N4    A    
C7    C19   S    
C18   O5    A    
Cu1   O3    S    
C2    C24   A    
C5    C6    A    
C11   C14   S    
C20   F1    S    
Cu2   O2    S    
C14   O10   S    
N5    F3    S    
C1    O2    A    
Cu1   N5    S    
C2    C20   A    
C17   H1    S    
C16   C17   S    
C5    C10   A    
C19   O7    A    
C12   O4    A    
O10   H7    S    
C5    H4    S    
C13   O9    S    
C3    N2    A    
C14   C15   D    
C8    C9    A    
C3    N3    A    
C8    O13   S    
Cu1   Cu2   S    
C18   O6    A    
C21   H3    S    
H2    N6    S    
C22   C23   A    
C16   N5    D    
C16   O11   S    
Cu2   O4    S    
O11   H8    S    
C24   F4    S    
C11   F6    S    
