data_mof_unit_47857.cif
_audit_creation_date              2012-12-10T20:43:21-0500
_audit_creation_method            fapswitch 2.2
_symmetry_space_group_name_H-M    P1
_symmetry_Int_Tables_number       1
_space_group_crystal_system       triclinic
_cell_length_a                    15.820385
_cell_length_b                    10.678178
_cell_length_c                    9.867115
_cell_angle_alpha                 90.27391
_cell_angle_beta                  90.053544
_cell_angle_gamma                 89.941466
_cell_volume                      1666.85958599

loop_
_atom_site_label
_atom_site_type_symbol
_atom_type_description
_atom_site_fract_x
_atom_site_fract_y
_atom_site_fract_z
_atom_type_partial_charge
C1    C     C_R   0.505016 0.260309 0.499599 0.931780
C2    C     C_R   0.554422 0.931333 0.398402 -0.312867
C3    C     C_R   0.510650 0.871232 0.502576 -0.122607
C4    C     C_R   0.339358 0.499474 0.499949 0.908474
C5    C     C_R   0.483085 0.938036 0.614882 0.086640
C6    C     C_3   0.399514 0.936117 0.685837 0.302908
C7    C     C_3   0.403776 0.078359 0.686354 -0.516853
C8    C     C_R   0.425735 0.500958 0.071163 0.230677
C9    C     C_R   0.573174 0.484870 0.071889 -0.007556
C10   C     C_R   0.573171 0.484809 0.928115 -0.093709
C11   C     C_R   0.425724 0.500832 0.928658 0.225748
C12   C     C_R   0.045014 0.487446 0.626337 -0.269211
C13   C     C_3   0.360091 0.600866 0.923488 -0.523335
C14   C     C_3   0.360076 0.601014 0.077364 -0.508420
C15   C     C_R   0.500882 0.739838 0.500331 0.938106
C16   C     C_R   0.660652 0.500401 0.500120 0.921244
C17   C     C_R   0.957097 0.489667 0.629095 0.476533
C18   C     C_R   0.913095 0.496555 0.505292 -0.003763
C19   C     C_R   0.955847 0.501544 0.381679 -0.215947
C20   C     C_R   0.043307 0.500034 0.380215 -0.158808
C21   C     C_R   0.087170 0.493002 0.502406 0.085120
C22   C     C_3   0.260765 0.870696 0.675549 0.076108
C23   C     C_1   0.824029 0.498398 0.502395 0.071474
C24   C     C_3   0.187924 0.842819 0.578328 -0.334256
C25   C     C_3   0.106818 0.812394 0.654943 -0.878082
C26   C     C_1   0.176032 0.494212 0.500902 -0.043388
C27   C     C_1   0.250934 0.496503 0.500097 -0.194446
C28   C     C_1   0.749108 0.499584 0.500631 -0.075456
C29   C     C_R   0.486465 0.065280 0.614367 0.041611
C30   C     C_R   0.516866 0.128436 0.501408 -0.206608
C31   C     C_R   0.559208 0.061398 0.397177 0.377020
H1    H     H_    0.080788 0.482540 0.719858 0.195535
H2    H     H_    0.076646 0.504707 0.284444 0.163118
H3    H     H_    0.582336 0.877247 0.316722 0.204540
H4    H     H_    0.404039 0.892148 0.787774 0.061993
H5    H     H_    0.354519 0.124356 0.623189 0.210587
H6    H     H_    0.938504 0.477429 0.998619 0.384371
H7    H     H_    0.514611 0.115398 0.118358 0.337701
H8    H     H_    0.244136 0.955384 0.736586 0.145769
H9    H     H_    0.269462 0.789330 0.744216 0.142867
H10   H     H_    0.176818 0.925462 0.512591 0.232551
H11   H     H_    0.204991 0.762176 0.512365 0.232613
H12   H     H_    0.411538 0.118667 0.789675 0.182265
H13   H     H_    0.116679 0.730345 0.721862 0.265306
H14   H     H_    0.055744 0.789783 0.581577 0.275711
H15   H     H_    0.086769 0.893979 0.717346 0.273781
H16   H     H_    0.632435 0.475878 0.125581 0.185550
H17   H     H_    0.632450 0.475935 0.874514 0.196098
H18   H     H_    0.384681 0.688982 0.879291 0.203791
H19   H     H_    0.299799 0.566676 0.878786 0.211487
H20   H     H_    0.384287 0.689588 0.122654 0.217353
H21   H     H_    0.299807 0.566570 0.121368 0.213806
H22   H     H_    0.921520 0.506936 0.286725 0.175642
N1    N     N_R   0.499440 0.499140 0.142800 -0.115059
N2    N     N_R   0.499440 0.499180 0.857150 -0.124870
O1    O     O_R   0.500010 0.316790 0.614690 -0.613373
O2    O     O_2   0.848397 0.370608 0.790439 -0.277413
O3    O     O_3   0.973571 0.478917 0.915486 -0.572831
O4    O     O_2   0.668172 0.239532 0.318930 -0.272958
O5    O     O_2   0.674117 0.040417 0.196384 -0.274780
O6    O     O_3   0.548094 0.189021 0.147674 -0.533105
O7    O     O_3   0.335114 0.889963 0.599713 -0.625141
O8    O     O_R   0.500000 0.316760 0.385350 -0.550295
O9    O     O_R   0.378030 0.499990 0.614640 -0.618198
O10   O     O_R   0.378020 0.499950 0.385300 -0.620179
O11   O     O_R   0.500000 0.683240 0.614650 -0.622957
O12   O     O_R   0.499990 0.683210 0.385310 -0.633916
O13   O     O_R   0.621980 0.500050 0.614700 -0.611576
O14   O     O_R   0.621970 0.500010 0.385360 -0.606390
O15   O     O_2   0.849873 0.599798 0.801489 -0.300464
S1    S     S_3+6 0.903914 0.484687 0.786730 0.017992
S2    S     S_3+6 0.616134 0.133314 0.263742 0.048820
Zn1   Zn    Zn3+2 0.500010 0.500020 0.653130 0.977696
Zn2   Zn    Zn3+2 0.499990 0.499980 0.346870 1.008435

loop_
_geom_bond_atom_site_label_1
_geom_bond_atom_site_label_2
_ccdc_geom_bond_type
C12   C17   A    
C16   C28   S    
C16   O14   A    
C21   C26   S    
C24   C25   S    
C9    H16   S    
C6    C7    S    
C16   O13   A    
O8    Zn2   S    
C7    H12   S    
C22   O7    S    
C29   C30   A    
C24   H11   S    
C9    C10   A    
C4    O9    A    
C5    C29   A    
C14   H20   S    
O4    S2    D    
O9    Zn1   S    
H7    O6    S    
C15   O12   A    
C6    O7    S    
C22   C24   S    
C17   C18   A    
O13   Zn1   S    
C3    C15   S    
O14   Zn2   S    
O12   Zn2   S    
C7    C29   S    
C23   C28   T    
O2    S1    D    
C10   N2    A    
C11   C13   S    
C19   H22   S    
C26   C27   T    
C4    O10   A    
C24   H10   S    
C8    C11   A    
C13   H18   S    
C22   H8    S    
C1    O8    A    
O6    S2    S    
C1    C30   S    
C1    O1    A    
C17   S1    S    
C2    C3    A    
O1    Zn1   S    
C10   H17   S    
C30   C31   A    
C13   C14   S    
C14   H21   S    
O3    S1    S    
O15   S1    D    
C12   H1    S    
O5    S2    D    
C19   C20   A    
C13   H19   S    
N2    Zn1   S    
C25   H14   S    
C15   O11   A    
C4    C27   S    
C11   N2    A    
C20   C21   A    
C25   H13   S    
C20   H2    S    
C18   C19   A    
C7    H5    S    
C8    N1    A    
C5    C6    S    
C22   H9    S    
C31   S2    S    
C12   C21   A    
C8    C14   S    
C9    N1    A    
C18   C23   S    
C2    H3    S    
N1    Zn2   S    
O11   Zn1   S    
C25   H15   S    
C6    H4    S    
O10   Zn2   S    
H6    O3    S    
C2    C31   A    
C3    C5    A    
