data_mof_unit_22550.cif
_audit_creation_date              2012-12-11T14:21:16-0500
_audit_creation_method            fapswitch 2.2
_symmetry_space_group_name_H-M    P1
_symmetry_Int_Tables_number       1
_space_group_crystal_system       triclinic
_cell_length_a                    11.436919
_cell_length_b                    11.572899
_cell_length_c                    19.563919
_cell_angle_alpha                 89.766837
_cell_angle_beta                  89.419033
_cell_angle_gamma                 60.406444
_cell_volume                      2251.53800943

loop_
_atom_site_label
_atom_site_type_symbol
_atom_type_description
_atom_site_fract_x
_atom_site_fract_y
_atom_site_fract_z
_atom_type_partial_charge
C1    C     C_R   0.640354 0.116232 0.599481 0.546823
C2    C     C_1   0.653243 0.148000 0.668820 0.004193
C3    C     C_R   0.679669 0.592700 0.204188 -0.003879
C4    C     C_R   0.579011 0.804792 0.605507 0.565436
C5    C     C_R   0.545853 0.648547 0.231918 0.041917
C6    C     C_R   0.512494 0.734533 0.287084 0.025741
C7    C     C_R   0.750552 0.663027 0.302857 -0.134790
C8    C     C_R   0.781132 0.596120 0.241364 -0.160802
C9    C     C_R   0.441626 0.627734 0.204666 -0.091369
C10   C     C_R   0.307739 0.707620 0.222077 -0.140358
C11   C     C_R   0.274059 0.804905 0.270107 -0.136114
C12   C     C_1   0.603396 0.769886 0.676331 -0.001494
C13   C     C_R   0.375034 0.815382 0.303336 -0.100993
C14   C     C_R   0.616981 0.735155 0.325459 0.003562
C15   C     C_R   0.156438 0.187984 0.187952 0.008096
C16   C     C_R   0.240676 0.144630 0.598152 0.553916
C17   C     C_R   0.244385 0.232566 0.208580 0.025819
C18   C     C_R   0.273315 0.229865 0.278583 0.023555
C19   C     C_R   0.149038 0.113082 0.302493 -0.166806
C20   C     C_R   0.108297 0.129677 0.235156 -0.148565
C21   C     C_R   0.293506 0.291674 0.161552 -0.086975
C22   C     C_R   0.335399 0.377990 0.184366 -0.117795
C23   C     C_1   0.127129 0.200591 0.859332 0.004182
C24   C     C_R   0.342664 0.394555 0.254016 -0.144974
C25   C     C_R   0.324753 0.312837 0.300160 -0.106462
C26   C     C_R   0.238967 0.153651 0.323960 -0.005264
C27   C     C_R   0.681246 0.185983 0.197624 0.008352
C28   C     C_R   0.651004 0.112527 0.404136 0.549633
C29   C     C_R   0.745466 0.054393 0.223320 -0.017137
C30   C     C_R   0.776751 0.035478 0.293156 0.052380
C31   C     C_R   0.631206 0.271054 0.313702 -0.167695
C32   C     C_R   0.638295 0.291084 0.244205 -0.153392
C33   C     C_R   0.791918 0.942053 0.180759 -0.098125
C34   C     C_1   0.171703 0.169304 0.727872 -0.032053
C35   C     C_R   0.886076 0.817166 0.204628 -0.162154
C36   C     C_R   0.940063 0.803342 0.269636 -0.144835
C37   C     C_R   0.890894 0.914087 0.314354 0.306768
C38   C     C_R   0.693286 0.142160 0.338375 0.028377
C39   C     C_R   0.081675 0.232076 0.928567 0.545122
C40   C     C_R   0.587563 0.791678 0.393836 0.530873
C41   C     C_R   0.682884 0.607468 0.930122 0.559701
C42   C     C_R   0.708313 0.207376 0.930006 0.545423
C43   C     C_R   0.084993 0.234342 0.124057 0.524798
C44   C     C_R   0.707311 0.549253 0.133418 0.552075
C45   C     C_1   0.150634 0.183092 0.799051 -0.030463
C46   C     C_R   0.707873 0.210500 0.127193 0.523355
C47   C     C_R   0.291725 0.122066 0.393578 0.525439
C48   C     C_1   0.661361 0.667286 0.863874 -0.001174
C49   C     C_1   0.622314 0.742063 0.736088 -0.031362
C50   C     C_1   0.643479 0.705952 0.805648 -0.029828
C51   C     C_3   0.064710 0.796907 0.397279 -0.004390
C52   C     C_3   0.014423 0.720255 0.441089 -0.249035
C53   C     C_3   0.131010 0.589180 0.466153 -0.463601
C54   C     C_1   0.195190 0.159124 0.667476 -0.000736
C55   C     C_1   0.678175 0.192206 0.860715 0.002797
C56   C     C_1   0.658705 0.166057 0.729105 -0.030423
C57   C     C_1   0.665494 0.181004 0.800369 -0.029977
Cr1   Cr    Cr6+3 0.404720 0.198220 0.499960 0.992764
Cr2   Cr    Cr6+3 0.698290 0.897110 0.500380 1.008282
Cr3   Cr    Cr6+3 0.396970 0.904720 0.499610 1.008080
Cr4   Cr    Cr6+3 0.926180 0.151990 0.028120 1.026059
Cr5   Cr    Cr6+3 0.921330 0.451820 0.027470 1.017798
Cr6   Cr    Cr6+3 0.626260 0.446870 0.028710 1.006970
H1    H     H_    0.831706 0.658292 0.332416 0.131423
H2    H     H_    0.459695 0.550163 0.169103 0.141617
H3    H     H_    0.883894 0.548055 0.222435 0.137290
H4    H     H_    0.230543 0.693415 0.198421 0.115182
H5    H     H_    0.169646 0.869378 0.282974 0.134542
H6    H     H_    0.344267 0.887600 0.341627 0.156038
H7    H     H_    0.109368 0.069117 0.338278 0.157160
H8    H     H_    0.290234 0.279660 0.106888 0.131621
H9    H     H_    0.034289 0.101807 0.220711 0.149496
H10   H     H_    0.126898 0.822520 0.430469 0.157637
H11   H     H_    0.134863 0.734075 0.356609 0.108748
H12   H     H_    0.359563 0.432950 0.147651 0.110154
H13   H     H_    0.957410 0.781712 0.485896 0.197827
H14   H     H_    0.946482 0.698727 0.410823 0.170135
H15   H     H_    0.187813 0.525362 0.422027 0.147417
H16   H     H_    0.091440 0.535749 0.497580 0.173427
H17   H     H_    0.199994 0.607758 0.497925 0.146159
H18   H     H_    0.370540 0.464957 0.272846 0.115499
H19   H     H_    0.344543 0.325277 0.352104 0.166227
H20   H     H_    0.578787 0.355134 0.347855 0.125977
H21   H     H_    0.758629 0.951119 0.128402 0.141899
H22   H     H_    0.610373 0.388361 0.226956 0.117295
H23   H     H_    0.923203 0.731807 0.171094 0.135400
H24   H     H_    0.018772 0.705365 0.283453 0.095448
O1    O     O_R   0.267740 0.231960 0.575440 -0.499461
O2    O     O_R   0.596130 0.579390 0.952730 -0.498783
O3    O     O_R   0.639060 0.321160 0.958670 -0.493948
O4    O     O_R   0.527280 0.186640 0.570530 -0.491227
O5    O     O_R   0.821240 0.124200 0.104370 -0.514950
O6    O     O_R   0.036890 0.167040 0.097840 -0.499970
O7    O     O_R   0.056180 0.349610 0.102880 -0.535085
O8    O     O_R   0.797660 0.564870 0.097950 -0.496108
O9    O     O_R   0.595880 0.584250 0.104270 -0.526531
O10   O     O_R   0.638830 0.325670 0.099150 -0.535869
O11   O     O_3   0.824590 0.350230 0.028100 -0.269416
O12   O     O_R   0.685970 0.784660 0.430010 -0.505801
O13   O     O_R   0.728090 0.003450 0.576380 -0.518270
O14   O     O_R   0.682970 0.789190 0.570490 -0.486855
O15   O     O_R   0.499290 0.771880 0.575530 -0.491849
O16   O     O_R   0.285330 0.030870 0.569730 -0.502803
O17   O     O_R   0.270980 0.227080 0.423890 -0.522180
O18   O     O_R   0.530280 0.182120 0.430050 -0.533840
O19   O     O_R   0.731330 0.998570 0.424830 -0.475604
O20   O     O_3   0.956682 0.918576 0.373707 -0.560864
O21   O     O_R   0.502530 0.767000 0.423990 -0.515541
O22   O     O_R   0.288330 0.026350 0.429250 -0.525819
O23   O     O_3   0.499990 0.000020 0.499980 -0.298553
O24   O     O_R   0.821500 0.119340 0.952830 -0.503588
O25   O     O_R   0.037130 0.162530 0.957360 -0.489512
O26   O     O_R   0.056440 0.344740 0.951340 -0.508768
O27   O     O_R   0.797900 0.560360 0.957470 -0.487691

loop_
_geom_bond_atom_site_label_1
_geom_bond_atom_site_label_2
_ccdc_geom_bond_type
C41   O2    A    
C8    H3    S    
C23   C45   T    
C27   C29   A    
Cr2   O12   S    
C19   C20   A    
C18   C26   A    
C51   H11   S    
C41   O27   A    
C24   H18   S    
C43   O7    A    
C40   O12   A    
C12   C49   T    
C7    C8    A    
C10   H4    S    
C11   H5    S    
C21   H8    S    
C36   C37   A    
C53   H16   S    
C37   O20   S    
Cr6   O11   S    
C5    C6    A    
C35   H23   S    
Cr4   O6    S    
C46   O5    A    
C29   C33   A    
Cr2   O23   S    
C31   H20   S    
C56   C57   S    
C30   C38   A    
C1    C2    S    
C19   C26   A    
Cr3   O22   S    
C43   O6    A    
Cr5   O11   S    
C7    C14   A    
Cr4   O11   S    
C28   O19   A    
C39   O26   A    
C4    O15   A    
C4    C12   S    
Cr3   O16   S    
Cr1   O4    S    
Cr3   O21   S    
Cr4   O5    S    
C40   O21   A    
C48   C50   T    
C1    O4    A    
Cr5   O8    S    
Cr2   O13   S    
C18   C25   A    
C22   H12   S    
Cr3   O15   S    
C1    O13   A    
C16   C54   S    
C36   H24   S    
C15   C20   A    
C3    C44   S    
Cr2   O19   S    
C51   C52   S    
Cr2   O14   S    
C53   H17   S    
C24   C25   A    
Cr5   O26   S    
C3    C8    A    
C3    C5    A    
C47   O22   A    
Cr6   O9    S    
C17   C21   A    
C30   C37   A    
C42   O3    A    
C35   C36   A    
C42   O24   A    
C5    C9    A    
C29   C30   A    
C44   O9    A    
C42   C55   S    
C6    C14   A    
C16   O16   A    
C31   C32   A    
C28   C38   S    
C28   O18   A    
C4    O14   A    
Cr6   O2    S    
C17   C18   A    
C34   C45   S    
C26   C47   S    
C27   C46   S    
C39   O25   A    
C46   O10   A    
C34   C54   T    
Cr5   O7    S    
C25   H19   S    
C22   C24   A    
Cr1   O17   S    
C52   H14   S    
Cr4   O24   S    
C52   C53   S    
C9    C10   A    
C15   C17   A    
C47   O17   A    
C27   C32   A    
Cr1   O23   S    
C51   H10   S    
C52   H13   S    
Cr1   O1    S    
Cr5   O27   S    
C31   C38   A    
Cr1   O18   S    
C55   C57   T    
C53   H15   S    
C15   C43   S    
Cr6   O10   S    
C44   O8    A    
C2    C56   T    
C6    C13   A    
C11   C13   A    
C13   H6    S    
C23   C39   S    
C32   H22   S    
Cr6   O3    S    
C33   C35   A    
C41   C48   S    
C33   H21   S    
C9    H2    S    
C7    H1    S    
Cr3   O23   S    
C10   C11   A    
C14   C40   S    
C51   O20   S    
C49   C50   S    
C16   O1    A    
C20   H9    S    
C19   H7    S    
C21   C22   A    
Cr4   O25   S    
