data_mof_unit_33512.cif
_audit_creation_date              2012-12-10T17:14:25-0500
_audit_creation_method            fapswitch 2.2
_symmetry_space_group_name_H-M    P1
_symmetry_Int_Tables_number       1
_space_group_crystal_system       triclinic
_cell_length_a                    15.596248
_cell_length_b                    14.575478
_cell_length_c                    10.135794
_cell_angle_alpha                 89.963625
_cell_angle_beta                  83.106291
_cell_angle_gamma                 90.015047
_cell_volume                      2287.43876426

loop_
_atom_site_label
_atom_site_type_symbol
_atom_type_description
_atom_site_fract_x
_atom_site_fract_y
_atom_site_fract_z
_atom_type_partial_charge
C1    C     C_R   0.387843 0.122256 0.554032 0.786340
C2    C     C_2   0.509546 0.010356 0.069884 -0.002726
C3    C     C_2   0.990999 0.516471 0.929378 -0.034597
C4    C     C_2   0.009311 0.513466 0.069848 0.000452
C5    C     C_2   0.327017 0.803064 0.585481 0.305855
C6    C     C_2   0.669867 0.201532 0.419760 0.320930
C7    C     C_2   0.685218 0.817224 0.410312 0.298189
C8    C     C_2   0.331209 0.201748 0.580508 0.291710
C9    C     C_2   0.813293 0.317220 0.589983 0.266500
C10   C     C_2   0.198341 0.664488 0.404673 0.306017
C11   C     C_2   0.186178 0.318411 0.410042 0.304616
C12   C     C_R   0.613638 0.879884 0.445239 0.784061
C13   C     C_2   0.831707 0.701818 0.579997 0.292339
C14   C     C_2   0.317016 0.746769 0.484409 -0.220481
C15   C     C_2   0.682543 0.252787 0.525418 -0.181032
C16   C     C_2   0.749428 0.820089 0.486704 -0.220357
C17   C     C_2   0.315173 0.250577 0.474120 -0.205683
C18   C     C_2   0.747992 0.323195 0.515756 -0.207415
C19   C     C_2   0.248566 0.680147 0.500222 -0.219050
C20   C     C_2   0.250216 0.321039 0.486797 -0.227012
C21   C     C_2   0.814430 0.749820 0.473601 -0.198868
C22   C     C_3   0.309813 0.051887 0.146529 -0.737899
C23   C     C_R   0.612340 0.122271 0.445990 0.774102
C24   C     C_3   0.692896 0.044519 0.849063 -0.727823
C25   C     C_3   0.807215 0.545938 0.153125 -0.731953
C26   C     C_3   0.200559 0.502936 0.826244 -0.727225
C27   C     C_3   0.741357 0.154159 0.214259 0.073862
C28   C     C_3   0.821300 0.112733 0.266453 -0.393688
C29   C     C_3   0.858787 0.034920 0.176551 -0.940381
C30   C     C_3   0.308512 0.811222 0.820539 0.105062
C31   C     C_3   0.378714 0.739862 0.839938 -0.372622
C32   C     C_3   0.421344 0.760404 0.964449 -0.941635
C33   C     C_3   0.264916 0.164027 0.793984 0.084181
C34   C     C_R   0.386858 0.879065 0.555113 0.791230
C35   C     C_3   0.178121 0.131145 0.754772 -0.404575
C36   C     C_3   0.134093 0.064243 0.857332 -0.931634
C37   C     C_3   0.614268 0.706621 0.296614 0.083620
C38   C     C_3   0.600671 0.637530 0.411726 -0.411243
C39   C     C_3   0.525619 0.572861 0.396836 -0.949478
C40   C     C_3   0.245891 0.623696 0.188845 0.078720
C41   C     C_3   0.335257 0.585518 0.209038 -0.404282
C42   C     C_3   0.365380 0.513639 0.104261 -0.924667
C43   C     C_3   0.839032 0.265314 0.800030 0.103552
C44   C     C_3   0.929084 0.229094 0.818619 -0.318227
C45   C     C_R   0.888212 0.622476 0.553737 0.789566
C46   C     C_3   0.955412 0.256981 0.953086 -0.975185
C47   C     C_3   0.761858 0.666625 0.790645 0.087997
C48   C     C_3   0.670427 0.649418 0.755165 -0.392979
C49   C     C_3   0.618666 0.588566 0.858410 -0.959735
C50   C     C_3   0.117451 0.203855 0.302251 0.083522
C51   C     C_3   0.111747 0.134426 0.417146 -0.408288
C52   C     C_3   0.041782 0.062884 0.405839 -0.916411
C53   C     C_R   0.114023 0.380314 0.445116 0.768417
C54   C     C_R   0.117716 0.615007 0.443197 0.810308
C55   C     C_R   0.885933 0.379730 0.555077 0.798487
C56   C     C_2   0.490676 0.011353 0.930064 -0.034311
H1    H     H_    0.653483 0.235182 0.625186 0.167214
H2    H     H_    0.425323 0.023215 0.908060 0.138764
H3    H     H_    0.074904 0.524967 0.091043 0.138071
H4    H     H_    0.927254 0.536184 0.907249 0.142374
H5    H     H_    0.344134 0.922023 0.200401 0.260095
H6    H     H_    0.247709 0.029021 0.114197 0.216324
H7    H     H_    0.336611 0.107897 0.079561 0.228453
H8    H     H_    0.297361 0.078589 0.249398 0.267099
H9    H     H_    0.651532 0.915562 0.802559 0.255948
H10   H     H_    0.753448 0.019405 0.884138 0.224038
H11   H     H_    0.668650 0.103583 0.911996 0.215867
H12   H     H_    0.354875 0.754147 0.387635 0.159200
H13   H     H_    0.707476 0.067499 0.744335 0.272191
H14   H     H_    0.848244 0.415753 0.193533 0.259103
H15   H     H_    0.746461 0.521978 0.117431 0.216261
H16   H     H_    0.831410 0.606327 0.092905 0.233642
H17   H     H_    0.793012 0.566535 0.258798 0.260322
H18   H     H_    0.124307 0.387724 0.821593 0.253755
H19   H     H_    0.196143 0.572037 0.872771 0.225947
H20   H     H_    0.213885 0.509824 0.716706 0.239936
H21   H     H_    0.254844 0.465174 0.862766 0.228108
H22   H     H_    0.761416 0.181580 0.113105 0.154072
H23   H     H_    0.340597 0.230623 0.373632 0.190791
H24   H     H_    0.693138 0.100456 0.200285 0.154847
H25   H     H_    0.870950 0.167012 0.270766 0.231330
H26   H     H_    0.803892 0.084941 0.368251 0.219338
H27   H     H_    0.810156 0.979539 0.172899 0.278066
H28   H     H_    0.916165 0.005615 0.216048 0.273515
H29   H     H_    0.878667 0.060615 0.074265 0.264555
H30   H     H_    0.256616 0.803158 0.904952 0.162679
H31   H     H_    0.330495 0.883055 0.829076 0.160187
H32   H     H_    0.348711 0.670662 0.848813 0.209290
H33   H     H_    0.429762 0.739019 0.753561 0.220770
H34   H     H_    0.747804 0.866212 0.571319 0.185773
H35   H     H_    0.460688 0.823727 0.949813 0.277626
H36   H     H_    0.464526 0.702889 0.984499 0.265416
H37   H     H_    0.371911 0.769565 0.051754 0.268845
H38   H     H_    0.253020 0.194413 0.895036 0.176408
H39   H     H_    0.308554 0.105146 0.803379 0.144972
H40   H     H_    0.135264 0.191175 0.745916 0.229340
H41   H     H_    0.188962 0.095476 0.657569 0.211850
H42   H     H_    0.174949 0.002366 0.864092 0.267852
H43   H     H_    0.070996 0.042673 0.827165 0.273583
H44   H     H_    0.122582 0.097243 0.956608 0.251426
H45   H     H_    0.232775 0.652215 0.599489 0.191748
H46   H     H_    0.622092 0.667595 0.201849 0.165831
H47   H     H_    0.555945 0.749796 0.293456 0.148032
H48   H     H_    0.660471 0.596630 0.415067 0.227837
H49   H     H_    0.585965 0.675112 0.506982 0.202181
H50   H     H_    0.464602 0.612425 0.400990 0.254886
H51   H     H_    0.519270 0.522391 0.479549 0.272638
H52   H     H_    0.536811 0.535071 0.301188 0.270924
H53   H     H_    0.248632 0.650481 0.085829 0.170216
H54   H     H_    0.197970 0.567025 0.196745 0.145362
H55   H     H_    0.383122 0.642126 0.203738 0.229662
H56   H     H_    0.745970 0.375860 0.440054 0.167707
H57   H     H_    0.332357 0.552805 0.308493 0.215620
H58   H     H_    0.319075 0.455430 0.109622 0.277761
H59   H     H_    0.429700 0.487094 0.122169 0.267631
H60   H     H_    0.371020 0.544224 0.003300 0.260072
H61   H     H_    0.791421 0.230788 0.874001 0.142214
H62   H     H_    0.832724 0.339957 0.823271 0.139268
H63   H     H_    0.929212 0.152988 0.811434 0.219165
H64   H     H_    0.977621 0.255833 0.738736 0.232065
H65   H     H_    0.956305 0.332645 0.961891 0.280171
H66   H     H_    0.021032 0.230606 0.963108 0.266396
H67   H     H_    0.838776 0.729092 0.372988 0.194630
H68   H     H_    0.909558 0.228617 0.034919 0.264228
H69   H     H_    0.756764 0.692937 0.894152 0.181240
H70   H     H_    0.797876 0.601021 0.790999 0.131720
H71   H     H_    0.636246 0.715893 0.748402 0.238813
H72   H     H_    0.674929 0.614393 0.657519 0.201896
H73   H     H_    0.651107 0.521133 0.864848 0.262450
H74   H     H_    0.553108 0.576941 0.829305 0.271754
H75   H     H_    0.612139 0.622044 0.957492 0.257418
H76   H     H_    0.123630 0.165298 0.207063 0.166225
H77   H     H_    0.056632 0.243876 0.305288 0.151213
H78   H     H_    0.248187 0.366816 0.571789 0.183200
H79   H     H_    0.174822 0.099142 0.417370 0.232249
H80   H     H_    0.096216 0.171184 0.512921 0.203613
H81   H     H_    0.977760 0.096625 0.409573 0.268789
H82   H     H_    0.039924 0.013979 0.490187 0.275813
H83   H     H_    0.055702 0.024011 0.311497 0.263777
H84   H     H_    0.575203 0.020578 0.091765 0.145247
N1    N     N_2   0.549450 0.000000 0.831550 -0.038408
N2    N     N_2   0.450550 0.000000 0.168450 -0.039498
N3    N     N_2   0.049450 0.500000 0.831550 -0.031224
N4    N     N_2   0.950550 0.500000 0.168450 -0.038024
N5    N     N_2   0.369123 0.975396 0.141109 -0.265405
N6    N     N_2   0.629733 0.971473 0.859028 -0.253156
N7    N     N_2   0.870201 0.472788 0.139572 -0.266843
N8    N     N_2   0.121286 0.452889 0.861384 -0.247682
O1    O     O_R   0.398960 0.091100 0.433300 -0.618785
O2    O     O_R   0.569290 0.908910 0.353790 -0.598486
O3    O     O_R   0.569290 0.091090 0.353790 -0.602959
O4    O     O_R   0.430710 0.908910 0.646210 -0.619032
O5    O     O_R   0.930710 0.591090 0.646210 -0.591857
O6    O     O_R   0.069290 0.408910 0.353790 -0.597609
O7    O     O_R   0.069290 0.591090 0.353790 -0.599294
O8    O     O_R   0.930710 0.408910 0.646210 -0.616883
O9    O     O_3   0.706474 0.228580 0.293165 -0.642433
O10   O     O_3   0.269912 0.796369 0.702925 -0.650862
O11   O     O_3   0.302329 0.233800 0.708015 -0.639615
O12   O     O_R   0.601040 0.908900 0.566700 -0.633195
O13   O     O_3   0.690509 0.759219 0.300078 -0.643892
O14   O     O_3   0.220856 0.697439 0.276498 -0.638701
O15   O     O_3   0.818683 0.241164 0.672272 -0.654991
O16   O     O_3   0.805234 0.734601 0.707671 -0.635548
O17   O     O_3   0.191421 0.260734 0.299660 -0.645238
O18   O     O_R   0.601040 0.091100 0.566700 -0.613098
O19   O     O_R   0.398960 0.908900 0.433300 -0.618907
O20   O     O_R   0.898960 0.591100 0.433300 -0.623663
O21   O     O_R   0.101040 0.408900 0.566700 -0.636305
O22   O     O_R   0.101040 0.591100 0.566700 -0.612189
O23   O     O_R   0.898960 0.408900 0.433300 -0.619238
O24   O     O_R   0.430710 0.091090 0.646210 -0.600349
Zn1   Zn    Zn3+2 0.478810 1.000000 0.357840 0.940381
Zn2   Zn    Zn3+2 0.521190 1.000000 0.642160 0.930224
Zn3   Zn    Zn3+2 0.978810 0.500000 0.357840 0.941697
Zn4   Zn    Zn3+2 0.021190 0.500000 0.642160 0.935980

loop_
_geom_bond_atom_site_label_1
_geom_bond_atom_site_label_2
_ccdc_geom_bond_type
C39   H50   S    
C16   H34   S    
C16   C21   S    
O3    Zn1   S    
O20   Zn3   S    
C1    C8    S    
C41   C42   S    
C54   O22   A    
C15   C18   S    
C35   C36   S    
C27   H22   S    
C33   H38   S    
C52   H83   S    
O22   Zn4   S    
C35   H40   S    
C39   H51   S    
C7    O13   S    
O5    Zn4   S    
O6    Zn3   S    
C47   H70   S    
H18   N8    S    
C28   C29   S    
C25   H17   S    
C18   H56   S    
C29   H27   S    
C30   C31   S    
C32   H35   S    
C22   H6    S    
C44   H64   S    
C17   H23   S    
C17   C20   S    
C4    H3    S    
C9    O15   S    
H5    N5    S    
C38   H48   S    
C24   H11   S    
C6    C15   D    
C51   H79   S    
C42   H58   S    
C47   C48   S    
O24   Zn2   S    
C31   H33   S    
C26   H20   S    
C46   H65   S    
C1    O1    A    
C25   H15   S    
C30   H30   S    
C52   H81   S    
C29   H29   S    
C11   C53   S    
C24   H10   S    
O19   Zn1   S    
O4    Zn2   S    
C3    H4    S    
C32   H37   S    
C22   H7    S    
C53   O6    A    
C10   O14   S    
C15   H1    S    
N2    N5    S    
C46   H68   S    
N3    N8    S    
N3    Zn4   S    
N4    N7    S    
C33   H39   S    
C55   O23   A    
C44   C46   S    
C24   H13   S    
C47   H69   S    
N2    Zn1   S    
C39   H52   S    
C11   C20   D    
O18   Zn2   S    
C26   H21   S    
C28   H26   S    
C51   C52   S    
C12   O2    A    
C3    N3    D    
C29   H28   S    
C25   N7    S    
C27   H24   S    
C54   O7    A    
C37   H47   S    
C34   O4    A    
C40   H54   S    
C44   H63   S    
C49   H73   S    
C37   H46   S    
C21   H67   S    
C43   C44   S    
C40   O14   S    
C37   C38   S    
C48   H72   S    
C23   O18   A    
C49   H75   S    
C51   H80   S    
C9    C18   D    
C52   H82   S    
C31   C32   S    
C22   N5    S    
C10   C19   D    
C5    C34   S    
C50   O17   S    
C50   C51   S    
C3    C4    S    
C13   C21   D    
C36   H44   S    
C25   H16   S    
C12   O12   A    
C26   N8    S    
C5    C14   D    
C50   H76   S    
N1    N6    S    
C43   H61   S    
C9    C55   S    
C47   O16   S    
C42   H60   S    
C48   C49   S    
C24   N6    S    
N1    Zn2   S    
C2    N2    D    
C7    C12   S    
C45   O5    A    
C56   N1    D    
C34   O19   A    
C6    O9    S    
C13   O16   S    
C37   O13   S    
O7    Zn3   S    
C30   O10   S    
C23   O3    A    
O8    Zn4   S    
C55   O8    A    
C28   H25   S    
O12   Zn2   S    
C14   C19   S    
C7    C16   D    
C41   H57   S    
C50   H77   S    
C4    N4    D    
C36   H42   S    
C40   H53   S    
C53   O21   A    
C27   O9    S    
C49   H74   S    
C1    O24   A    
C8    C17   D    
C2    H84   S    
C38   H49   S    
C30   H31   S    
C2    C56   S    
C48   H71   S    
C13   C45   S    
C19   H45   S    
C38   C39   S    
O23   Zn3   S    
C6    C23   S    
N4    Zn3   S    
C33   C35   S    
O21   Zn4   S    
C56   H2    S    
C36   H43   S    
O1    Zn1   S    
C10   C54   S    
C45   O20   A    
C32   H36   S    
C43   H62   S    
C22   H8    S    
C42   H59   S    
C31   H32   S    
O2    Zn1   S    
C26   H19   S    
C5    O10   S    
C41   H55   S    
C27   C28   S    
C11   O17   S    
C14   H12   S    
C46   H66   S    
C40   C41   S    
H14   N7    S    
C20   H78   S    
H9    N6    S    
C35   H41   S    
C8    O11   S    
C33   O11   S    
C43   O15   S    
