data_mof_unit_14398.cif
_audit_creation_date              2012-12-11T16:56:15-0500
_audit_creation_method            fapswitch 2.2
_symmetry_space_group_name_H-M    P1
_symmetry_Int_Tables_number       1
_space_group_crystal_system       triclinic
_cell_length_a                    6.989113
_cell_length_b                    14.528257
_cell_length_c                    16.184409
_cell_angle_alpha                 90.478222
_cell_angle_beta                  90.066752
_cell_angle_gamma                 90.216581
_cell_volume                      1643.28874066

loop_
_atom_site_label
_atom_site_type_symbol
_atom_type_description
_atom_site_fract_x
_atom_site_fract_y
_atom_site_fract_z
_atom_type_partial_charge
O1    O     O_R   0.505830 0.583360 0.413880 -0.552243
O2    O     O_R   0.175830 0.595460 0.585520 -0.549168
O3    O     O_R   0.005520 0.416640 0.586120 -0.537656
C1    C     C_R   0.345139 0.617586 0.614026 0.712631
O4    O     O_R   0.176120 0.594390 0.414490 -0.549258
O5    O     O_R   0.005810 0.415570 0.413870 -0.535901
C2    C     C_R   0.345263 0.618831 0.388131 0.671307
O6    O     O_R   0.505540 0.584430 0.586130 -0.540176
O7    O     O_3   0.339200 0.441330 0.500000 -0.353314
V1    V     V_3+5 0.064350 0.510880 0.500000 1.394762
O8    O     O_R   0.676100 0.404540 0.414480 -0.544456
C3    C     C_R   0.844781 0.382639 0.385831 0.694807
O9    O     O_R   0.675810 0.405610 0.585510 -0.501614
C4    C     C_R   0.844216 0.383988 0.613917 0.789742
V2    V     V_3+5 0.564340 0.489120 0.500000 1.444468
O10   O     O_3   0.839360 0.558670 0.500000 -0.400534
C5    C     C_2   0.721311 0.210004 0.788334 -0.208428
C6    C     C_2   0.886602 0.178153 0.819970 -0.377216
H1    H     H_    0.587530 0.187700 0.815932 0.164030
H2    H     H_    0.023496 0.198199 0.794482 0.140895
C7    C     C_2   0.703881 0.273971 0.716575 0.485437
C8    C     C_2   0.856974 0.316818 0.682213 -0.392625
H3    H     H_    0.000125 0.303541 0.704503 0.112586
C9    C     C_R   0.722892 0.184668 0.239425 0.081399
C10   C     C_R   0.881322 0.181694 0.186543 -0.087078
C11   C     C_R   0.028863 0.245272 0.201399 -0.173439
H4    H     H_    0.146060 0.248951 0.158993 0.142606
C12   C     C_R   0.017899 0.309718 0.266514 -0.141570
H5    H     H_    0.131145 0.360187 0.273338 0.121740
C13   C     C_R   0.857473 0.312640 0.319038 -0.097571
C14   C     C_R   0.712757 0.247240 0.305565 0.059357
C15   C     C_3   0.505169 0.264419 0.291445 -0.270938
C16   C     C_3   0.517558 0.199275 0.217268 -0.265654
H6    H     H_    0.473107 0.337517 0.277009 0.125644
H7    H     H_    0.429924 0.135366 0.221268 0.139374
C17   C     C_R   0.492531 0.674953 0.746825 -0.016516
C18   C     C_R   0.354866 0.683398 0.684417 -0.092478
C19   C     C_R   0.219699 0.754297 0.693477 -0.188355
H8    H     H_    0.111771 0.763085 0.646399 0.116494
C20   C     C_R   0.231826 0.818001 0.759892 -0.163580
H9    H     H_    0.136183 0.876126 0.761559 0.170806
C21   C     C_R   0.375210 0.810825 0.820787 -0.170388
C22   C     C_R   0.501546 0.736820 0.813210 0.049286
C23   C     C_3   0.715293 0.734631 0.814315 0.861836
C24   C     C_3   0.705326 0.666546 0.741081 -0.500873
H10   H     H_    0.752680 0.595815 0.756666 0.169514
H11   H     H_    0.763199 0.691977 0.681627 0.150968
C25   C     C_R   0.495976 0.759101 0.320039 0.061660
C26   C     C_R   0.351920 0.690954 0.323409 -0.140587
C27   C     C_R   0.209980 0.692754 0.261251 -0.138401
H12   H     H_    0.093802 0.643264 0.261938 0.126096
C28   C     C_R   0.223922 0.753826 0.194102 -0.147405
H13   H     H_    0.121303 0.750198 0.144597 0.144725
C29   C     C_R   0.378241 0.814906 0.186726 -0.092755
C30   C     C_R   0.513868 0.815026 0.250181 0.004173
C31   C     C_3   0.723290 0.797020 0.244514 -0.177646
C32   C     C_3   0.708942 0.750683 0.328995 0.239940
H14   H     H_    0.765359 0.678928 0.330593 0.067072
O11   O     O_R   0.229930 0.912420 0.917160 -0.546458
O12   O     O_R   0.559420 0.902500 0.088780 -0.541772
O13   O     O_R   0.729660 0.081330 0.089380 -0.542885
C33   C     C_R   0.390405 0.880345 0.116944 0.698893
O14   O     O_R   0.559650 0.901420 0.917750 -0.508523
O15   O     O_R   0.729880 0.080250 0.917130 -0.539193
C34   C     C_R   0.390286 0.879690 0.888834 0.710904
O16   O     O_R   0.229700 0.913500 0.089410 -0.535916
O17   O     O_3   0.396250 0.055540 0.003280 -0.376995
V3    V     V_3+5 0.671130 0.986010 0.003260 1.510847
O18   O     O_R   0.059600 0.091310 0.917720 -0.546702
C35   C     C_R   0.891264 0.112538 0.889228 0.775887
O19   O     O_R   0.059370 0.092380 0.088750 -0.541902
C36   C     C_R   0.890567 0.115223 0.116675 0.728190
V4    V     V_3+5 0.171120 0.007820 0.003230 1.459101
O20   O     O_3   0.896130 0.938240 0.003240 -0.359914
O21   O     O_3   0.774756 0.692915 0.888837 -0.560533
C37   C     C_3   0.975449 0.684820 0.891848 -0.145839
H15   H     H_    0.040977 0.752362 0.907380 0.175652
H16   H     H_    0.036159 0.656339 0.833542 0.125233
H17   H     H_    0.013255 0.636769 0.942140 0.157558
O22   O     O_3   0.804013 0.822439 0.801651 -0.552321
C38   C     C_3   0.755552 0.866956 0.726642 -0.346133
H18   H     H_    0.608214 0.854442 0.704335 0.149471
H19   H     H_    0.855078 0.846896 0.676841 0.131873
H20   H     H_    0.771153 0.942304 0.736243 0.164988
C39   C     C_1   0.840036 0.881509 0.241296 0.427010
N1    N     N_1   0.932386 0.947701 0.239354 -0.365430
C40   C     C_1   0.763000 0.731645 0.176309 0.218190
N2    N     N_1   0.790055 0.679964 0.122780 -0.333024
O23   O     O_3   0.776189 0.810959 0.392201 -0.542923
C41   C     C_3   0.798279 0.763965 0.467029 -0.170772
H21   H     H_    0.925425 0.718791 0.463717 0.162104
H22   H     H_    0.666816 0.725342 0.484044 0.135664
H23   H     H_    0.825256 0.815274 0.516848 0.126726
O24   O     O_3   0.521000 0.295820 0.690020 -0.540244
C42   C     C_3   0.443878 0.219901 0.646320 -0.193994
H24   H     H_    0.415016 0.161101 0.688096 0.104464
H25   H     H_    0.538842 0.198132 0.594535 0.134919
H26   H     H_    0.305218 0.240717 0.618903 0.169830
C43   C     C_1   0.390064 0.227629 0.359802 0.371532
N3    N     N_1   0.299481 0.198832 0.413604 -0.364945
C44   C     C_1   0.499417 0.247484 0.137624 0.332711
N4    N     N_1   0.485840 0.285176 0.075176 -0.350859

loop_
_geom_bond_atom_site_label_1
_geom_bond_atom_site_label_2
_ccdc_geom_bond_type
C6    C35   S    
C25   C30   A    
C40   N2    T    
O14   C34   A    
C44   N4    T    
V4    O20   S    
C42   H24   S    
C37   H17   S    
C1    O6    A    
C38   H18   S    
C32   H14   S    
C42   H26   S    
C25   C32   S    
C24   H10   S    
C23   C24   S    
C11   H4    S    
C32   O23   S    
C16   C44   S    
O15   V3    S    
C12   H5    S    
C37   H16   S    
O5    C3    A    
C13   C14   A    
C7    O24   S    
V3    O20   S    
V2    O10   S    
C31   C32   S    
O12   C33   A    
C16   H7    S    
C29   C30   A    
O8    V2    S    
C43   N3    T    
C21   C34   S    
C27   C28   A    
O18   V4    S    
O17   V4    S    
O15   C35   A    
O7    V1    S    
O11   V4    S    
C20   C21   A    
O9    C4    A    
O18   C35   A    
C38   H19   S    
C28   C29   A    
C5    C6    D    
C24   H11   S    
C33   O16   A    
O17   V3    S    
C23   O22   S    
C9    C10   A    
C2    C26   S    
O4    C2    A    
C31   C40   S    
C29   C33   S    
C10   C11   A    
C39   N1    T    
O16   V4    S    
C5    C7    S    
C15   H6    S    
C23   O21   S    
O2    C1    A    
O21   C37   S    
C18   C19   A    
C41   H22   S    
C14   C15   S    
C30   C31   S    
C27   H12   S    
C17   C24   S    
C10   C36   S    
C37   H15   S    
O3    C4    A    
O1    V2    S    
O13   C36   A    
C20   H9    S    
O6    V2    S    
O9    V2    S    
C22   C23   S    
C21   C22   A    
C41   H21   S    
O2    V1    S    
C38   H20   S    
C28   H13   S    
C41   H23   S    
O19   V4    S    
O14   V3    S    
C17   C18   A    
C3    C13   S    
O1    C2    A    
O22   C38   S    
O5    V1    S    
O8    C3    A    
C42   H25   S    
C11   C12   A    
C9    C16   S    
C15   C43   S    
C15   C16   S    
C4    C8    S    
C12   C13   A    
O7    V2    S    
C9    C14   A    
O4    V1    S    
O3    V1    S    
V1    O10   S    
O11   C34   A    
C19   C20   A    
O13   V3    S    
C31   C39   S    
C19   H8    S    
C25   C26   A    
C5    H1    S    
C6    H2    S    
O24   C42   S    
O19   C36   A    
C1    C18   S    
O12   V3    S    
C26   C27   A    
C8    H3    S    
C17   C22   A    
O23   C41   S    
C7    C8    D    
