data_mof_unit_52717.cif
_audit_creation_date              2012-12-10T17:55:53-0500
_audit_creation_method            fapswitch 2.2
_symmetry_space_group_name_H-M    P1
_symmetry_Int_Tables_number       1
_space_group_crystal_system       triclinic
_cell_length_a                    10.961272
_cell_length_b                    10.88533
_cell_length_c                    9.506125
_cell_angle_alpha                 89.422487
_cell_angle_beta                  100.531582
_cell_angle_gamma                 90.643569
_cell_volume                      1115.02829833

loop_
_atom_site_label
_atom_site_type_symbol
_atom_type_description
_atom_site_fract_x
_atom_site_fract_y
_atom_site_fract_z
_atom_type_partial_charge
C1    C     C_R   0.501180 0.262154 0.501269 0.853768
C2    C     C_R   0.499876 0.738078 0.499260 0.822062
C3    C     C_R   0.262595 0.508879 0.445547 0.839415
C4    C     C_R   0.737047 0.505440 0.555109 0.843350
C5    C     C_R   0.421781 0.422278 0.059898 0.554297
C6    C     C_R   0.576840 0.579290 0.939603 0.556699
C7    C     C_R   0.423299 0.422884 0.909497 -0.252211
C8    C     C_R   0.575760 0.577939 0.090398 -0.238629
C9    C     C_2   0.128190 0.532622 0.425711 -0.411944
C10   C     C_2   0.871753 0.512282 0.579435 -0.372330
C11   C     C_2   0.072353 0.575368 0.532806 0.092549
C12   C     C_2   0.936181 0.587044 0.504154 0.121466
C13   C     C_R   0.502179 0.067031 0.375458 -0.323661
C14   C     C_R   0.501459 0.933763 0.627422 -0.367646
C15   C     C_R   0.499245 0.939800 0.371128 0.452885
C16   C     C_R   0.506333 0.061591 0.632426 0.453466
C17   C     C_R   0.500500 0.872129 0.498447 -0.184200
C18   C     C_R   0.503075 0.128512 0.503976 -0.191778
Cu1   Cu    Cu3+1 0.500000 0.500020 0.640660 0.979019
Cu2   Cu    Cu3+1 0.500000 0.499980 0.359340 0.979135
H1    H     H_    0.921055 0.451466 0.661522 0.126368
H2    H     H_    0.073027 0.515389 0.320534 0.139115
H3    H     H_    0.365888 0.360481 0.837808 0.167790
H4    H     H_    0.634890 0.637820 0.163326 0.152691
H5    H     H_    0.501870 0.117323 0.276505 0.205629
H6    H     H_    0.499073 0.882975 0.725342 0.191100
N1    N     N_R   0.500030 0.500030 0.852080 -0.207958
N2    N     N_R   0.499970 0.499970 0.147920 -0.202251
O1    O     O_R   0.499990 0.319660 0.618740 -0.539064
O2    O     O_R   0.500010 0.680340 0.381260 -0.564569
O3    O     O_R   0.499990 0.319630 0.381170 -0.546209
O4    O     O_R   0.500010 0.680370 0.618830 -0.555652
O5    O     O_R   0.320690 0.500020 0.575130 -0.603653
O6    O     O_R   0.679310 0.499980 0.424870 -0.596515
O7    O     O_R   0.320680 0.499990 0.337560 -0.537763
O8    O     O_R   0.679320 0.500010 0.662440 -0.532961
C19   C     C_3   0.877747 0.681922 0.393637 -0.376996
C20   C     C_3   0.926793 0.812079 0.432559 -0.367051
C21   C     C_3   0.873561 0.904751 0.316462 -0.866194
H7    H     H_    0.903628 0.882445 0.214394 0.248214
H8    H     H_    0.770556 0.904123 0.299622 0.277642
H9    H     H_    0.907795 0.998426 0.349262 0.244734
H10   H     H_    0.899464 0.839485 0.534672 0.215754
H11   H     H_    0.029679 0.815006 0.446234 0.225388
H12   H     H_    0.898895 0.656678 0.287885 0.180886
H13   H     H_    0.775790 0.685677 0.382942 0.215724
C22   C     C_3   0.144536 0.605633 0.682617 -0.333255
C23   C     C_3   0.073937 0.674087 0.782369 -0.402744
C24   C     C_3   0.157023 0.695438 0.927009 -0.894848
H14   H     H_    0.177020 0.607003 0.985477 0.256920
H15   H     H_    0.245846 0.737892 0.911177 0.262338
H16   H     H_    0.110304 0.757240 0.992384 0.246089
H17   H     H_    0.043336 0.764295 0.733932 0.219967
H18   H     H_    0.992804 0.619962 0.802543 0.239689
H19   H     H_    0.178248 0.518304 0.737043 0.207024
H20   H     H_    0.224428 0.666157 0.670213 0.214770
O9    O     O_3   0.350849 0.339560 0.124656 -0.546579
C25   C     C_3   0.242119 0.298204 0.033448 0.012743
H21   H     H_    0.265491 0.227787 0.958994 0.154080
H22   H     H_    0.191156 0.375639 0.972453 0.128632
C26   C     C_3   0.156811 0.237718 0.123768 -0.772652
H23   H     H_    0.130513 0.305309 0.199419 0.244243
H24   H     H_    0.071379 0.203158 0.053515 0.193285
H25   H     H_    0.204590 0.159344 0.185494 0.243175
O10   O     O_3   0.654852 0.654711 0.874891 -0.541262
C27   C     C_3   0.718548 0.746365 0.964330 0.015250
H26   H     H_    0.787124 0.703970 0.051296 0.144993
H27   H     H_    0.652407 0.804666 0.009147 0.161154
C28   C     C_3   0.790419 0.828040 0.877047 -0.839032
H28   H     H_    0.728035 0.865737 0.782037 0.246537
H29   H     H_    0.835923 0.904757 0.943608 0.197406
H30   H     H_    0.862096 0.773803 0.839222 0.252174
O11   O     O_3   0.495493 0.882735 0.241286 -0.586572
C29   C     C_3   0.373017 0.886213 0.161656 0.056780
H31   H     H_    0.303871 0.933280 0.215224 0.121353
H32   H     H_    0.339942 0.790145 0.143427 0.181674
C30   C     C_3   0.373624 0.949220 0.018216 -0.810153
H33   H     H_    0.429820 0.895385 0.955315 0.239344
H34   H     H_    0.277394 0.956412 0.957211 0.212041
H35   H     H_    0.413248 0.043207 0.034944 0.264778
O12   O     O_3   0.507820 0.121407 0.760936 -0.568392
C31   C     C_3   0.621861 0.099652 0.854068 0.050116
H36   H     H_    0.702120 0.099141 0.796666 0.131638
H37   H     H_    0.616635 0.010833 0.910782 0.162528
C32   C     C_3   0.646556 0.200091 0.965952 -0.760239
H38   H     H_    0.733827 0.180486 0.042139 0.193309
H39   H     H_    0.656565 0.290228 0.913408 0.256833
H40   H     H_    0.569295 0.204081 0.026551 0.244953

loop_
_geom_bond_atom_site_label_1
_geom_bond_atom_site_label_2
_ccdc_geom_bond_type
C27   H27   S    
C4    O8    A    
C26   H25   S    
O11   C29   S    
C11   C22   S    
Cu1   Cu2   S    
O12   C31   S    
C21   H8    S    
Cu2   O2    S    
C30   H33   S    
C23   H18   S    
C1    C18   S    
C29   H32   S    
C13   C18   A    
Cu1   O8    S    
C20   C21   S    
C9    H2    S    
C30   H35   S    
C27   C28   S    
C3    O5    A    
C25   H22   S    
C1    O3    A    
C7    N1    A    
C2    O4    A    
C12   C19   S    
C28   H29   S    
Cu2   O7    S    
C6    O10   S    
C6    N1    A    
C24   H15   S    
C29   C30   S    
Cu1   N1    S    
Cu2   O6    S    
C25   C26   S    
C32   H39   S    
C27   H26   S    
C2    C17   S    
C14   C17   A    
C13   H5    S    
C26   H23   S    
Cu1   O4    S    
C21   H9    S    
C30   H34   S    
C10   H1    S    
C23   H17   S    
C4    O6    A    
C29   H31   S    
Cu1   O5    S    
C21   H7    S    
C5    C7    A    
C6    C8    A    
Cu2   N2    S    
C25   H21   S    
C32   H38   S    
C28   H30   S    
C20   H11   S    
C19   C20   S    
C3    C9    S    
C5    N2    A    
C22   C23   S    
C3    O7    A    
C24   H16   S    
C1    O1    A    
C14   H6    S    
C9    C11   D    
C10   C12   D    
C23   C24   S    
C15   O11   S    
C31   H36   S    
C31   H37   S    
C13   C15   A    
C8    N2    A    
C14   C16   A    
C19   H12   S    
Cu1   O1    S    
C22   H19   S    
C32   H40   S    
C15   C17   A    
C26   H24   S    
C11   C12   S    
C31   C32   S    
C5    O9    S    
C2    O2    A    
C20   H10   S    
O9    C25   S    
C7    H3    S    
C16   O12   S    
C8    H4    S    
O10   C27   S    
C28   H28   S    
C16   C18   A    
C24   H14   S    
C19   H13   S    
C4    C10   S    
C22   H20   S    
Cu2   O3    S    
