data_mof_unit_50331.cif
_audit_creation_date              2012-12-11T16:08:55-0500
_audit_creation_method            fapswitch 2.2
_symmetry_space_group_name_H-M    P1
_symmetry_Int_Tables_number       1
_space_group_crystal_system       triclinic
_cell_length_a                    12.894668
_cell_length_b                    13.305026
_cell_length_c                    27.689895
_cell_angle_alpha                 94.671713
_cell_angle_beta                  90.608518
_cell_angle_gamma                 119.322148
_cell_volume                      4121.20199774

loop_
_atom_site_label
_atom_site_type_symbol
_atom_type_description
_atom_site_fract_x
_atom_site_fract_y
_atom_site_fract_z
_atom_type_partial_charge
C1    C     C_R   0.628537 0.894520 0.427720 0.558923
C2    C     C_R   0.151376 0.734591 0.303281 0.017286
C3    C     C_R   0.149701 0.730486 0.201537 -0.004877
C4    C     C_R   0.601303 0.222496 0.440640 0.552137
C5    C     C_R   0.151081 0.639626 0.223946 0.195927
C6    C     C_R   0.148694 0.639805 0.274826 0.277212
C7    C     C_R   0.140745 0.725920 0.151156 -0.076942
C8    C     C_R   0.122195 0.806452 0.128608 -0.024096
C9    C     C_R   0.183562 0.936537 0.359430 0.183591
C10   C     C_R   0.167911 0.927345 0.308809 -0.001280
C11   C     C_R   0.157885 0.829200 0.280565 -0.093301
C12   C     C_R   0.570699 0.259305 0.220698 0.276282
C13   C     C_R   0.165464 0.016557 0.286000 -0.021818
C14   C     C_R   0.150715 0.009659 0.235786 0.242362
C15   C     C_R   0.146020 0.914408 0.206850 0.036362
C16   C     C_R   0.264457 0.874474 0.426719 0.552319
C17   C     C_R   0.151596 0.824887 0.229681 -0.019388
C18   C     C_R   0.132589 0.904123 0.155969 -0.106553
C19   C     C_R   0.190759 0.847723 0.381319 -0.015013
C20   C     C_R   0.748720 0.939409 0.356845 -0.160079
C21   C     C_R   0.752607 0.927860 0.306958 0.007952
C22   C     C_R   0.751872 0.914019 0.206226 -0.000826
C23   C     C_R   0.562423 0.247400 0.270487 -0.027700
C24   C     C_R   0.839223 0.012910 0.233994 -0.104363
C25   C     C_R   0.840385 0.019291 0.284124 -0.102364
C26   C     C_R   0.757589 0.905807 0.156461 -0.166584
C27   C     C_R   0.678973 0.803839 0.128055 -0.013904
C28   C     C_R   0.628555 0.898148 0.564317 0.554434
C29   C     C_R   0.571123 0.749499 0.353959 0.224778
C30   C     C_R   0.574986 0.736311 0.303029 -0.010016
C31   C     C_R   0.663527 0.827630 0.279506 0.012558
C32   C     C_R   0.490202 0.635888 0.274976 -0.091206
C33   C     C_R   0.489888 0.625523 0.224063 0.273052
C34   C     C_R   0.661858 0.312147 0.302960 -0.015659
C35   C     C_R   0.575112 0.719608 0.200105 0.056870
C36   C     C_R   0.663223 0.819988 0.228571 -0.019594
C37   C     C_R   0.579573 0.715756 0.148801 0.255239
C38   C     C_R   0.652966 0.856189 0.380080 0.010277
C39   C     C_R   0.756388 0.320461 0.650402 0.180804
C40   C     C_R   0.605725 0.229908 0.578049 0.603417
C41   C     C_R   0.781777 0.373695 0.698398 0.024566
C42   C     C_R   0.807345 0.442553 0.798350 0.020616
C43   C     C_R   0.890679 0.418500 0.776350 -0.089046
C44   C     C_R   0.877872 0.383779 0.727046 -0.038961
C45   C     C_R   0.681846 0.338411 0.203302 0.028141
C46   C     C_R   0.814404 0.464974 0.848518 -0.145414
C47   C     C_R   0.725214 0.476983 0.872020 -0.027304
C48   C     C_R   0.600083 0.371050 0.640682 0.227620
C49   C     C_R   0.613731 0.410300 0.690488 -0.000637
C50   C     C_R   0.704373 0.410084 0.719490 -0.068913
C51   C     C_R   0.533336 0.441015 0.712288 0.225557
C52   C     C_R   0.271488 0.879157 0.563272 0.549392
C53   C     C_R   0.547801 0.477592 0.762446 0.261755
C54   C     C_R   0.631154 0.466646 0.792361 0.070477
C55   C     C_R   0.714678 0.440807 0.770033 -0.004136
C56   C     C_1   0.693638 0.364075 0.153376 -0.040905
C57   C     C_R   0.632561 0.478472 0.843868 0.247430
C58   C     C_R   0.657165 0.309711 0.623106 0.029967
C59   C     C_1   0.219279 0.860289 0.609439 0.055449
C60   C     C_R   0.178280 0.750449 0.723526 0.274870
C61   C     C_R   0.170276 0.745934 0.773979 0.279989
C62   C     C_R   0.125467 0.903542 0.779154 -0.061297
C63   C     C_R   0.134374 0.910246 0.729079 0.211625
C64   C     C_1   0.632619 0.268772 0.394710 0.035411
C65   C     C_R   0.162311 0.833620 0.700926 -0.013156
C66   C     C_R   0.143998 0.822941 0.801740 -0.029839
C67   C     C_1   0.650164 0.294137 0.353619 -0.020584
C68   C     C_1   0.125217 0.813017 0.852775 0.038706
C69   C     C_1   0.187855 0.847050 0.650395 0.025011
C70   C     C_1   0.100708 0.797042 0.894358 0.044274
C71   C     C_1   0.648962 0.861302 0.608658 0.063317
C72   C     C_R   0.745198 0.776236 0.712126 -0.152998
C73   C     C_R   0.758473 0.761801 0.761099 0.216782
C74   C     C_R   0.612399 0.824063 0.781257 0.258412
C75   C     C_R   0.602054 0.839676 0.732400 0.318076
C76   C     C_R   0.771646 0.388852 0.285640 -0.112731
C77   C     C_R   0.668229 0.815644 0.697976 -0.031282
C78   C     C_1   0.703535 0.393150 0.112813 0.015059
C79   C     C_R   0.692360 0.786092 0.795647 0.041345
C80   C     C_1   0.709061 0.773414 0.845746 0.051369
C81   C     C_1   0.660484 0.837013 0.648461 0.037173
C82   C     C_1   0.724646 0.764127 0.887614 0.041975
C83   C     C_R   0.064822 0.772132 0.079528 0.547262
C84   C     C_R   0.717035 0.440954 0.067240 0.558964
C85   C     C_R   0.718974 0.782665 0.080710 0.574906
C86   C     C_R   0.056313 0.766077 0.941224 0.535324
C87   C     C_R   0.732854 0.492293 0.925827 0.541222
C88   C     C_R   0.781407 0.402178 0.236051 -0.131749
C89   C     C_R   0.152946 0.740390 0.354330 0.247249
C90   C     C_R   0.748492 0.754998 0.936991 0.531350
Cl1   Cl    Cl    0.459560 0.608482 0.109752 -0.421685
Cl2   Cl    Cl    0.464172 0.633946 0.384682 -0.515196
Cl3   Cl    Cl    0.846769 0.264170 0.626197 -0.524404
Cl4   Cl    Cl    0.511571 0.482662 0.872586 -0.443598
Cl5   Cl    Cl    0.209379 0.651798 0.688692 -0.446378
Cl6   Cl    Cl    0.194902 0.644722 0.802482 -0.479993
Cl7   Cl    Cl    0.506586 0.892323 0.714990 -0.468088
Cl8   Cl    Cl    0.097611 0.614540 0.385905 -0.478012
Cl9   Cl    Cl    0.158344 0.525911 0.188571 -0.570756
Cr1   Cr    Cr6+3 0.416430 0.829200 0.492370 1.167368
Cr2   Cr    Cr6+3 0.674630 0.087020 0.504170 1.117508
Cr3   Cr    Cr6+3 0.408920 0.083740 0.503490 1.107252
Cr4   Cr    Cr6+3 0.914010 0.832750 0.013970 1.046817
Cr5   Cr    Cr6+3 0.922310 0.578600 0.003000 1.073036
Cr6   Cr    Cr6+3 0.656280 0.574630 0.003870 1.159985
H1    H     H_    0.849395 0.438579 0.310389 0.177031
H2    H     H_    0.962976 0.421134 0.797750 0.177554
H3    H     H_    0.942077 0.361492 0.712285 0.214708
H4    H     H_    0.102765 0.961239 0.800541 0.181227
H5    H     H_    0.796195 0.758604 0.685229 0.123295
H6    H     H_    0.477587 0.186918 0.283873 0.153813
H7    H     H_    0.136352 0.653039 0.129062 0.219599
H8    H     H_    0.124122 0.967812 0.137037 0.145235
H9    H     H_    0.083379 0.065837 0.189208 0.315778
H10   H     H_    0.159657 0.009984 0.418079 0.342496
H11   H     H_    0.359246 0.465501 0.220273 0.357777
H12   H     H_    0.172173 0.091861 0.307204 0.203214
H13   H     H_    0.464203 0.565034 0.756404 0.352986
H14   H     H_    0.368782 0.408952 0.706607 0.373264
H15   H     H_    0.549743 0.472055 0.615722 0.361079
H16   H     H_    0.486448 0.204817 0.156708 0.341747
H17   H     H_    0.115424 0.983900 0.673902 0.337379
H18   H     H_    0.872328 0.708523 0.747346 0.323447
H19   H     H_    0.553774 0.828252 0.846122 0.345409
H20   H     H_    0.121551 0.481753 0.275604 0.368096
H21   H     H_    0.830602 0.976185 0.140291 0.151360
H22   H     H_    0.814844 0.019570 0.376947 0.157007
H23   H     H_    0.907452 0.085018 0.216907 0.144842
H24   H     H_    0.908582 0.096776 0.305032 0.139522
H25   H     H_    0.422848 0.564005 0.292285 0.193201
H26   H     H_    0.866516 0.463774 0.223288 0.145018
H27   H     H_    0.887134 0.467233 0.869507 0.164762
O1    O     O_R   0.296680 0.802170 0.437540 -0.426175
O2    O     O_R   0.637200 0.461990 0.052510 -0.466636
O3    O     O_R   0.664790 0.681920 0.057970 -0.438927
O4    O     O_R   0.525380 0.838530 0.443500 -0.438323
O5    O     O_R   0.815840 0.852920 0.961840 -0.492567
O6    O     O_R   0.012100 0.822630 0.963670 -0.513838
O7    O     O_R   0.037010 0.668460 0.953040 -0.492118
O8    O     O_R   0.813390 0.478970 0.949660 -0.499723
O9    O     O_R   0.632250 0.456930 0.945520 -0.433368
O10   O     O_R   0.660200 0.677230 0.958780 -0.452960
O11   O     O_3   0.830870 0.661990 0.006950 -0.323935
O12   O     O_R   0.662610 0.183990 0.557860 -0.449516
O13   O     O_R   0.702130 0.995190 0.446810 -0.529539
O14   O     O_R   0.661770 0.181390 0.458760 -0.496342
O15   O     O_R   0.499820 0.198480 0.455280 -0.474139
O16   O     O_R   0.311660 0.976250 0.449080 -0.498861
O17   O     O_R   0.297580 0.804960 0.544440 -0.466115
O18   O     O_R   0.526220 0.841130 0.542590 -0.482949
O19   O     O_R   0.703030 0.997990 0.553710 -0.463820
O20   O     O_3   0.143320 0.098823 0.216862 -0.670898
O21   O     O_3   0.194119 0.033475 0.386376 -0.681614
O22   O     O_3   0.410330 0.522129 0.197911 -0.566168
O23   O     O_R   0.500730 0.201280 0.562180 -0.441377
O24   O     O_3   0.484174 0.528184 0.781934 -0.612812
O25   O     O_3   0.435094 0.425579 0.685083 -0.646177
O26   O     O_3   0.531208 0.390546 0.608344 -0.605268
O27   O     O_3   0.468284 0.193343 0.191090 -0.663464
O28   O     O_3   0.115824 0.993068 0.709718 -0.654509
O29   O     O_3   0.835607 0.724713 0.776082 -0.714499
O30   O     O_3   0.543852 0.847886 0.813357 -0.590914
O31   O     O_3   0.154789 0.554049 0.297639 -0.599466
O32   O     O_R   0.312500 0.978850 0.548170 -0.504581
O33   O     O_3   0.499990 0.999990 0.500010 -0.296128
O34   O     O_R   0.820790 0.857990 0.068830 -0.521927
O35   O     O_R   0.016700 0.827330 0.062850 -0.498321
O36   O     O_R   0.041970 0.673520 0.060040 -0.498345
O37   O     O_R   0.817980 0.483660 0.048840 -0.486294

loop_
_geom_bond_atom_site_label_1
_geom_bond_atom_site_label_2
_ccdc_geom_bond_type
C15   C18   A    
C66   C68   S    
C63   C65   A    
C28   O18   A    
C8    C83   S    
C1    O13   A    
C35   C36   A    
H9    O20   S    
C87   O8    A    
C25   H24   S    
C6    O31   S    
C32   H25   S    
C61   Cl6   S    
C52   O32   A    
C7    C8    A    
C39   C41   A    
C2    C6    A    
C53   C54   A    
Cr4   O35   S    
C21   C31   A    
C12   C23   A    
Cr2   O13   S    
C26   C27   A    
C72   C77   A    
C85   O34   A    
C35   C37   A    
C3    C7    A    
Cr4   O5    S    
C46   H27   S    
C30   C31   A    
H18   O29   S    
Cr2   O12   S    
Cr5   O36   S    
C2    C11   A    
C75   Cl7   S    
C56   C78   T    
C7    H7    S    
C26   H21   S    
C27   C85   S    
C39   Cl3   S    
C73   O29   S    
Cr3   O16   S    
C46   C47   A    
C61   C66   A    
C9    C19   A    
C5    Cl9   S    
C45   C56   S    
C52   O17   A    
C49   C51   A    
C29   C38   A    
C40   O23   A    
H13   O24   S    
C1    O4    A    
C9    C10   A    
C76   C88   A    
C31   C36   A    
H11   O22   S    
Cr6   O3    S    
C9    O21   S    
C13   C14   A    
H10   O21   S    
H15   O26   S    
H20   O31   S    
C63   O28   S    
C16   O1    A    
C18   H8    S    
H19   O30   S    
C44   H3    S    
C16   C19   S    
Cr4   O34   S    
C72   H5    S    
Cr2   O14   S    
Cr5   O37   S    
C40   C58   S    
C74   C75   A    
C62   C66   A    
C64   C67   T    
C45   C88   A    
C24   C25   A    
C20   H22   S    
C80   C82   T    
C84   O37   A    
Cr4   O6    S    
Cr6   O10   S    
C74   O30   S    
C37   Cl1   S    
C33   O22   S    
C72   C73   A    
Cr1   O18   S    
C4    O15   A    
C48   O26   S    
Cr2   O19   S    
C8    C18   A    
Cr5   O8    S    
C60   C61   A    
C51   C53   A    
C47   C87   S    
C2    C89   A    
C43   C44   A    
C62   C63   A    
C19   C89   A    
C52   C59   S    
Cr3   O15   S    
C47   C57   A    
C20   C38   A    
C77   C81   S    
H14   O25   S    
C23   C34   A    
C84   O2    A    
C73   C79   A    
Cr5   O11   S    
C43   H2    S    
C87   O9    A    
Cr2   O33   S    
C75   C77   A    
C90   O10   A    
C22   C26   A    
C1    C38   S    
C85   O3    A    
C86   O7    A    
Cr3   O32   S    
C48   C49   A    
C59   C69   T    
C60   C65   A    
Cr3   O33   S    
C57   Cl4   S    
C40   O12   A    
C42   C46   A    
C41   C44   A    
C22   C24   A    
C28   C71   S    
C42   C43   A    
C70   C86   S    
C41   C50   A    
C90   O5    A    
C23   H6    S    
Cr1   O1    S    
C15   C17   A    
C21   C25   A    
C54   C55   A    
C11   C17   A    
C76   H1    S    
C14   C15   A    
C12   C45   A    
C3    C5    A    
C10   C13   A    
Cr4   O11   S    
C34   C67   S    
Cr6   O11   S    
C13   H12   S    
C48   C58   A    
Cr1   O17   S    
C22   C36   A    
C83   O36   A    
C4    C64   S    
C50   C55   A    
C82   C90   S    
Cr5   O7    S    
C16   O16   A    
C89   Cl8   S    
C74   C79   A    
C32   C33   A    
C30   C32   A    
C39   C58   A    
C5    C6    A    
C62   H4    S    
C83   O35   A    
C27   C37   A    
C42   C55   A    
C65   C69   S    
C33   C35   A    
C51   O25   S    
C3    C17   A    
C12   O27   S    
C28   O19   A    
Cr6   O9    S    
C10   C11   A    
C86   O6    A    
C29   C30   A    
C79   C80   S    
C60   Cl5   S    
C78   C84   S    
C20   C21   A    
C53   O24   S    
C68   C70   T    
C49   C50   A    
H16   O27   S    
C14   O20   S    
C24   H23   S    
H17   O28   S    
C4    O14   A    
Cr1   O33   S    
C88   H26   S    
Cr3   O23   S    
C29   Cl2   S    
Cr1   O4    S    
C34   C76   A    
Cr6   O2    S    
C71   C81   T    
C54   C57   A    
