data_mof_unit_12611.cif
_audit_creation_date              2012-10-26T17:11:31-0400
_audit_creation_method            fapswitch 2.2
_symmetry_space_group_name_H-M    P1
_symmetry_Int_Tables_number       1
_space_group_crystal_system       triclinic
_cell_length_a                    28.027722
_cell_length_b                    18.746484
_cell_length_c                    16.831685
_cell_angle_alpha                 89.962428
_cell_angle_beta                  62.591342
_cell_angle_gamma                 90.07446
_cell_volume                      7850.96541918

loop_
_atom_site_label
_atom_site_type_symbol
_atom_type_description
_atom_site_fract_x
_atom_site_fract_y
_atom_site_fract_z
_atom_type_partial_charge
C1    C     C_R   0.295029 0.728468 0.329584 0.811421
C2    C     C_R   0.705169 0.272039 0.670334 0.800943
C3    C     C_R   0.705259 0.727982 0.670216 0.828539
C4    C     C_R   0.294818 0.272151 0.329749 0.819793
C5    C     C_R   0.795137 0.228678 0.329521 0.827661
C6    C     C_R   0.205068 0.771857 0.670415 0.814620
C7    C     C_R   0.205205 0.227781 0.670291 0.814202
C8    C     C_R   0.796371 0.769112 0.329227 0.800704
C9    C     C_R   0.411585 0.000820 0.458531 0.063517
C10   C     C_R   0.598697 0.001330 0.508065 0.065678
C11   C     C_R   0.900602 0.500674 0.494642 0.059182
C12   C     C_R   0.088051 0.499892 0.542936 0.065651
C13   C     C_R   0.615791 0.879647 0.453430 -0.215588
C14   C     C_R   0.414504 0.129912 0.458823 -0.209923
C15   C     C_R   0.422072 0.873557 0.430299 -0.212450
C16   C     C_R   0.582249 0.126047 0.551154 -0.209305
C17   C     C_R   0.076957 0.372787 0.573078 -0.212895
C18   C     C_R   0.916944 0.625679 0.452606 -0.212513
C19   C     C_R   0.882751 0.379058 0.550012 -0.215657
C20   C     C_R   0.085503 0.628956 0.541946 -0.214623
C21   C     C_R   0.218875 0.760303 0.953831 0.033240
C22   C     C_R   0.779407 0.236382 0.047144 0.106507
C23   C     C_R   0.787922 0.738770 0.043722 0.093880
C24   C     C_R   0.221486 0.232569 0.952331 0.108437
C25   C     C_R   0.721319 0.263930 0.951587 0.031299
C26   C     C_R   0.277309 0.732883 0.048919 0.107080
C27   C     C_R   0.278005 0.266597 0.048915 0.107722
C28   C     C_R   0.736943 0.706034 0.936589 0.040502
C29   C     C_R   0.220252 0.690442 0.984030 0.096473
C30   C     C_R   0.779101 0.306026 0.015130 0.105609
C31   C     C_R   0.730957 0.742959 0.079918 0.092720
C32   C     C_R   0.269717 0.196030 0.933883 0.087503
C33   C     C_R   0.721530 0.194430 0.983706 0.095394
C34   C     C_R   0.275851 0.802822 0.018734 0.104241
C35   C     C_R   0.229605 0.302746 0.067852 0.091253
C36   C     C_R   0.792703 0.693331 0.902986 0.090446
C37   C     C_R   0.249491 0.677746 0.031403 -0.190555
C38   C     C_R   0.750063 0.318688 0.967357 -0.213707
C39   C     C_R   0.707485 0.731860 0.023578 -0.211410
C40   C     C_R   0.297377 0.213896 0.982538 -0.180022
C41   C     C_R   0.750693 0.181642 0.031121 -0.194111
C42   C     C_R   0.246523 0.815405 0.971515 -0.209220
C43   C     C_R   0.201948 0.284950 0.019189 -0.178364
C44   C     C_R   0.817603 0.712352 0.956031 -0.162630
C45   C     C_R   0.140551 0.821854 0.948916 0.375401
C46   C     C_R   0.854493 0.171467 0.055228 0.371378
C47   C     C_R   0.860364 0.815527 0.051614 0.373077
C48   C     C_R   0.140656 0.179560 0.948702 0.358849
C49   C     C_R   0.642472 0.324868 0.947619 0.380782
C50   C     C_R   0.352898 0.668737 0.056498 0.371997
C51   C     C_R   0.358563 0.321312 0.051873 0.373506
C52   C     C_R   0.660424 0.641852 0.927801 0.364355
C53   C     C_R   0.116731 0.849440 0.897106 -0.094315
C54   C     C_R   0.881281 0.147668 0.104326 -0.141427
C55   C     C_R   0.884062 0.846892 0.102496 -0.149718
C56   C     C_R   0.115339 0.152896 0.898318 -0.162563
C57   C     C_R   0.617499 0.350565 0.896638 -0.090705
C58   C     C_R   0.380587 0.646540 0.104824 -0.143012
C59   C     C_R   0.384252 0.347577 0.101931 -0.162095
C60   C     C_R   0.624779 0.636973 0.889727 -0.088460
C61   C     C_R   0.136880 0.829913 0.807442 -0.311344
C62   C     C_R   0.862929 0.170093 0.192625 -0.288006
C63   C     C_R   0.863679 0.829116 0.192759 -0.272966
C64   C     C_R   0.135783 0.171831 0.808298 -0.270495
C65   C     C_R   0.637057 0.330095 0.807405 -0.311547
C66   C     C_R   0.362718 0.669807 0.192678 -0.288381
C67   C     C_R   0.364094 0.328288 0.191794 -0.276709
C68   C     C_R   0.638430 0.668697 0.807196 -0.305806
C69   C     C_R   0.181999 0.786443 0.766659 -0.058099
C70   C     C_R   0.817917 0.213887 0.233479 -0.059098
C71   C     C_R   0.822239 0.779694 0.232204 -0.053106
C72   C     C_R   0.182486 0.212567 0.766222 -0.056016
C73   C     C_R   0.682573 0.287385 0.766254 -0.056431
C74   C     C_R   0.317392 0.712990 0.233807 -0.051939
C75   C     C_R   0.317484 0.287383 0.233938 -0.060778
C76   C     C_R   0.685767 0.707630 0.763849 -0.061183
C77   C     C_R   0.207277 0.761549 0.816494 -0.249076
C78   C     C_R   0.792215 0.238549 0.184087 -0.284119
C79   C     C_R   0.802936 0.744099 0.180030 -0.308537
C80   C     C_R   0.209750 0.233832 0.814388 -0.296856
C81   C     C_R   0.708780 0.264077 0.815272 -0.259503
C82   C     C_R   0.290901 0.736254 0.185086 -0.283115
C83   C     C_R   0.290204 0.265852 0.185984 -0.288941
C84   C     C_R   0.717380 0.720966 0.807152 -0.234488
C85   C     C_R   0.196511 0.631764 0.527945 0.847982
C86   C     C_R   0.800525 0.368953 0.482367 0.814689
C87   C     C_R   0.803481 0.631745 0.472603 0.843488
C88   C     C_R   0.195785 0.367994 0.530557 0.811810
C89   C     C_R   0.696249 0.131867 0.528567 0.809619
C90   C     C_R   0.304015 0.868174 0.470354 0.841643
C91   C     C_R   0.303668 0.131928 0.471294 0.819450
C92   C     C_R   0.699577 0.869077 0.517309 0.855869
C93   C     C_R   0.187078 0.778972 0.906994 -0.022270
C94   C     C_R   0.810428 0.217564 0.095244 0.016079
C95   C     C_R   0.817723 0.765811 0.092311 0.042270
C96   C     C_R   0.189902 0.215615 0.904501 0.045698
C97   C     C_R   0.689228 0.282479 0.905297 -0.017261
C98   C     C_R   0.308613 0.714441 0.096675 0.014064
C99   C     C_R   0.309830 0.284113 0.096030 0.030299
C100  C     C_R   0.705820 0.687388 0.888073 -0.024104
C101  C     C_R   0.926666 0.902208 0.066182 0.794092
C102  C     C_R   0.072325 0.098782 0.934640 0.801608
C103  C     C_R   0.073126 0.902391 0.933898 0.827073
C104  C     C_R   0.926026 0.096447 0.066765 0.806954
C105  C     C_R   0.427503 0.401406 0.065484 0.789549
C106  C     C_R   0.575902 0.593183 0.931357 0.834133
C107  C     C_R   0.573340 0.402680 0.933741 0.816757
C108  C     C_R   0.425819 0.596121 0.066932 0.812801
C109  C     C_R   0.044617 0.628557 0.517366 0.092970
C110  C     C_R   0.930611 0.376960 0.557008 0.090796
C111  C     C_R   0.959782 0.626870 0.473119 0.100532
C112  C     C_R   0.027949 0.373792 0.568915 0.087749
C113  C     C_R   0.539506 0.127533 0.530166 0.095241
C114  C     C_R   0.470543 0.874456 0.435764 0.103437
C115  C     C_R   0.455048 0.129492 0.484471 0.088313
C116  C     C_R   0.567409 0.877529 0.448458 0.102289
C117  C     C_R   0.026640 0.692409 0.496704 -0.202679
C118  C     C_R   0.946269 0.314970 0.585929 -0.193868
C119  C     C_R   0.985931 0.691143 0.471037 -0.201070
C120  C     C_R   0.995022 0.312973 0.590152 -0.193845
C121  C     C_R   0.513418 0.191795 0.532186 -0.197816
C122  C     C_R   0.502297 0.812988 0.417806 -0.200329
C123  C     C_R   0.472953 0.193216 0.505781 -0.198562
C124  C     C_R   0.550530 0.814933 0.423343 -0.205331
C125  C     C_R   0.975973 0.563499 0.498247 0.020067
C126  C     C_R   0.011011 0.436843 0.544361 0.017251
C127  C     C_R   0.020768 0.563771 0.515044 0.022512
C128  C     C_R   0.963245 0.437750 0.535257 0.025566
C129  C     C_R   0.478703 0.064738 0.487168 0.025702
C130  C     C_R   0.535518 0.938646 0.468510 0.027185
C131  C     C_R   0.523351 0.064366 0.504538 0.023525
C132  C     C_R   0.487861 0.937750 0.459186 0.025855
C133  C     C_R   0.459256 0.000963 0.468514 -0.031162
C134  C     C_R   0.552246 0.001278 0.494667 -0.031540
C135  C     C_R   0.946964 0.500390 0.508204 -0.030658
C136  C     C_R   0.040125 0.499959 0.533715 -0.030980
C137  C     C_R   0.389576 0.935388 0.448367 -0.026389
C138  C     C_R   0.615116 0.064877 0.534104 0.004972
C139  C     C_R   0.629468 0.938456 0.492292 -0.030979
C140  C     C_R   0.387015 0.066351 0.457398 -0.001750
C141  C     C_R   0.869981 0.437756 0.509428 -0.004202
C142  C     C_R   0.113098 0.565503 0.542508 -0.029242
C143  C     C_R   0.109796 0.434620 0.554067 0.000032
C144  C     C_R   0.884025 0.564567 0.469494 -0.036426
C145  C     C_R   0.337489 0.934868 0.451933 -0.158519
C146  C     C_R   0.664097 0.065221 0.540930 -0.231441
C147  C     C_R   0.671828 0.936489 0.517431 -0.152232
C148  C     C_R   0.337016 0.065959 0.453355 -0.221981
C149  C     C_R   0.828427 0.436070 0.482222 -0.204967
C150  C     C_R   0.163489 0.565457 0.544871 -0.156973
C151  C     C_R   0.161941 0.434415 0.550615 -0.228279
C152  C     C_R   0.834998 0.565131 0.462860 -0.156553
C153  C     C_R   0.315300 0.000101 0.443691 0.317912
C154  C     C_R   0.686687 0.999511 0.546136 0.327452
C155  C     C_R   0.813163 0.500013 0.455366 0.314820
C156  C     C_R   0.184809 0.500372 0.556322 0.319854
Cu1   Cu    Cu3+1 0.209920 0.785290 0.495070 0.962915
Cu2   Cu    Cu3+1 0.790080 0.214710 0.504930 0.951920
Cu3   Cu    Cu3+1 0.790080 0.785290 0.504930 0.967101
Cu4   Cu    Cu3+1 0.209920 0.214710 0.495070 0.953890
Cu5   Cu    Cu3+1 0.709920 0.285290 0.495070 0.953952
Cu6   Cu    Cu3+1 0.290080 0.714710 0.504930 0.974401
Cu7   Cu    Cu3+1 0.290080 0.285290 0.504930 0.949280
Cu8   Cu    Cu3+1 0.709920 0.714710 0.495070 0.960464
Cu9   Cu    Cu3+1 0.495240 0.500000 0.924150 0.983849
Cu10  Cu    Cu3+1 0.504760 0.500000 0.075850 1.017624
Cu11  Cu    Cu3+1 0.995240 1.000000 0.924150 0.980176
Cu12  Cu    Cu3+1 0.004760 1.000000 0.075850 1.000269
H1    H     H_    0.573885 0.767019 0.411159 0.143980
H2    H     H_    0.454574 0.243760 0.504585 0.141251
H3    H     H_    0.489882 0.763483 0.399592 0.140135
H4    H     H_    0.525750 0.241267 0.550629 0.140866
H5    H     H_    0.006761 0.264014 0.610608 0.145019
H6    H     H_    0.973509 0.740715 0.453025 0.141709
H7    H     H_    0.921417 0.267473 0.603283 0.143279
H8    H     H_    0.045177 0.742931 0.497756 0.141020
H9    H     H_    0.642486 0.835308 0.423648 0.170822
H10   H     H_    0.408078 0.180761 0.436004 0.178826
H11   H     H_    0.412324 0.825102 0.406376 0.168223
H12   H     H_    0.588225 0.172943 0.582643 0.168400
H13   H     H_    0.086993 0.324370 0.596708 0.169934
H14   H     H_    0.911232 0.672714 0.421094 0.171948
H15   H     H_    0.855705 0.334843 0.579428 0.175947
H16   H     H_    0.092027 0.679688 0.564859 0.178202
H17   H     H_    0.245193 0.868815 0.948090 0.152551
H18   H     H_    0.750849 0.128518 0.056545 0.134885
H19   H     H_    0.860513 0.704564 0.929800 0.143539
H20   H     H_    0.165063 0.312730 0.032790 0.142627
H21   H     H_    0.749716 0.371849 0.942159 0.153815
H22   H     H_    0.250457 0.624377 0.055519 0.131398
H23   H     H_    0.334344 0.186402 0.969061 0.139447
H24   H     H_    0.664288 0.737652 0.050579 0.165504
H25   H     H_    0.118479 0.850879 0.768100 0.195260
H26   H     H_    0.882499 0.151028 0.231047 0.194486
H27   H     H_    0.878954 0.855675 0.233568 0.194185
H28   H     H_    0.116418 0.152436 0.769690 0.193723
H29   H     H_    0.617842 0.349693 0.768668 0.195076
H30   H     H_    0.382958 0.651928 0.230552 0.193398
H31   H     H_    0.383596 0.347538 0.230255 0.195060
H32   H     H_    0.613047 0.661016 0.775025 0.194642
H33   H     H_    0.243760 0.730246 0.784566 0.174355
H34   H     H_    0.756649 0.271597 0.215419 0.169620
H35   H     H_    0.774342 0.701589 0.209893 0.181348
H36   H     H_    0.247166 0.263302 0.781706 0.170079
H37   H     H_    0.745411 0.233085 0.783100 0.169665
H38   H     H_    0.255146 0.768927 0.216630 0.170850
H39   H     H_    0.253061 0.235869 0.218620 0.171121
H40   H     H_    0.751626 0.756533 0.777221 0.167905
O1    O     O_R   0.255040 0.869590 0.478480 -0.509406
O2    O     O_R   0.744960 0.130410 0.521520 -0.549693
O3    O     O_R   0.744960 0.869590 0.521520 -0.510522
O4    O     O_R   0.255040 0.130410 0.478480 -0.548555
O5    O     O_R   0.755040 0.369590 0.478480 -0.549374
O6    O     O_R   0.244960 0.630410 0.521520 -0.509325
O7    O     O_R   0.244960 0.369590 0.521520 -0.547467
O8    O     O_R   0.755040 0.630410 0.478480 -0.513040
O9    O     O_R   0.182050 0.796550 0.624440 -0.594577
O10   O     O_R   0.817950 0.203450 0.375560 -0.582521
O11   O     O_R   0.817950 0.796550 0.375560 -0.598218
O12   O     O_R   0.182050 0.203450 0.624440 -0.590919
O13   O     O_R   0.682050 0.296550 0.624440 -0.591205
O14   O     O_R   0.317950 0.703450 0.375560 -0.596743
O15   O     O_R   0.317950 0.296550 0.375560 -0.589876
O16   O     O_R   0.682050 0.703450 0.624440 -0.583202
O17   O     O_R   0.250530 0.763330 0.367210 -0.591920
O18   O     O_R   0.749470 0.236670 0.632790 -0.606688
O19   O     O_R   0.749470 0.763330 0.632790 -0.591054
O20   O     O_R   0.250530 0.236670 0.367210 -0.595000
O21   O     O_R   0.750530 0.263330 0.367210 -0.591421
O22   O     O_R   0.249470 0.736670 0.632790 -0.589098
O23   O     O_R   0.249470 0.263330 0.632790 -0.595347
O24   O     O_R   0.750530 0.736670 0.367210 -0.605124
O25   O     O_R   0.177260 0.690030 0.513710 -0.622759
O26   O     O_R   0.822740 0.309970 0.486290 -0.601897
O27   O     O_R   0.822740 0.690030 0.486290 -0.620216
O28   O     O_R   0.177260 0.309970 0.513710 -0.595902
O29   O     O_R   0.677260 0.190030 0.513710 -0.596231
O30   O     O_R   0.322740 0.809970 0.486290 -0.613358
O31   O     O_R   0.322740 0.190030 0.486290 -0.605842
O32   O     O_R   0.677260 0.809970 0.513710 -0.618004
O33   O     O_R   0.051640 0.926880 0.885090 -0.608244
O34   O     O_R   0.948360 0.073120 0.114910 -0.598164
O35   O     O_R   0.948360 0.926880 0.114910 -0.587441
O36   O     O_R   0.051640 0.073120 0.885090 -0.584093
O37   O     O_R   0.551640 0.426880 0.885090 -0.612152
O38   O     O_R   0.448360 0.573120 0.114910 -0.596037
O39   O     O_R   0.448360 0.426880 0.114910 -0.588748
O40   O     O_R   0.551640 0.573120 0.885090 -0.598326
O41   O     O_R   0.940620 0.926560 0.986760 -0.570495
O42   O     O_R   0.059380 0.073440 0.013240 -0.565763
O43   O     O_R   0.059380 0.926560 0.013240 -0.513168
O44   O     O_R   0.940620 0.073440 0.986760 -0.556514
O45   O     O_R   0.440620 0.426560 0.986760 -0.572105
O46   O     O_R   0.559380 0.573440 0.013240 -0.523941
O47   O     O_R   0.559380 0.426560 0.013240 -0.511521
O48   O     O_R   0.440620 0.573440 0.986760 -0.555279
O49   O     O_3   0.272231 0.998240 0.425200 -0.689747
H41   H     H_    0.279767 0.033098 0.376460 0.322747
O50   O     O_3   0.723423 0.995782 0.579393 -0.691955
H42   H     H_    0.713954 0.032641 0.626491 0.322498
O51   O     O_3   0.777001 0.500341 0.421024 -0.692091
H43   H     H_    0.789648 0.464479 0.372304 0.321416
O52   O     O_3   0.228186 0.502436 0.574043 -0.689754
H44   H     H_    0.221113 0.467584 0.622604 0.323851
C157  C     C_3   0.190074 0.629209 0.969078 -0.407243
C158  C     C_3   0.130563 0.630262 0.038228 -0.345853
C159  C     C_3   0.100556 0.566612 0.026129 -0.838870
H45   H     H_    0.102968 0.567681 0.958383 0.255547
H46   H     H_    0.117970 0.515870 0.035082 0.249278
H47   H     H_    0.057616 0.568922 0.076808 0.244139
H48   H     H_    0.126908 0.628522 0.106852 0.220812
H49   H     H_    0.111364 0.680033 0.031310 0.230064
H50   H     H_    0.194239 0.631353 0.900266 0.206280
H51   H     H_    0.207910 0.577574 0.974478 0.195604
C160  C     C_3   0.810172 0.367289 0.027948 -0.410735
C161  C     C_3   0.772031 0.421712 0.095207 -0.350790
C162  C     C_3   0.803041 0.484262 0.107149 -0.842458
H52   H     H_    0.831305 0.465080 0.131872 0.256392
H53   H     H_    0.825913 0.512801 0.042604 0.248353
H54   H     H_    0.774456 0.522231 0.156786 0.241202
H55   H     H_    0.743653 0.442775 0.071682 0.225428
H56   H     H_    0.748257 0.395390 0.161093 0.223084
H57   H     H_    0.839072 0.348246 0.051304 0.211313
H58   H     H_    0.834392 0.393740 0.962231 0.199939
C163  C     C_3   0.692173 0.743556 0.178984 -0.423369
C164  C     C_3   0.678462 0.665391 0.210464 -0.334418
C165  C     C_3   0.642526 0.658657 0.310697 -0.830132
H59   H     H_    0.656697 0.693934 0.348540 0.260661
H60   H     H_    0.600631 0.671703 0.325919 0.240635
H61   H     H_    0.643002 0.602661 0.331890 0.245692
H62   H     H_    0.657595 0.639844 0.175396 0.238098
H63   H     H_    0.715680 0.634242 0.192334 0.208386
H64   H     H_    0.707548 0.774001 0.218651 0.206013
H65   H     H_    0.654484 0.771533 0.190838 0.197754
C166  C     C_3   0.292715 0.138231 0.863211 -0.416228
C167  C     C_3   0.261267 0.068054 0.894814 -0.321072
C168  C     C_3   0.283110 0.011873 0.821020 -0.840978
H66   H     H_    0.281477 0.031733 0.760106 0.261685
H67   H     H_    0.325303 0.998433 0.804108 0.254100
H68   H     H_    0.258285 0.962786 0.844000 0.240542
H69   H     H_    0.264374 0.047688 0.954315 0.221730
H70   H     H_    0.218171 0.076518 0.914171 0.244211
H71   H     H_    0.293332 0.156585 0.800091 0.206949
H72   H     H_    0.335346 0.127690 0.846579 0.195414
C169  C     C_3   0.690216 0.133693 0.970607 -0.406730
C170  C     C_3   0.630860 0.136491 0.040333 -0.346344
C171  C     C_3   0.599517 0.074038 0.029158 -0.830454
H73   H     H_    0.601491 0.075527 0.961724 0.253870
H74   H     H_    0.616193 0.022618 0.037940 0.254918
H75   H     H_    0.556752 0.077530 0.080375 0.243158
H76   H     H_    0.627532 0.134528 0.108734 0.222699
H77   H     H_    0.612409 0.186933 0.033411 0.230115
H78   H     H_    0.694058 0.135199 0.901975 0.204674
H79   H     H_    0.707378 0.081745 0.976800 0.199540
C172  C     C_3   0.306271 0.864524 0.032361 -0.410579
C173  C     C_3   0.267602 0.918161 0.100210 -0.347338
C174  C     C_3   0.298038 0.981023 0.112976 -0.836361
H80   H     H_    0.326001 0.962133 0.138480 0.256612
H81   H     H_    0.321191 0.009624 0.048566 0.248035
H82   H     H_    0.269054 0.018867 0.162257 0.246951
H83   H     H_    0.239105 0.938967 0.076802 0.225622
H84   H     H_    0.243985 0.891302 0.165765 0.224300
H85   H     H_    0.335417 0.845922 0.055401 0.212385
H86   H     H_    0.330185 0.891579 0.966958 0.202742
C175  C     C_3   0.207334 0.362007 0.136651 -0.420445
C176  C     C_3   0.157532 0.336886 0.220918 -0.338505
C177  C     C_3   0.137500 0.394394 0.293254 -0.810789
H87   H     H_    0.168843 0.407044 0.314112 0.255782
H88   H     H_    0.126977 0.443644 0.268093 0.249904
H89   H     H_    0.101090 0.374983 0.352706 0.250813
H90   H     H_    0.124751 0.323378 0.203752 0.224372
H91   H     H_    0.167309 0.288253 0.248249 0.225425
H92   H     H_    0.237943 0.382040 0.155661 0.212597
H93   H     H_    0.196477 0.408158 0.106671 0.190819
C178  C     C_3   0.826179 0.657232 0.813735 -0.401187
C179  C     C_3   0.813335 0.577260 0.818260 -0.362049
C180  C     C_3   0.847218 0.541178 0.728342 -0.806741
H94   H     H_    0.838753 0.565318 0.675872 0.260462
H95   H     H_    0.890694 0.546969 0.708660 0.254720
H96   H     H_    0.837257 0.483459 0.733376 0.242124
H97   H     H_    0.821622 0.551435 0.870127 0.216024
H98   H     H_    0.770252 0.568984 0.836768 0.227822
H99   H     H_    0.820036 0.683202 0.760051 0.204594
H100  H     H_    0.869695 0.663332 0.794009 0.195746
O53   O     O_3   0.118300 0.838580 0.039036 -0.726029
H101  H     H_    0.132643 0.806708 0.069789 0.319513
O54   O     O_3   0.870046 0.149774 0.968727 -0.713397
H102  H     H_    0.860366 0.098508 0.972741 0.328871
O55   O     O_3   0.876702 0.834350 0.963833 -0.727199
H103  H     H_    0.915841 0.824858 0.931295 0.322245
O56   O     O_3   0.119812 0.168711 0.039599 -0.729168
H104  H     H_    0.080764 0.178711 0.066538 0.327466
O57   O     O_3   0.621021 0.342840 0.037298 -0.723343
H105  H     H_    0.636469 0.312596 0.067819 0.319579
O58   O     O_3   0.367831 0.645971 0.970585 -0.709229
H106  H     H_    0.359253 0.594294 0.975426 0.327032
O59   O     O_3   0.378863 0.332894 0.961217 -0.724869
H107  H     H_    0.417868 0.322444 0.933517 0.326272
O60   O     O_3   0.650585 0.601046 0.002362 -0.729384
H108  H     H_    0.684505 0.594146 0.006151 0.314456

loop_
_geom_bond_atom_site_label_1
_geom_bond_atom_site_label_2
_ccdc_geom_bond_type
O59   H107  S    
C22   C94   S    
C34   C42   A    
C105  O45   A    
C153  O49   S    
C16   C113  A    
C110  C118  A    
C163  H64   S    
C180  H94   S    
C27   C99   S    
C3    O16   A    
C164  H62   S    
C85   O25   A    
C13   C139  A    
C24   C96   S    
C34   C172  S    
Cu6   O30   S    
C108  O38   A    
C87   O27   A    
C30   C38   A    
C178  H100  S    
C109  C127  A    
Cu12  O34   S    
C36   C178  S    
C111  C125  A    
C165  H60   S    
C176  C177  S    
C51   O59   S    
Cu2   O18   S    
C20   H16   S    
C125  C135  A    
C143  C151  A    
C173  H84   S    
C30   C160  S    
C19   C141  A    
C92   C147  S    
C82   C98   A    
C130  C134  A    
Cu4   O4    S    
C73   C81   A    
C115  C123  A    
C90   O30   A    
C84   C100  A    
Cu4   Cu7   S    
C127  C136  A    
C128  C135  A    
C112  C120  A    
C27   C35   A    
C21   C29   A    
C2    O13   A    
C169  H79   S    
C173  C174  S    
C23   C31   A    
C174  H82   S    
C24   C32   A    
C5    C70   S    
C6    O9    A    
Cu8   O16   S    
O58   H106  S    
C146  C154  A    
Cu2   O10   S    
C170  C171  S    
C86   O26   A    
C50   O58   S    
Cu5   O21   S    
C167  C168  S    
C63   C71   A    
C36   C44   A    
C102  O36   A    
C148  C153  A    
C62   H26   S    
C180  H96   S    
Cu7   O31   S    
C2    O18   A    
C32   C166  S    
C54   C104  S    
Cu12  O43   S    
C8    C71   S    
C48   C96   A    
C16   C138  A    
C179  C180  S    
Cu8   O24   S    
Cu9   O48   S    
C103  O43   A    
C117  C119  A    
C149  C155  A    
C21   C93   S    
C78   C94   A    
C23   C95   S    
C118  C120  A    
C121  C123  A    
C49   C97   A    
C21   C42   A    
C155  O51   S    
C116  C130  A    
Cu4   O28   S    
O60   H108  S    
C125  C127  A    
C24   C43   A    
C10   C138  A    
Cu1   Cu6   S    
C110  C128  A    
C15   C137  A    
C9    C133  A    
C6    C69   S    
Cu1   O1    S    
O55   H103  S    
C104  O44   A    
C15   H11   S    
C69   C77   A    
O56   H104  S    
C45   C93   A    
C71   C79   A    
Cu3   O3    S    
C167  H70   S    
C62   C70   A    
C161  H56   S    
C1    C74   S    
C158  H48   S    
C119  H6    S    
O51   H43   S    
C25   C38   A    
C9    C140  A    
C104  O34   A    
C66   C74   A    
C49   C57   A    
C111  C119  A    
O49   H41   S    
C83   H39   S    
C52   C60   A    
C59   C67   A    
C53   C61   A    
Cu5   O13   S    
C87   O8    A    
C56   C64   A    
C160  H57   S    
C37   H22   S    
C45   C53   A    
C162  H52   S    
C168  H67   S    
C175  H93   S    
C9    C137  A    
C50   C98   A    
Cu10  O38   S    
C7    C72   S    
C177  H88   S    
C52   C100  A    
Cu11  O44   S    
C178  C179  S    
C3    C76   S    
C48   O56   S    
C172  H86   S    
C84   H40   S    
C46   C94   A    
C27   C40   A    
Cu10  O47   S    
C107  O47   A    
C66   H30   S    
C11   C141  A    
C60   C68   A    
C14   H10   S    
C2    C73   S    
C7    O12   A    
C42   H17   S    
C25   C97   S    
C14   C140  A    
C87   C152  S    
C6    O22   A    
C176  H91   S    
C88   C151  S    
C67   C75   A    
C122  C124  A    
C61   H25   S    
C82   H38   S    
C60   C106  S    
C166  H71   S    
Cu6   O6    S    
C157  H50   S    
C92   O32   A    
C126  C128  A    
C22   C30   A    
Cu3   O27   S    
C101  O41   A    
C77   H33   S    
C90   O1    A    
C159  H45   S    
C68   C76   A    
C4    O15   A    
Cu12  O42   S    
C170  H76   S    
C12   C143  A    
C164  H63   S    
C171  H75   S    
C56   C102  S    
C144  C152  A    
C8    O11   A    
C85   O6    A    
Cu2   O26   S    
Cu4   O12   S    
C138  C146  A    
C64   H28   S    
C41   H18   S    
Cu9   O45   S    
C123  H2    S    
C44   H19   S    
C126  C136  A    
C17   H13   S    
C121  H4    S    
C113  C121  A    
C161  C162  S    
C122  H3    S    
C12   C136  A    
C162  H54   S    
Cu3   Cu8   S    
C16   H12   S    
C25   C33   A    
C88   O7    A    
C29   C157  S    
C106  O46   A    
C160  C161  S    
C131  C134  A    
C76   C84   A    
O57   H105  S    
C109  C117  A    
O52   H44   S    
C7    O23   A    
Cu8   O8    S    
C59   C105  S    
C137  C145  A    
C90   C145  S    
C67   H31   S    
C115  C129  A    
C22   C41   A    
Cu5   O29   S    
C14   C115  A    
C169  H78   S    
C174  H81   S    
C85   C150  S    
C105  O39   A    
C4    C75   S    
Cu2   Cu5   S    
Cu7   O7    S    
C124  H1    S    
Cu11  O33   S    
C163  H65   S    
C112  C126  A    
Cu1   O17   S    
C47   C55   A    
C172  C173  S    
C83   C99   A    
C108  O48   A    
C31   C163  S    
Cu9   O40   S    
C74   C82   A    
C178  H99   S    
C180  H95   S    
C171  H73   S    
C50   C58   A    
C89   O29   A    
C35   C175  S    
O54   H102  S    
C54   C62   A    
C28   C39   A    
C23   C44   A    
Cu4   O20   S    
C1    O14   A    
C130  C132  A    
C52   O60   S    
C79   C95   A    
C163  C164  S    
C11   C135  A    
C5    O10   A    
C152  C155  A    
C38   H21   S    
C46   C54   A    
Cu1   O9    S    
C165  H61   S    
C151  C156  A    
C18   C111  A    
Cu6   O22   S    
C173  H83   S    
Cu3   O11   S    
C63   H27   S    
C10   C139  A    
C3    O19   A    
Cu11  Cu12  S    
C1    O17   A    
C116  C124  A    
C57   C65   A    
C26   C37   A    
C17   C143  A    
C33   C41   A    
C142  C150  A    
C18   C144  A    
C177  H87   S    
C158  H49   S    
C39   H24   S    
C159  H46   S    
C75   C83   A    
C80   H36   S    
C40   H23   S    
C43   H20   S    
C53   C103  S    
C13   H9    S    
C77   C93   A    
C159  H47   S    
C12   C142  A    
C58   C108  S    
C4    O20   A    
C175  C176  S    
C13   C116  A    
C28   C36   A    
C72   C80   A    
C169  C170  S    
C29   C37   A    
C46   O54   S    
C106  O40   A    
C154  O50   S    
Cu2   O2    S    
Cu9   Cu10  S    
C70   C78   A    
C168  H66   S    
C175  H92   S    
C140  C148  A    
C47   O55   S    
C141  C149  A    
C139  C147  A    
Cu10  O39   S    
Cu7   O23   S    
C164  C165  S    
Cu12  O35   S    
C161  H55   S    
C18   H14   S    
C65   C73   A    
C147  C154  A    
C172  H85   S    
C58   C66   A    
Cu6   O14   S    
C132  C133  A    
C166  C167  S    
C179  H98   S    
Cu3   O19   S    
C80   C96   A    
C11   C144  A    
C145  C153  A    
C28   C100  S    
C32   C40   A    
C150  C156  A    
C103  O33   A    
C91   C148  S    
C26   C34   A    
C51   C99   A    
C89   C146  S    
C88   O28   A    
C49   O57   S    
C20   C142  A    
Cu9   O37   S    
C86   C149  S    
C19   H15   S    
C78   H34   S    
C170  H77   S    
C55   C63   A    
C171  H74   S    
Cu8   O32   S    
C179  H97   S    
C5    O21   A    
C156  O52   S    
C157  H51   S    
C15   C114  A    
C160  H58   S    
C26   C98   S    
C65   H29   S    
C117  H8    S    
C57   C107  S    
C118  H7    S    
C79   H35   S    
C162  H53   S    
C165  H59   S    
C168  H68   S    
C129  C133  A    
C51   C59   A    
C33   C169  S    
O50   H42   S    
C17   C112  A    
C35   C43   A    
C81   H37   S    
C157  C158  S    
C19   C110  A    
C61   C69   A    
C48   C56   A    
Cu5   O5    S    
C113  C131  A    
C102  O42   A    
C114  C132  A    
C107  O37   A    
C10   C134  A    
C91   O4    A    
C177  H89   S    
C89   O2    A    
Cu7   O15   S    
C45   O53   S    
C55   C101  S    
Cu11  O41   S    
C68   H32   S    
C86   O5    A    
C167  H69   S    
C8    O24   A    
Cu1   O25   S    
C81   C97   A    
Cu10  O46   S    
C31   C39   A    
C64   C72   A    
C174  H80   S    
C101  O35   A    
C158  C159  S    
C20   C109  A    
C114  C122  A    
C120  H5    S    
Cu11  O36   S    
C91   O31   A    
C176  H90   S    
C47   C95   A    
C92   O3    A    
O53   H101  S    
C166  H72   S    
C129  C131  A    
