data_mof_unit_30606.cif
_audit_creation_date              2013-03-05T16:44:17-0500
_audit_creation_method            fapswitch 2.2
_symmetry_space_group_name_H-M    P1
_symmetry_Int_Tables_number       1
_space_group_crystal_system       triclinic
_cell_length_a                    23.38197
_cell_length_b                    10.679433
_cell_length_c                    9.843715
_cell_angle_alpha                 90.054115
_cell_angle_beta                  90.238609
_cell_angle_gamma                 90.398831
_cell_volume                      2457.95445933

loop_
_atom_site_label
_atom_site_type_symbol
_atom_site_description
_atom_site_fract_x
_atom_site_fract_y
_atom_site_fract_z
_atom_type_partial_charge
O1    O     O_R   0.500010 0.316790 0.614690 -0.614865
O2    O     O_R   0.500000 0.316760 0.385350 -0.633518
C1    C     C_R   0.498507 0.259957 0.499943 0.856541
O3    O     O_R   0.416160 0.499980 0.614700 -0.621171
O4    O     O_R   0.416150 0.499940 0.385360 -0.622867
C2    C     C_R   0.389187 0.500135 0.499757 0.904549
Zn1   Zn    Zn3+2 0.500000 0.500020 0.653130 0.955091
Zn2   Zn    Zn3+2 0.500000 0.499980 0.346870 0.964025
O5    O     O_R   0.500000 0.683240 0.614650 -0.620730
O6    O     O_R   0.499990 0.683210 0.385310 -0.631412
O7    O     O_R   0.583850 0.500060 0.614640 -0.621763
O8    O     O_R   0.583840 0.500020 0.385300 -0.573325
C3    C     C_R   0.498742 0.740103 0.500018 0.886335
C4    C     C_R   0.610514 0.497366 0.500285 0.910144
C5    C     C_R   0.877586 0.567994 0.448371 0.586938
N1    N     N_R   0.851242 0.460978 0.492806 -0.330598
C6    C     C_R   0.881279 0.356289 0.527282 0.578469
C7    C     C_R   0.941007 0.358182 0.522725 -0.022922
C8    C     C_R   0.969023 0.469248 0.482245 -0.010963
C9    C     C_R   0.937142 0.574831 0.443313 -0.021474
C10   C     C_R   0.973218 0.253167 0.560063 -0.136751
C11   C     C_R   0.032737 0.259016 0.559622 -0.130516
C12   C     C_R   0.060999 0.370077 0.522183 -0.019140
C13   C     C_R   0.029061 0.475316 0.482334 -0.010069
C14   C     C_R   0.057004 0.587125 0.444100 -0.020782
C15   C     C_R   0.024837 0.691119 0.403436 -0.130798
C16   C     C_R   0.965376 0.684944 0.402800 -0.125630
C17   C     C_R   0.120605 0.379495 0.524765 0.574687
N2    N     N_R   0.146814 0.489863 0.490650 -0.342954
C18   C     C_R   0.116642 0.592242 0.449305 0.576213
O9    O     O_2   0.846043 0.667597 0.410616 -0.531117
O10   O     O_2   0.853351 0.251926 0.567941 -0.541257
H1    H     H_    0.952590 0.166705 0.590959 0.200291
H2    H     H_    0.056459 0.176855 0.590072 0.201500
O11   O     O_2   0.152273 0.279801 0.561500 -0.528930
O12   O     O_2   0.144423 0.698756 0.414981 -0.526962
H3    H     H_    0.045443 0.777789 0.373135 0.197905
H4    H     H_    0.941670 0.767074 0.372172 0.198727
C19   C     C_R   0.237765 0.493922 0.374249 -0.125403
H5    H     H_    0.215047 0.488244 0.278289 0.182750
C20   C     C_R   0.296957 0.495563 0.375275 -0.188099
H6    H     H_    0.319259 0.492320 0.279278 0.171885
C21   C     C_R   0.326741 0.500229 0.498918 -0.105782
C22   C     C_R   0.296543 0.505105 0.621658 -0.276310
H7    H     H_    0.319457 0.510760 0.717259 0.191192
C23   C     C_R   0.236766 0.505004 0.622029 0.369768
C24   C     C_R   0.207576 0.497942 0.496309 0.187041
C25   C     C_R   0.758379 0.396323 0.406644 -0.225692
H8    H     H_    0.779697 0.342268 0.328895 0.183682
C26   C     C_R   0.699083 0.403222 0.406623 0.480453
C27   C     C_R   0.672141 0.481720 0.501913 -0.216023
C28   C     C_R   0.704186 0.541769 0.603446 -0.348302
H9    H     H_    0.682761 0.598221 0.679041 0.211899
C29   C     C_R   0.763584 0.530634 0.607387 0.373834
C30   C     C_R   0.790582 0.459930 0.505062 0.126708
C31   C     C_R   0.491672 0.064049 0.622969 0.137658
C32   C     C_R   0.490528 0.128430 0.500254 -0.103748
C33   C     C_R   0.479447 0.064270 0.378558 -0.227893
H10   H     H_    0.474581 0.112960 0.282811 0.166588
C34   C     C_R   0.479444 0.934931 0.378683 -0.219710
H11   H     H_    0.474448 0.885770 0.282997 0.173695
C35   C     C_R   0.490671 0.871482 0.500475 -0.102459
C36   C     C_R   0.491706 0.936378 0.623162 0.150610
C37   C     C_3   0.533539 0.930483 0.738280 -0.493746
C38   C     C_3   0.533561 0.072387 0.737801 -0.472035
H12   H     H_    0.514124 0.890008 0.831432 0.203955
H13   H     H_    0.575230 0.889484 0.708257 0.207661
H14   H     H_    0.514314 0.113478 0.830653 0.205225
H15   H     H_    0.575219 0.114321 0.707082 0.204953
C39   C     C_R   0.479683 0.398628 0.070943 0.208133
N3    N     N_R   0.499610 0.499140 0.142800 -0.107192
C40   C     C_R   0.525320 0.594329 0.072403 -0.099340
H16   H     H_    0.544834 0.671545 0.127079 0.149536
C41   C     C_R   0.525439 0.594164 0.928279 -0.113981
H17   H     H_    0.545296 0.670833 0.874125 0.146853
N4    N     N_R   0.499610 0.499180 0.857150 -0.107126
C42   C     C_R   0.479687 0.398680 0.928284 0.203434
C43   C     C_3   0.420614 0.345851 0.921458 -0.475127
C44   C     C_3   0.420504 0.346022 0.075741 -0.492804
H18   H     H_    0.389433 0.412176 0.876478 0.227455
H19   H     H_    0.419752 0.250184 0.876879 0.203699
H20   H     H_    0.389342 0.412625 0.119696 0.221266
H21   H     H_    0.419333 0.250427 0.120108 0.198756
O13   O     O_3   0.668575 0.339128 0.307292 -0.618670
C45   C     C_3   0.641547 0.232157 0.363998 0.102854
H22   H     H_    0.602258 0.213146 0.303376 0.181985
H23   H     H_    0.627414 0.245635 0.471110 0.098759
C46   C     C_3   0.680359 0.117605 0.354716 -0.358321
H24   H     H_    0.693879 0.103973 0.247636 0.248045
H25   H     H_    0.719177 0.132982 0.418226 0.243675
C47   C     C_3   0.649467 0.999651 0.403808 -0.901059
H26   H     H_    0.635953 0.010858 0.511143 0.260447
H27   H     H_    0.678645 0.918316 0.397091 0.287238
H28   H     H_    0.611187 0.980395 0.339712 0.261391
N5    N     N_R   0.795801 0.592686 0.713258 0.229740
O14   O     O_R   0.844936 0.549365 0.753279 -0.364188
O15   O     O_R   0.773926 0.686854 0.778507 -0.358414
N6    N     N_R   0.206665 0.512246 0.749271 0.222440
O16   O     O_R   0.155999 0.561453 0.755745 -0.362984
O17   O     O_R   0.231723 0.478739 0.861707 -0.381759

loop_
_geom_bond_atom_site_label_1
_geom_bond_atom_site_label_2
_geom_bond_distance
_ccdc_geom_bond_type
C25   C30   1.397340 A    
C7    C10   1.403679 A    
C20   H6    1.081854 S    
C8    C9    1.408577 A    
C44   H20   1.110536 S    
C26   O13   1.385478 S    
C19   C20   1.384000 A    
C42   C43   1.489609 S    
C22   H7    1.082379 S    
Zn1   O7    1.998398 S    
C15   C16   1.391412 A    
C35   C36   1.391896 A    
C41   N4    1.367684 A    
N2    C24   1.423615 S    
C17   N2    1.367470 A    
O4    C2    1.292863 A    
O7    C4    1.289463 A    
C43   H18   1.111036 S    
C10   H1    1.083180 S    
C16   H4    1.083193 S    
C33   C34   1.381262 A    
C31   C38   1.494781 S    
C31   C32   1.390751 A    
C34   C35   1.402411 A    
C7    C8    1.409618 A    
O5    C3    1.282266 A    
C29   C30   1.411991 A    
O13   C45   1.417793 S    
C3    C35   1.416993 S    
N5    O14   1.301197 A    
C17   O11   1.349824 S    
C28   C29   1.395139 A    
N1    C6    1.366764 A    
C12   C13   1.408821 A    
C39   N3    1.363266 A    
C25   C26   1.388906 A    
C23   N6    1.441556 S    
C10   C11   1.392672 A    
C39   C42   1.404295 A    
C20   C21   1.400424 A    
O3    Zn1   1.994960 S    
C22   C23   1.397726 A    
C6    C7    1.397478 A    
C45   H23   1.115762 S    
C5    C9    1.395036 A    
C11   H2    1.083177 S    
C41   H17   1.080615 S    
C27   C28   1.399089 A    
C37   H13   1.112407 S    
C13   C14   1.409372 A    
C40   C41   1.418727 A    
C47   H26   1.110678 S    
C43   C44   1.518724 S    
C14   C15   1.403327 A    
C45   H22   1.110794 S    
C34   H11   1.083411 S    
O1    C1    1.282007 A    
C37   H12   1.111403 S    
C21   C22   1.403054 A    
N2    C18   1.366714 A    
C47   H27   1.110320 S    
C4    C27   1.451776 S    
C46   C47   1.527571 S    
Zn2   O8    1.994958 S    
C38   H14   1.111716 S    
C26   C27   1.410779 A    
C31   C36   1.363462 A    
C12   C17   1.396760 A    
N4    C42   1.362514 A    
C29   N5    1.441495 S    
C1    C32   1.415688 S    
O3    C2    1.293082 A    
C25   H8    1.083426 S    
O8    C4    1.290500 A    
N6    O17   1.301755 A    
C2    C21   1.460086 S    
C19   H5    1.083232 S    
C28   H9    1.083798 S    
C19   C24   1.396838 A    
C45   C46   1.531160 S    
C14   C18   1.395881 A    
Zn1   O5    1.993365 S    
C23   C24   1.412486 A    
Zn2   N3    2.008801 S    
C39   C44   1.490725 S    
O1    Zn1   1.992693 S    
O2    Zn2   1.993362 S    
C46   H25   1.111121 S    
C40   H16   1.081548 S    
O6    C3    1.282270 A    
O4    Zn2   1.998399 S    
N5    O15   1.301613 A    
C15   H3    1.083199 S    
C5    O9    1.350155 S    
Zn1   N4    2.008402 S    
C9    C16   1.403560 A    
C18   O12   1.349923 S    
C37   C38   1.515461 S    
O2    C1    1.281788 A    
C33   H10   1.082819 S    
N1    C30   1.423930 S    
N3    C40   1.367946 A    
C47   H28   1.110869 S    
C44   H21   1.110980 S    
C43   H19   1.111566 S    
C32   C33   1.401815 A    
C38   H15   1.112390 S    
C8    C13   1.404854 A    
C36   C37   1.495528 S    
C46   H24   1.111440 S    
Zn2   O6    1.992694 S    
N6    O16   1.301116 A    
C6    O10   1.349700 S    
C11   C12   1.403993 A    
C5    N1    1.367590 A    
