data_mof_unit_10839.cif
_audit_creation_date              2012-12-11T15:29:42-0500
_audit_creation_method            fapswitch 2.2
_symmetry_space_group_name_H-M    P1
_symmetry_Int_Tables_number       1
_space_group_crystal_system       triclinic
_cell_length_a                    21.389897
_cell_length_b                    7.282968
_cell_length_c                    14.889914
_cell_angle_alpha                 90.009446
_cell_angle_beta                  74.051444
_cell_angle_gamma                 90.013972
_cell_volume                      2230.29612601

loop_
_atom_site_label
_atom_site_type_symbol
_atom_type_description
_atom_site_fract_x
_atom_site_fract_y
_atom_site_fract_z
_atom_type_partial_charge
O1    O     O_R   0.464160 0.506670 0.130070 -0.534799
O2    O     O_R   0.535840 0.006670 0.869930 -0.536087
O3    O     O_R   0.589710 0.179080 0.006710 -0.544069
O4    O     O_R   0.410290 0.679080 0.993290 -0.544204
C1    C     C_R   0.616037 0.344512 0.002936 0.647488
C2    C     C_R   0.384186 0.844254 0.995730 0.647469
O5    O     O_R   0.467940 0.177220 0.138010 -0.539852
O6    O     O_R   0.532060 0.677220 0.861990 -0.538169
O7    O     O_R   0.413200 0.002810 0.002170 -0.540419
O8    O     O_R   0.586800 0.502810 0.997830 -0.540404
C3    C     C_R   0.456459 0.345293 0.174151 0.684743
C4    C     C_R   0.543997 0.845128 0.825954 0.685372
O9    O     O_3   0.482180 0.337850 0.955280 -0.377979
O10   O     O_3   0.517820 0.837850 0.044720 -0.377577
V1    V     V_3+5 0.503310 0.064600 0.008300 1.391167
V2    V     V_3+5 0.496690 0.564600 0.991700 1.392643
C5    C     C_R   0.571786 0.849109 0.724660 -0.045978
C6    C     C_R   0.428907 0.351348 0.275547 -0.054164
C7    C     C_R   0.928447 0.867418 0.274886 -0.025544
C8    C     C_R   0.072137 0.366606 0.725468 -0.023341
C9    C     C_R   0.559300 0.814462 0.569501 -0.168757
C10   C     C_R   0.442033 0.373052 0.430929 -0.168929
C11   C     C_R   0.531981 0.822765 0.665675 -0.168831
C12   C     C_R   0.469213 0.364351 0.334622 -0.169008
C13   C     C_R   0.639216 0.861087 0.687609 -0.210977
C14   C     C_R   0.361528 0.341904 0.312899 -0.236410
C15   C     C_R   0.668856 0.838472 0.590665 0.074327
C16   C     C_R   0.332356 0.343681 0.410714 0.086460
C17   C     C_R   0.627041 0.824009 0.531620 0.143851
C18   C     C_R   0.374232 0.365767 0.469193 0.141949
C19   C     C_R   0.738112 0.835864 0.550069 -0.054177
C20   C     C_R   0.263229 0.333603 0.451898 -0.049095
C21   C     C_R   0.763408 0.843149 0.450486 0.011868
C22   C     C_R   0.237600 0.362377 0.550347 0.001786
C23   C     C_R   0.719244 0.836474 0.395207 -0.165176
C24   C     C_R   0.281584 0.388878 0.604788 -0.166359
C25   C     C_R   0.652794 0.821965 0.435126 -0.205992
C26   C     C_R   0.348322 0.386211 0.565150 -0.206164
C27   C     C_R   0.783296 0.818347 0.604360 0.407212
C28   C     C_R   0.218407 0.293624 0.399228 0.394335
C29   C     C_R   0.849253 0.851717 0.564103 -0.293063
C30   C     C_R   0.151985 0.318151 0.437862 -0.286859
C31   C     C_R   0.874132 0.867778 0.468068 0.074259
C32   C     C_R   0.126593 0.348525 0.532790 0.069591
C33   C     C_R   0.832155 0.854370 0.409357 0.080948
C34   C     C_R   0.168694 0.361684 0.591357 0.079186
C35   C     C_R   0.941566 0.887018 0.430093 -0.144579
C36   C     C_R   0.058790 0.352331 0.570396 -0.143665
C37   C     C_R   0.968516 0.888245 0.333870 -0.173075
C38   C     C_R   0.031702 0.361820 0.666404 -0.174761
C39   C     C_R   0.861119 0.851884 0.311700 -0.197308
C40   C     C_R   0.139742 0.368876 0.688887 -0.197307
H1    H     H_    0.621024 0.813721 0.389673 0.117729
H2    H     H_    0.380034 0.405944 0.610018 0.117721
H3    H     H_    0.833230 0.838008 0.261872 0.084386
H4    H     H_    0.167959 0.371486 0.738715 0.083703
H5    H     H_    0.020623 0.903344 0.305367 0.097453
H6    H     H_    0.979298 0.362208 0.694751 0.094471
H7    H     H_    0.881899 0.850205 0.608441 0.136432
H8    H     H_    0.119593 0.293151 0.394441 0.142120
H9    H     H_    0.527420 0.799459 0.524567 0.116120
H10   H     H_    0.474064 0.388032 0.475640 0.116795
H11   H     H_    0.479779 0.810505 0.694096 0.099827
H12   H     H_    0.521536 0.370843 0.306105 0.100785
H13   H     H_    0.666681 0.892707 0.736322 0.167538
H14   H     H_    0.333316 0.344389 0.263209 0.172048
H15   H     H_    0.734236 0.841214 0.320120 0.114101
H16   H     H_    0.266092 0.414316 0.678822 0.115242
H17   H     H_    0.973595 0.898677 0.475001 0.114979
H18   H     H_    0.026661 0.343137 0.525523 0.115147
C41   C     C_3   0.214498 0.661989 0.983521 -0.311028
C42   C     C_3   0.770144 0.286615 0.094105 -0.312680
H19   H     H_    0.186571 0.572991 0.041542 0.146606
H20   H     H_    0.786411 0.145408 0.105307 0.135906
H21   H     H_    0.208230 0.604483 0.917251 0.131321
H22   H     H_    0.776483 0.373234 0.152551 0.127315
C43   C     C_3   0.287213 0.655714 0.980570 -0.313791
C44   C     C_3   0.696930 0.281999 0.096378 -0.327258
H23   H     H_    0.315689 0.598120 0.912329 0.133664
H24   H     H_    0.668448 0.368630 0.154972 0.122768
H25   H     H_    0.293409 0.560960 0.036185 0.144798
H26   H     H_    0.678325 0.139079 0.109962 0.137928
H27   H     H_    0.168216 0.853839 0.149852 0.115221
H28   H     H_    0.820169 0.098028 0.927071 0.151504
H29   H     H_    0.275866 0.832290 0.144702 0.135288
H30   H     H_    0.712446 0.084790 0.933500 0.151719
C45   C     C_3   0.197910 0.935697 0.090166 -0.322386
C46   C     C_3   0.802223 0.239275 0.920111 -0.325725
C47   C     C_3   0.230042 0.980312 0.916201 -0.317467
C48   C     C_3   0.786367 0.558523 0.986229 -0.313291
C49   C     C_3   0.187871 0.861929 0.997547 0.119317
C50   C     C_3   0.812518 0.363593 0.999498 0.117656
H31   H     H_    0.212779 0.125124 0.923413 0.139360
H32   H     H_    0.815289 0.618668 0.918904 0.138304
H33   H     H_    0.224827 0.928477 0.848326 0.128441
H34   H     H_    0.791721 0.651423 0.043057 0.139359
C51   C     C_3   0.313137 0.850630 0.994606 0.111612
C52   C     C_3   0.687238 0.352240 0.002675 0.114102
C53   C     C_3   0.270622 0.925895 0.088709 -0.318842
C54   C     C_3   0.729113 0.230017 0.923303 -0.319091
C55   C     C_3   0.303024 0.975536 0.915262 -0.324452
C56   C     C_3   0.714062 0.551651 0.987294 -0.318353
H35   H     H_    0.332866 0.924112 0.846453 0.121905
H36   H     H_    0.685627 0.642648 0.043986 0.141320
H37   H     H_    0.319712 0.117559 0.923851 0.144613
H38   H     H_    0.708513 0.606666 0.920200 0.148871
H39   H     H_    0.287705 0.064528 0.102783 0.156661
H40   H     H_    0.722364 0.275679 0.855801 0.135490
O11   O     O_R   0.913210 0.208550 0.002110 -0.538592
O12   O     O_R   0.086790 0.708550 0.997890 -0.539716
O13   O     O_R   0.032060 0.539960 0.861980 -0.539638
O14   O     O_R   0.967940 0.039960 0.138020 -0.538460
C57   C     C_R   0.044142 0.372924 0.826116 0.683264
C58   C     C_R   0.956109 0.872935 0.174004 0.685240
O15   O     O_R   0.910290 0.538020 0.993280 -0.545450
O16   O     O_R   0.089710 0.038020 0.006720 -0.544793
O17   O     O_R   0.964160 0.712340 0.130090 -0.536025
O18   O     O_R   0.035840 0.212340 0.869910 -0.536342
C59   C     C_R   0.884042 0.370151 0.998077 0.640034
C60   C     C_R   0.116188 0.869920 0.000370 0.640980
O19   O     O_3   0.017820 0.379210 0.044690 -0.376970
O20   O     O_3   0.982180 0.879210 0.955310 -0.377745
V3    V     V_3+5 0.996690 0.652500 0.991710 1.393199
V4    V     V_3+5 0.003310 0.152500 0.008290 1.395831
H41   H     H_    0.180982 0.080530 0.101383 0.151797
H42   H     H_    0.830857 0.293086 0.851149 0.115240
O21   O     O_3   0.764677 0.757499 0.695873 -0.587306
C61   C     C_3   0.782514 0.570744 0.698714 0.055704
H43   H     H_    0.785810 0.540507 0.770167 0.127250
H44   H     H_    0.831791 0.539930 0.651733 0.123041
C62   C     C_3   0.731060 0.444185 0.677514 -0.321888
H45   H     H_    0.687647 0.438619 0.739012 0.185649
H46   H     H_    0.715020 0.496098 0.617573 0.211176
C63   C     C_3   0.757864 0.252374 0.651902 -0.825131
H47   H     H_    0.777561 0.192804 0.707029 0.236415
H48   H     H_    0.796980 0.255386 0.585010 0.236755
H49   H     H_    0.717845 0.165319 0.642702 0.240919
O22   O     O_3   0.236643 0.203517 0.314686 -0.587059
C64   C     C_3   0.235217 0.011879 0.331400 0.059479
H50   H     H_    0.211426 0.945291 0.282643 0.138937
H51   H     H_    0.205826 0.969254 0.402764 0.116558
C65   C     C_3   0.304594 0.940877 0.314077 -0.326907
H52   H     H_    0.334402 0.981973 0.243401 0.202534
H53   H     H_    0.326769 0.998362 0.366920 0.211019
C66   C     C_3   0.306205 0.735182 0.323628 -0.832251
H54   H     H_    0.284473 0.665493 0.273136 0.226283
H55   H     H_    0.279410 0.695136 0.395839 0.240673
H56   H     H_    0.357897 0.694813 0.309918 0.251442

loop_
_geom_bond_atom_site_label_1
_geom_bond_atom_site_label_2
_ccdc_geom_bond_type
H27   C45   S    
C3    C6    S    
O4    V2    S    
C45   C49   S    
C15   C17   A    
C21   C33   A    
O1    C3    A    
C45   H41   S    
C42   H22   S    
C62   C63   S    
O2    C4    A    
C61   H43   S    
C63   H49   S    
O14   C58   A    
C66   H54   S    
C27   C29   A    
O5    C3    A    
C5    C11   A    
C6    C12   A    
C10   C12   A    
C23   C25   A    
C50   C59   S    
O14   V4    S    
C8    C57   S    
C42   C50   S    
C64   C65   S    
C44   H24   S    
C11   H11   S    
C33   C39   A    
C34   C40   A    
C37   H5    S    
C18   C26   A    
C7    C37   A    
C35   H17   S    
O19   V4    S    
C8    C38   A    
C51   C53   S    
C48   C56   S    
C46   C50   S    
C16   C18   A    
C6    C14   A    
C4    C5    S    
C44   C52   S    
C42   C44   S    
C19   C21   A    
C43   C51   S    
C22   C34   A    
C23   H15   S    
C47   C49   S    
H30   C54   S    
C9    H9    S    
C25   H1    S    
O5    V1    S    
O6    V2    S    
C29   C31   A    
C65   C66   S    
C30   C32   A    
C2    O7    A    
C66   H55   S    
C32   C34   A    
C48   H32   S    
C45   C53   S    
C43   H23   S    
C55   H37   S    
C12   H12   S    
C54   H40   S    
O15   V3    S    
C15   C19   A    
C38   H6    S    
C2    C51   S    
C16   C20   A    
C13   H13   S    
C29   H7    S    
C42   H20   S    
O12   C60   A    
C41   H19   S    
C63   H48   S    
C7    C58   S    
C62   H46   S    
C52   C56   S    
C9    C17   A    
O16   C60   A    
C28   O22   S    
C27   O21   S    
C14   H14   S    
C47   H33   S    
C46   H42   S    
H29   C53   S    
C7    C39   A    
O12   V3    S    
C10   H10   S    
C44   H26   S    
C48   C50   S    
C26   H2    S    
C43   H25   S    
O6    C4    A    
O13   C57   A    
O1    V2    S    
O18   V4    S    
C56   H36   S    
O2    V1    S    
C31   C33   A    
C46   C54   S    
O4    C2    A    
O15   C59   A    
C9    C11   A    
C65   H53   S    
C13   C15   A    
C30   H8    S    
O21   C61   S    
C61   C62   S    
C41   C43   S    
C66   H56   S    
O3    V1    S    
O11   C59   A    
O13   V3    S    
C10   C18   A    
C47   C55   S    
O10   V1    S    
C14   C16   A    
H28   C46   S    
C36   H18   S    
C28   C30   A    
O3    C1    A    
C61   H44   S    
C64   H50   S    
C24   H16   S    
O11   V4    S    
C48   H34   S    
C63   H47   S    
C35   C37   A    
C53   H39   S    
C52   C54   S    
C5    C13   A    
C24   C26   A    
O17   V3    S    
C1    O8    A    
C8    C40   A    
C32   C36   A    
O8    V2    S    
C41   H21   S    
C64   H51   S    
C36   C38   A    
C21   C23   A    
C22   C24   A    
C19   C27   A    
C56   H38   S    
C39   H3    S    
C20   C28   A    
C47   H31   S    
C58   O17   A    
O22   C64   S    
C57   O18   A    
C40   H4    S    
C41   C49   S    
C1    C52   S    
C55   H35   S    
O9    V2    S    
C17   C25   A    
C65   H52   S    
C49   C60   S    
O20   V3    S    
O16   V4    S    
C31   C35   A    
C51   C55   S    
C62   H45   S    
O7    V1    S    
C20   C22   A    
