data_mof_unit_24079.cif
_audit_creation_date              2012-12-11T15:37:15-0500
_audit_creation_method            fapswitch 2.2
_symmetry_space_group_name_H-M    P1
_symmetry_Int_Tables_number       1
_space_group_crystal_system       triclinic
_cell_length_a                    17.331159
_cell_length_b                    24.264836
_cell_length_c                    14.878046
_cell_angle_alpha                 89.874976
_cell_angle_beta                  125.660056
_cell_angle_gamma                 90.238039
_cell_volume                      5083.5277725

loop_
_atom_site_label
_atom_site_type_symbol
_atom_type_description
_atom_site_fract_x
_atom_site_fract_y
_atom_site_fract_z
_atom_type_partial_charge
C1    C     C_R   0.850161 0.652315 0.907782 -0.111077
C2    C     C_R   0.183664 0.366047 0.092547 -0.068335
C3    C     C_R   0.150699 0.652289 0.092772 -0.108564
C4    C     C_R   0.813564 0.368826 0.909274 -0.074458
C5    C     C_R   0.350160 0.152315 0.907780 -0.111100
C6    C     C_R   0.683660 0.866043 0.092546 -0.068323
C7    C     C_R   0.650696 0.152288 0.092773 -0.108573
C8    C     C_R   0.313560 0.868831 0.909273 -0.074466
C9    C     C_3   0.419014 0.502700 0.406673 0.172148
C10   C     C_3   0.580491 0.502205 0.596227 0.175418
C11   C     C_3   0.919016 0.002701 0.406663 0.172138
C12   C     C_3   0.080491 0.002204 0.596218 0.175430
C13   C     C_R   0.650344 0.317874 0.903694 -0.033341
C14   C     C_R   0.200001 0.773629 0.103120 -0.020894
C15   C     C_R   0.346062 0.313536 0.099132 -0.031550
C16   C     C_R   0.799375 0.772171 0.899277 -0.024232
C17   C     C_R   0.150341 0.817876 0.903687 -0.033363
C18   C     C_R   0.700004 0.273626 0.103127 -0.020898
C19   C     C_R   0.846058 0.813534 0.099132 -0.031549
C20   C     C_R   0.299370 0.272170 0.899275 -0.024215
C21   C     C_R   0.103548 0.771088 0.903315 -0.269100
C22   C     C_R   0.757228 0.314010 0.103047 -0.315207
C23   C     C_R   0.896188 0.769123 0.099029 -0.271169
C24   C     C_R   0.239330 0.309785 0.899662 -0.313178
C25   C     C_R   0.603542 0.271091 0.903325 -0.269110
C26   C     C_R   0.257218 0.814018 0.103042 -0.315197
C27   C     C_R   0.396187 0.269124 0.099027 -0.271151
C28   C     C_R   0.739329 0.809781 0.899662 -0.313207
C29   C     C_R   0.135297 0.744886 0.003171 0.174029
C30   C     C_R   0.738648 0.332046 0.002761 0.153060
C31   C     C_R   0.865579 0.743909 0.998900 0.179922
C32   C     C_R   0.256459 0.325766 0.000221 0.151383
C33   C     C_R   0.635291 0.244888 0.003178 0.174032
C34   C     C_R   0.238640 0.832054 0.002756 0.153067
C35   C     C_R   0.365575 0.243909 0.998897 0.179873
C36   C     C_R   0.756454 0.825761 0.000220 0.151392
C37   C     C_R   0.105090 0.452407 0.626254 -0.157345
C38   C     C_R   0.109094 0.551892 0.535083 -0.170186
C39   C     C_R   0.113971 0.452112 0.539780 -0.169189
C40   C     C_R   0.099349 0.552150 0.620753 -0.165874
C41   C     C_R   0.605134 0.952422 0.626293 -0.157344
C42   C     C_R   0.609040 0.051903 0.535047 -0.170187
C43   C     C_R   0.614000 0.952128 0.539805 -0.169211
C44   C     C_R   0.599311 0.052160 0.620727 -0.165886
C45   C     C_R   0.104572 0.501680 0.485774 0.135928
C46   C     C_R   0.086002 0.502177 0.657248 0.147349
C47   C     C_R   0.604559 0.001692 0.485770 0.135937
C48   C     C_R   0.586014 0.002187 0.657263 0.147346
C49   C     C_R   0.904149 0.375147 0.094105 -0.144500
C50   C     C_R   0.053113 0.652983 0.908991 -0.126426
C51   C     C_R   0.090805 0.367178 0.908129 -0.142600
C52   C     C_R   0.946688 0.652321 0.092048 -0.107267
C53   C     C_R   0.404145 0.875151 0.094103 -0.144502
C54   C     C_R   0.553111 0.152984 0.908993 -0.126450
C55   C     C_R   0.590802 0.867175 0.908129 -0.142610
C56   C     C_R   0.446687 0.152321 0.092047 -0.107252
C57   C     C_R   0.050948 0.546601 0.304725 -0.125199
C58   C     C_R   0.006223 0.455096 0.735171 -0.122458
C59   C     C_R   0.014972 0.547411 0.746533 -0.129415
C60   C     C_R   0.053243 0.454510 0.306779 -0.144153
C61   C     C_R   0.550946 0.046604 0.304720 -0.125202
C62   C     C_R   0.506237 0.955098 0.735183 -0.122456
C63   C     C_R   0.514982 0.047413 0.746546 -0.129413
C64   C     C_R   0.553240 0.954513 0.306781 -0.144158
C65   C     C_R   0.729465 0.454844 0.727412 -0.062809
C66   C     C_R   0.269451 0.546827 0.266875 -0.167859
C67   C     C_R   0.270384 0.455070 0.273238 -0.057980
C68   C     C_R   0.730571 0.546512 0.734989 -0.170009
C69   C     C_R   0.229465 0.954844 0.727405 -0.062814
C70   C     C_R   0.769451 0.046827 0.266867 -0.167840
C71   C     C_R   0.770386 0.955070 0.273230 -0.057980
C72   C     C_R   0.230569 0.046512 0.734984 -0.170020
C73   C     C_R   0.886131 0.685159 0.999656 0.063846
C74   C     C_R   0.180277 0.352124 0.000354 0.072203
C75   C     C_R   0.114699 0.685673 0.001581 0.067791
C76   C     C_R   0.814858 0.358868 0.002128 0.078937
C77   C     C_R   0.386128 0.185159 0.999654 0.063819
C78   C     C_R   0.680272 0.852119 0.000353 0.072205
C79   C     C_R   0.614695 0.185674 0.001584 0.067786
C80   C     C_R   0.314852 0.858876 0.002126 0.078932
C81   C     C_R   0.070446 0.500880 0.370226 0.045434
C82   C     C_R   0.039623 0.501616 0.713128 0.047647
C83   C     C_R   0.570440 0.000884 0.370223 0.045432
C84   C     C_R   0.539640 0.001620 0.713146 0.047649
C85   C     C_R   0.673566 0.500863 0.695381 0.105022
C86   C     C_R   0.326322 0.501374 0.306905 0.097618
C87   C     C_R   0.173565 0.000862 0.695373 0.105026
C88   C     C_R   0.826323 0.001375 0.306895 0.097619
C89   C     C_3   0.507726 0.455847 0.555118 -0.157633
C90   C     C_3   0.491511 0.549316 0.447462 -0.159144
C91   C     C_3   0.493905 0.458450 0.443131 -0.164376
C92   C     C_3   0.505859 0.546727 0.560139 -0.153918
C93   C     C_3   0.007746 0.955832 0.555082 -0.157628
C94   C     C_3   0.991494 0.049330 0.447481 -0.159178
C95   C     C_3   0.993925 0.958466 0.443098 -0.164371
C96   C     C_3   0.005841 0.046710 0.560155 -0.153879
C97   C     C_3   0.431252 0.500231 0.517218 -0.139723
C98   C     C_3   0.568180 0.504916 0.485666 -0.147126
C99   C     C_3   0.931253 0.000202 0.517207 -0.139691
C100  C     C_3   0.068181 0.004945 0.485661 -0.147166
H1    H     H_    0.806186 0.663977 0.821995 0.112683
H2    H     H_    0.235461 0.353702 0.176742 0.080541
H3    H     H_    0.195388 0.663534 0.178747 0.111220
H4    H     H_    0.760879 0.355604 0.825903 0.081057
H5    H     H_    0.306186 0.163975 0.821993 0.112659
H6    H     H_    0.735457 0.853698 0.176741 0.080535
H7    H     H_    0.695381 0.163533 0.178748 0.111236
H8    H     H_    0.260875 0.855609 0.825902 0.081058
H9    H     H_    0.930965 0.371798 0.179964 0.100908
H10   H     H_    0.004150 0.667397 0.825066 0.117750
H11   H     H_    0.059049 0.353750 0.824831 0.087025
H12   H     H_    0.994655 0.666106 0.176647 0.114965
H13   H     H_    0.430961 0.871802 0.179962 0.100910
H14   H     H_    0.504147 0.167400 0.825069 0.117741
H15   H     H_    0.559044 0.853745 0.824830 0.087027
H16   H     H_    0.494652 0.166106 0.176646 0.114960
H17   H     H_    0.067450 0.589138 0.330564 0.086908
H18   H     H_    0.001347 0.414191 0.704939 0.081906
H19   H     H_    0.027235 0.590291 0.739457 0.091539
H20   H     H_    0.072691 0.412568 0.335703 0.084149
H21   H     H_    0.567455 0.089140 0.330556 0.086907
H22   H     H_    0.501370 0.914193 0.704952 0.081911
H23   H     H_    0.527251 0.090293 0.739481 0.091542
H24   H     H_    0.572685 0.912570 0.335711 0.084149
H25   H     H_    0.707034 0.413905 0.693254 0.082030
H26   H     H_    0.289968 0.589433 0.289571 0.097156
H27   H     H_    0.292550 0.414075 0.306875 0.084303
H28   H     H_    0.709915 0.589111 0.713186 0.098700
H29   H     H_    0.207037 0.913904 0.693245 0.082015
H30   H     H_    0.789969 0.089433 0.289561 0.097149
H31   H     H_    0.792554 0.914075 0.306867 0.084315
H32   H     H_    0.209912 0.089110 0.713180 0.098705
H33   H     H_    0.371969 0.498294 0.526124 0.123431
H34   H     H_    0.627373 0.506781 0.476612 0.123765
H35   H     H_    0.871969 0.998240 0.526110 0.123425
H36   H     H_    0.127376 0.006834 0.476610 0.123769
H37   H     H_    0.515034 0.417471 0.599758 0.149709
H38   H     H_    0.482130 0.587007 0.399659 0.113047
H39   H     H_    0.488742 0.422296 0.394697 0.159501
H40   H     H_    0.513673 0.582245 0.611790 0.114335
H41   H     H_    0.015074 0.917445 0.599706 0.149655
H42   H     H_    0.982099 0.087033 0.399700 0.113041
H43   H     H_    0.988782 0.922326 0.394646 0.159540
H44   H     H_    0.013641 0.082215 0.611827 0.114342
H45   H     H_    0.043812 0.755077 0.825173 0.146057
H46   H     H_    0.815813 0.330886 0.181034 0.119235
H47   H     H_    0.957443 0.754051 0.176884 0.147966
H48   H     H_    0.180478 0.326638 0.821955 0.114041
H49   H     H_    0.543800 0.255083 0.825185 0.146071
H50   H     H_    0.315797 0.830900 0.181029 0.119237
H51   H     H_    0.457441 0.254051 0.176881 0.147960
H52   H     H_    0.680477 0.826635 0.821954 0.114042
H53   H     H_    0.103778 0.413288 0.660309 0.102225
H54   H     H_    0.108956 0.591139 0.500606 0.107410
H55   H     H_    0.117709 0.412706 0.508851 0.105928
H56   H     H_    0.092394 0.591525 0.649084 0.106697
H57   H     H_    0.603855 0.913305 0.660377 0.102238
H58   H     H_    0.608857 0.091149 0.500539 0.107413
H59   H     H_    0.617765 0.912725 0.508894 0.105937
H60   H     H_    0.592320 0.091533 0.649026 0.106699
N1    N     N_R   0.892620 0.603790 0.941800 -0.041623
N2    N     N_R   0.107380 0.396210 0.058200 -0.048992
N3    N     N_R   0.107380 0.603790 0.058200 -0.041078
N4    N     N_R   0.892620 0.396210 0.941800 -0.050227
N5    N     N_R   0.392620 0.103790 0.941800 -0.041618
N6    N     N_R   0.607380 0.896210 0.058200 -0.048990
N7    N     N_R   0.607380 0.103790 0.058200 -0.041078
N8    N     N_R   0.392620 0.896210 0.941800 -0.050228
N9    N     N_R   0.952210 0.397600 0.057910 -0.045869
N10   N     N_R   0.047790 0.602400 0.942090 -0.042153
N11   N     N_R   0.047790 0.397600 0.942090 -0.041979
N12   N     N_R   0.952210 0.602400 0.057910 -0.043480
N13   N     N_R   0.452210 0.897600 0.057910 -0.045869
N14   N     N_R   0.547790 0.102400 0.942090 -0.042149
N15   N     N_R   0.547790 0.897600 0.942090 -0.041976
N16   N     N_R   0.452210 0.102400 0.057910 -0.043479
N17   N     N_R   0.026300 0.529110 0.206760 -0.038300
N18   N     N_R   0.973700 0.470890 0.793240 -0.041447
N19   N     N_R   0.973700 0.529110 0.793240 -0.041804
N20   N     N_R   0.026300 0.470890 0.206760 -0.037272
N21   N     N_R   0.526300 0.029110 0.206760 -0.038299
N22   N     N_R   0.473700 0.970890 0.793240 -0.041447
N23   N     N_R   0.473700 0.029110 0.793240 -0.041805
N24   N     N_R   0.526300 0.970890 0.206760 -0.037272
N25   N     N_R   0.818530 0.472270 0.792960 -0.051091
N26   N     N_R   0.181470 0.527730 0.207040 -0.042440
N27   N     N_R   0.181470 0.472270 0.207040 -0.050064
N28   N     N_R   0.818530 0.527730 0.792960 -0.043356
N29   N     N_R   0.318530 0.972270 0.792960 -0.051088
N30   N     N_R   0.681470 0.027730 0.207040 -0.042443
N31   N     N_R   0.681470 0.972270 0.207040 -0.050068
N32   N     N_R   0.318530 0.027730 0.792960 -0.043354
Ni1   Ni    Ni4+2 0.934150 0.565840 0.869060 0.229712
Ni2   Ni    Ni4+2 0.065850 0.434160 0.130940 0.210771
Ni3   Ni    Ni4+2 0.065850 0.565840 0.130940 0.229032
Ni4   Ni    Ni4+2 0.934150 0.434160 0.869060 0.213452
Ni5   Ni    Ni4+2 0.434150 0.065840 0.869060 0.229706
Ni6   Ni    Ni4+2 0.565850 0.934160 0.130940 0.210770
Ni7   Ni    Ni4+2 0.565850 0.065840 0.130940 0.229032
Ni8   Ni    Ni4+2 0.434150 0.934160 0.869060 0.213453
C101  C     C_2   0.602188 0.352181 0.802967 0.470284
H61   H     H_    0.550483 0.333910 0.722637 -0.015641
O1    O     O_2   0.615648 0.401890 0.809807 -0.592070
C102  C     C_2   0.205953 0.765989 0.205633 0.461543
H62   H     H_    0.270922 0.776401 0.285247 -0.000122
O2    O     O_2   0.136546 0.751234 0.201630 -0.607128
C103  C     C_2   0.393145 0.348200 0.199266 0.467048
H63   H     H_    0.444057 0.330301 0.280152 -0.015648
O3    O     O_2   0.380095 0.397898 0.191230 -0.593677
C104  C     C_2   0.794724 0.766836 0.797197 0.465183
H64   H     H_    0.730213 0.777787 0.717728 -0.003487
O4    O     O_2   0.864607 0.753260 0.801552 -0.605663
C105  C     C_2   0.102181 0.852185 0.802958 0.470289
H65   H     H_    0.050476 0.833916 0.722630 -0.015627
O5    O     O_2   0.115633 0.901894 0.809794 -0.592058
C106  C     C_2   0.705958 0.265987 0.205639 0.461551
H66   H     H_    0.770916 0.276394 0.285239 -0.000089
O6    O     O_2   0.636562 0.251232 0.201646 -0.607153
C107  C     C_2   0.893140 0.848200 0.199262 0.467035
H67   H     H_    0.944056 0.830304 0.280150 -0.015645
O7    O     O_2   0.880084 0.897898 0.191218 -0.593691
C108  C     C_2   0.294704 0.266828 0.797188 0.465209
H68   H     H_    0.230184 0.277750 0.717729 -0.003475
O8    O     O_2   0.364581 0.253276 0.801524 -0.605667

loop_
_geom_bond_atom_site_label_1
_geom_bond_atom_site_label_2
_ccdc_geom_bond_type
C16   C28   A    
C38   C40   A    
C6    N6    A    
C10   C85   S    
C95   H43   S    
N30   N31   A    
C65   H25   S    
C41   C43   A    
C101  H61   S    
C94   C100  S    
C59   C82   A    
C97   H33   S    
C70   C88   A    
C51   N11   A    
C9    C91   S    
C45   C81   S    
N6    Ni6   S    
N18   N19   A    
C53   N13   A    
C15   C32   A    
C5    H5    S    
C105  H65   S    
C16   C31   A    
C40   C46   A    
N6    N15   A    
N23   Ni5   S    
C56   N16   A    
C25   H49   S    
C106  O6    D    
C43   H59   S    
C19   C36   A    
C58   C82   A    
C32   C74   S    
C31   C73   S    
C62   N22   A    
C52   H12   S    
C11   C95   S    
C96   C99   S    
N18   Ni4   S    
C18   C33   A    
C70   H30   S    
C103  O3    D    
C11   C99   S    
C10   C98   S    
N3    N10   A    
N22   N23   A    
C38   C45   A    
C7    N7    A    
C8    N8    A    
C34   C80   S    
C46   C82   S    
N1    N12   A    
C15   C27   A    
C26   C34   A    
C96   H44   S    
N2    N11   A    
C22   H46   S    
C10   C89   S    
C53   H13   S    
N14   Ni5   S    
C14   C102  S    
C92   C97   S    
C9    C97   S    
C4    N4    A    
C60   H20   S    
C47   C83   S    
C89   C91   S    
C3    C75   A    
C93   C99   S    
C69   C87   A    
C3    N3    A    
C39   C45   A    
C10   C92   S    
C93   C95   S    
N20   Ni2   S    
C68   C85   A    
C101  O1    D    
C2    N2    A    
N4    N9    A    
C42   H58   S    
C62   C84   A    
C42   C44   A    
C50   H10   S    
C17   C105  S    
C8    H8    S    
N31   Ni6   S    
C42   C47   A    
C90   H38   S    
C67   N27   A    
N30   Ni7   S    
C72   H32   S    
C12   C96   S    
C105  O5    D    
C56   H16   S    
N8    N13   A    
N15   Ni8   S    
C65   N25   A    
C63   N23   A    
C99   H35   S    
C103  H63   S    
C94   H42   S    
C20   C24   A    
N26   Ni3   S    
C26   H50   S    
C53   C80   A    
N22   Ni8   S    
C106  H66   S    
C50   N10   A    
C52   C73   A    
C24   H48   S    
C69   N29   A    
C107  H67   S    
C55   C78   A    
C95   C100  S    
C33   C79   S    
N25   N28   A    
C20   C108  S    
C27   C35   A    
C64   H24   S    
C23   H47   S    
C35   C77   S    
C17   C21   A    
C56   C77   A    
C48   C84   S    
C51   C74   A    
C39   H55   S    
N5    N16   A    
C23   C31   A    
N29   N32   A    
C19   C23   A    
C24   C32   A    
C64   C83   A    
N5    Ni5   S    
C9    C86   S    
C107  O7    D    
C30   C76   S    
C60   C81   A    
C13   C30   A    
C90   C92   S    
N3    Ni3   S    
C11   C88   S    
N17   N20   A    
C72   N32   A    
N2    Ni2   S    
C6    H6    S    
C49   C76   A    
N1    Ni1   S    
C58   N18   A    
N32   Ni5   S    
C14   C26   A    
C94   C96   S    
C58   H18   S    
C55   N15   A    
C51   H11   S    
N7    N14   A    
C41   H57   S    
N29   Ni8   S    
C102  O2    D    
N28   Ni1   S    
C28   H52   S    
C89   H37   S    
C66   N26   A    
N27   Ni2   S    
C61   C83   A    
C67   H27   S    
C44   H60   S    
C4    C76   A    
C91   H39   S    
C12   C93   S    
C21   H45   S    
C17   C34   A    
C38   H54   S    
N16   Ni7   S    
C5    C77   A    
N21   Ni7   S    
C1    H1    S    
C62   H22   S    
C72   C87   A    
C93   H41   S    
C70   N30   A    
C7    C79   A    
C54   C79   A    
N19   Ni1   S    
N21   N24   A    
C3    H3    S    
C68   N28   A    
C68   H28   S    
C108  O8    D    
C67   C86   A    
C59   H19   S    
N17   Ni3   S    
C12   C87   S    
C27   H51   S    
N13   Ni6   S    
C18   C22   A    
C61   N21   A    
C20   C35   A    
N7    Ni7   S    
C18   C106  S    
C61   H21   S    
C11   C94   S    
N11   Ni4   S    
C13   C25   A    
C91   C98   S    
C2    C74   A    
C9    C90   S    
C66   C86   A    
N10   Ni1   S    
C63   H23   S    
N4    Ni4   S    
C65   C85   A    
N9    Ni2   S    
C29   C75   S    
N25   Ni4   S    
C60   N20   A    
C98   H34   S    
N24   Ni6   S    
C63   C84   A    
C1    C73   A    
C104  O4    D    
C37   H53   S    
C59   N19   A    
N26   N27   A    
C49   H9    S    
C37   C39   A    
C22   C30   A    
C50   C75   A    
C57   N17   A    
C54   N14   A    
C55   H15   S    
C54   H14   S    
C16   C104  S    
C52   N12   A    
C41   C48   A    
C13   C101  S    
C4    H4    S    
C7    H7    S    
C5    N5    A    
C21   C29   A    
C108  H68   S    
N8    Ni8   S    
C57   C81   A    
C57   H17   S    
C12   C100  S    
C6    C78   A    
C49   N9    A    
C1    N1    A    
C71   C88   A    
C64   N24   A    
C66   H26   S    
C19   C107  S    
C102  H62   S    
C28   C36   A    
C71   H31   S    
C69   H29   S    
C104  H64   S    
C89   C97   S    
C100  H36   S    
C8    C80   A    
C2    H2    S    
C40   H56   S    
N12   Ni3   S    
C36   C78   S    
C14   C29   A    
C71   N31   A    
C37   C46   A    
C43   C47   A    
C90   C98   S    
C15   C103  S    
C44   C48   A    
C25   C33   A    
C92   H40   S    
