data_mof_unit_65993.cif
_audit_creation_date              2012-12-10T18:43:25-0500
_audit_creation_method            fapswitch 2.2
_symmetry_space_group_name_H-M    P1
_symmetry_Int_Tables_number       1
_space_group_crystal_system       triclinic
_cell_length_a                    38.744015
_cell_length_b                    45.00047
_cell_length_c                    29.687642
_cell_angle_alpha                 89.99998
_cell_angle_beta                  130.733153
_cell_angle_gamma                 90.0
_cell_volume                      39221.7773449

loop_
_atom_site_label
_atom_site_type_symbol
_atom_type_description
_atom_site_fract_x
_atom_site_fract_y
_atom_site_fract_z
_atom_type_partial_charge
C1    C     C_R   0.290644 0.209235 0.081363 0.917953
C2    C     C_R   0.465108 0.249937 0.999989 0.282235
C3    C     C_R   0.534876 0.749928 0.999988 0.282263
C4    C     C_3   0.156320 0.391766 0.755650 -0.163215
C5    C     C_3   0.843680 0.391754 0.244373 -0.163213
C6    C     C_3   0.656322 0.891790 0.755699 -0.163214
C7    C     C_3   0.343682 0.891732 0.244418 -0.163213
C8    C     C_3   0.150052 0.357890 0.743677 -0.162011
C9    C     C_3   0.849970 0.357879 0.256346 -0.162014
C10   C     C_3   0.650099 0.857914 0.743725 -0.162010
C11   C     C_3   0.350015 0.857856 0.256391 -0.162016
C12   C     C_1   0.186985 0.312918 0.874004 -0.189064
C13   C     C_R   0.034892 0.749937 0.000011 0.282236
C14   C     C_1   0.813015 0.312918 0.125996 -0.189064
C15   C     C_1   0.686985 0.812918 0.874004 -0.189064
C16   C     C_1   0.313015 0.812918 0.125996 -0.189064
C17   C     C_1   0.062970 0.437039 0.625886 -0.184240
C18   C     C_1   0.937030 0.437039 0.374114 -0.184240
C19   C     C_1   0.562970 0.937039 0.625886 -0.184240
C20   C     C_1   0.437030 0.937039 0.374114 -0.184240
C21   C     C_3   0.152168 0.387916 0.803768 -0.163979
C22   C     C_3   0.847811 0.387916 0.196232 -0.163979
C23   C     C_3   0.652122 0.887916 0.803769 -0.163978
C24   C     C_R   0.965108 0.749937 0.999989 0.282235
C25   C     C_3   0.347768 0.887915 0.196232 -0.163980
C26   C     C_3   0.145498 0.354442 0.790993 0.204900
C27   C     C_3   0.854502 0.354442 0.209007 0.204900
C28   C     C_3   0.645498 0.854441 0.790993 0.204900
C29   C     C_3   0.354502 0.854441 0.209007 0.204900
C30   C     C_3   0.099914 0.392066 0.756213 -0.162674
C31   C     C_3   0.900063 0.392077 0.243764 -0.162674
C32   C     C_3   0.599867 0.892041 0.756165 -0.162674
C33   C     C_3   0.400019 0.892099 0.243719 -0.162674
C34   C     C_3   0.104468 0.395514 0.708897 0.204561
C35   C     C_R   0.959297 0.459304 0.418639 0.907845
C36   C     C_3   0.895532 0.395514 0.291103 0.204560
C37   C     C_3   0.604468 0.895514 0.708897 0.204560
C38   C     C_3   0.395532 0.895514 0.291103 0.204560
C39   C     C_R   0.182512 0.249949 0.999941 0.864616
C40   C     C_R   0.817488 0.249949 0.000059 0.864618
C41   C     C_R   0.682512 0.749950 0.999941 0.864616
C42   C     C_R   0.317488 0.749949 0.000059 0.864618
C43   C     C_3   0.093646 0.358190 0.744240 -0.162069
C44   C     C_3   0.906354 0.358201 0.255737 -0.162068
C45   C     C_3   0.593644 0.858166 0.744191 -0.162071
C46   C     C_R   0.040703 0.459304 0.581361 0.907845
C47   C     C_3   0.406352 0.858224 0.255692 -0.162064
C48   C     C_3   0.097798 0.362040 0.696121 -0.162899
C49   C     C_3   0.902223 0.362040 0.303878 -0.162899
C50   C     C_3   0.597844 0.862040 0.696121 -0.162897
C51   C     C_3   0.402266 0.862040 0.303878 -0.162901
C52   C     C_1   0.168221 0.331696 0.836460 -0.076107
C53   C     C_1   0.831779 0.331696 0.163540 -0.076107
C54   C     C_1   0.668221 0.831696 0.836460 -0.076107
C55   C     C_1   0.331779 0.831696 0.163540 -0.076107
C56   C     C_1   0.081741 0.418260 0.663430 -0.077867
C57   C     C_R   0.459297 0.959304 0.418639 0.907845
C58   C     C_1   0.918259 0.418260 0.336570 -0.077867
C59   C     C_1   0.581741 0.918260 0.663430 -0.077867
C60   C     C_1   0.418259 0.918260 0.336570 -0.077867
C61   C     C_R   0.540648 0.040644 0.581346 0.907872
C62   C     C_R   0.459352 0.040644 0.418654 0.907874
C63   C     C_R   0.040648 0.540644 0.581346 0.907872
C64   C     C_R   0.959352 0.540644 0.418654 0.907874
C65   C     C_R   0.362007 0.225442 0.977458 -0.193676
C66   C     C_R   0.637994 0.225443 0.022545 -0.193674
C67   C     C_R   0.862007 0.725443 0.977457 -0.193676
C68   C     C_R   0.540703 0.959304 0.581361 0.907845
C69   C     C_R   0.137994 0.725443 0.022544 -0.193675
C70   C     C_R   0.398157 0.225329 0.977952 -0.162503
C71   C     C_R   0.601844 0.225330 0.022051 -0.162503
C72   C     C_R   0.898157 0.725329 0.977951 -0.162502
C73   C     C_R   0.101844 0.725330 0.022050 -0.162503
C74   C     C_R   0.427339 0.249938 0.999979 0.087632
C75   C     C_R   0.572661 0.249938 0.000021 0.087633
C76   C     C_R   0.927339 0.749938 0.999979 0.087632
C77   C     C_R   0.072661 0.749938 0.000021 0.087633
C78   C     C_R   0.420179 0.274549 0.021997 -0.162385
C79   C     C_3   0.363563 0.127900 0.283857 -0.163175
C80   C     C_R   0.579820 0.274548 0.978000 -0.162386
C81   C     C_R   0.920179 0.774549 0.021997 -0.162384
C82   C     C_R   0.079820 0.774548 0.978001 -0.162385
C83   C     C_R   0.384514 0.274439 0.022471 -0.193365
C84   C     C_R   0.615485 0.274438 0.977526 -0.193363
C85   C     C_R   0.884514 0.774439 0.022472 -0.193365
C86   C     C_R   0.115485 0.774438 0.977526 -0.193363
C87   C     C_3   0.636389 0.127925 0.716093 -0.163176
C88   C     C_3   0.863564 0.627901 0.283858 -0.163175
C89   C     C_R   0.709356 0.209235 0.918637 0.917953
C90   C     C_3   0.136403 0.627918 0.716108 -0.163175
C91   C     C_3   0.329708 0.121923 0.216089 -0.162066
C92   C     C_3   0.670291 0.121947 0.783862 -0.162066
C93   C     C_3   0.829708 0.621923 0.216090 -0.162068
C94   C     C_3   0.170291 0.621940 0.783877 -0.162066
C95   C     C_1   0.312909 0.186972 0.125889 -0.189046
C96   C     C_1   0.687091 0.186972 0.874111 -0.189046
C97   C     C_1   0.812909 0.686972 0.125889 -0.189046
C98   C     C_1   0.187091 0.686972 0.874111 -0.189046
C99   C     C_1   0.437083 0.062905 0.374120 -0.184148
C100  C     C_R   0.790644 0.709235 0.081363 0.917953
C101  C     C_1   0.562917 0.062905 0.625880 -0.184148
C102  C     C_1   0.937083 0.562905 0.374120 -0.184148
C103  C     C_1   0.062916 0.562905 0.625880 -0.184148
C104  C     C_3   0.387901 0.151841 0.275897 -0.163841
C105  C     C_3   0.612053 0.151841 0.724103 -0.163840
C106  C     C_3   0.887902 0.651841 0.275897 -0.163841
C107  C     C_3   0.112066 0.651841 0.724103 -0.163841
C108  C     C_3   0.354447 0.145463 0.208931 0.204855
C109  C     C_3   0.645553 0.145463 0.791069 0.204855
C110  C     C_3   0.854447 0.645463 0.208931 0.204855
C111  C     C_R   0.209356 0.709235 0.918637 0.917953
C112  C     C_3   0.145553 0.645463 0.791069 0.204855
C113  C     C_3   0.420281 0.127952 0.283913 -0.162645
C114  C     C_3   0.579721 0.127928 0.716136 -0.162646
C115  C     C_3   0.920280 0.627952 0.283912 -0.162646
C116  C     C_3   0.079720 0.627935 0.716121 -0.162646
C117  C     C_R   0.317396 0.249944 0.999953 0.864558
C118  C     C_R   0.682603 0.249944 0.000047 0.864557
C119  C     C_R   0.817396 0.749943 0.999953 0.864558
C120  C     C_R   0.182603 0.749943 0.000047 0.864557
C121  C     C_3   0.395542 0.104412 0.291071 0.204522
C122  C     C_R   0.355117 0.249941 0.999960 -0.032316
C123  C     C_3   0.604458 0.104412 0.708928 0.204522
C124  C     C_3   0.895542 0.604412 0.291071 0.204522
C125  C     C_3   0.104458 0.604412 0.708928 0.204522
C126  C     C_3   0.386425 0.121975 0.216144 -0.162154
C127  C     C_3   0.613622 0.121950 0.783905 -0.162157
C128  C     C_3   0.886424 0.621974 0.216143 -0.162154
C129  C     C_3   0.113608 0.621958 0.783890 -0.162155
C130  C     C_3   0.362088 0.098033 0.224105 -0.162864
C131  C     C_3   0.637959 0.098033 0.775895 -0.162862
C132  C     C_3   0.862087 0.598033 0.224105 -0.162864
C133  C     C_R   0.644883 0.249942 0.000040 -0.032318
C134  C     C_3   0.137945 0.598033 0.775895 -0.162862
C135  C     C_1   0.331692 0.168199 0.163443 -0.076093
C136  C     C_1   0.668308 0.168199 0.836557 -0.076093
C137  C     C_1   0.831692 0.668199 0.163443 -0.076093
C138  C     C_1   0.168308 0.668199 0.836557 -0.076093
C139  C     C_1   0.418299 0.081677 0.336562 -0.077735
C140  C     C_1   0.581701 0.081677 0.663438 -0.077734
C141  C     C_1   0.918298 0.581677 0.336562 -0.077735
C142  C     C_1   0.081701 0.581677 0.663438 -0.077734
C143  C     C_R   0.102167 0.238693 0.950946 -0.193753
C144  C     C_R   0.855117 0.749941 0.999960 -0.032316
C145  C     C_R   0.897832 0.238692 0.049054 -0.193752
C146  C     C_R   0.602167 0.738693 0.950945 -0.193752
C147  C     C_R   0.397833 0.738693 0.049055 -0.193754
C148  C     C_R   0.066164 0.238927 0.950736 -0.162573
C149  C     C_R   0.933836 0.238927 0.049263 -0.162573
C150  C     C_R   0.566164 0.738927 0.950736 -0.162572
C151  C     C_R   0.433836 0.738928 0.049264 -0.162572
C152  C     C_R   0.072624 0.249933 0.999975 0.087738
C153  C     C_R   0.927376 0.249933 0.000025 0.087738
C154  C     C_R   0.572624 0.749933 0.999975 0.087738
C155  C     C_R   0.144883 0.749942 0.000040 -0.032317
C156  C     C_R   0.427376 0.749933 0.000025 0.087737
C157  C     C_R   0.115403 0.260945 0.049200 -0.162457
C158  C     C_R   0.884597 0.260946 0.950801 -0.162457
C159  C     C_R   0.615403 0.760945 0.049200 -0.162457
C160  C     C_R   0.384597 0.760945 0.950800 -0.162457
C161  C     C_R   0.151184 0.261192 0.048965 -0.193449
C162  C     C_R   0.848816 0.261193 0.951035 -0.193450
C163  C     C_R   0.651184 0.761192 0.048966 -0.193449
C164  C     C_R   0.348816 0.761192 0.951034 -0.193450
C165  C     C_R   0.209240 0.290654 0.918527 0.917953
C166  C     C_R   0.534892 0.249937 0.000011 0.282235
C167  C     C_R   0.790760 0.290654 0.081473 0.917954
C168  C     C_R   0.709240 0.790654 0.918527 0.917953
C169  C     C_R   0.290760 0.790654 0.081473 0.917953
C170  C     C_R   0.144809 0.249946 0.999949 -0.032194
C171  C     C_R   0.855191 0.249946 0.000051 -0.032194
C172  C     C_R   0.644809 0.749946 0.999949 -0.032194
C173  C     C_R   0.355191 0.749946 0.000051 -0.032193
C174  C     C_R   0.965124 0.249928 0.000012 0.282262
C175  C     C_R   0.034876 0.249928 0.999988 0.282262
C176  C     C_R   0.465124 0.749928 0.000012 0.282263
H1    H     H_    0.339762 0.206266 0.960077 0.153703
H2    H     H_    0.903463 0.230008 0.087420 0.153753
H3    H     H_    0.596536 0.730009 0.912578 0.153752
H4    H     H_    0.403464 0.730010 0.087422 0.153753
H5    H     H_    0.033469 0.230185 0.912402 0.146934
H6    H     H_    0.966530 0.230184 0.087597 0.146934
H7    H     H_    0.533469 0.730186 0.912401 0.146934
H8    H     H_    0.466531 0.730186 0.087599 0.146934
H9    H     H_    0.121053 0.269682 0.087544 0.146982
H10   H     H_    0.878947 0.269684 0.912457 0.146982
H11   H     H_    0.621053 0.769682 0.087544 0.146982
H12   H     H_    0.660240 0.206267 0.039928 0.153703
H13   H     H_    0.378947 0.769682 0.912455 0.146982
H14   H     H_    0.183921 0.269880 0.087324 0.153825
H15   H     H_    0.816080 0.269881 0.912677 0.153826
H16   H     H_    0.683921 0.769879 0.087324 0.153824
H17   H     H_    0.316079 0.769879 0.912676 0.153825
H18   H     H_    0.171003 0.343481 0.739338 0.135809
H19   H     H_    0.829037 0.343461 0.260703 0.135810
H20   H     H_    0.671090 0.843525 0.739426 0.135809
H21   H     H_    0.329118 0.843420 0.260785 0.135811
H22   H     H_    0.181613 0.405928 0.759529 0.135891
H23   H     H_    0.839762 0.706266 0.960076 0.153703
H24   H     H_    0.818389 0.405907 0.240512 0.135892
H25   H     H_    0.681616 0.905972 0.759618 0.135888
H26   H     H_    0.318392 0.905866 0.240595 0.135895
H27   H     H_    0.075113 0.351833 0.651197 0.134109
H28   H     H_    0.924927 0.351833 0.348802 0.134109
H29   H     H_    0.575196 0.851832 0.651196 0.134108
H30   H     H_    0.425004 0.851833 0.348801 0.134109
H31   H     H_    0.068354 0.344027 0.740363 0.135355
H32   H     H_    0.931644 0.344048 0.259595 0.135355
H33   H     H_    0.568351 0.843983 0.740274 0.135355
H34   H     H_    0.160240 0.706267 0.039927 0.153703
H35   H     H_    0.431641 0.844090 0.259513 0.135355
H36   H     H_    0.078964 0.406474 0.760554 0.135915
H37   H     H_    0.920995 0.406495 0.239404 0.135914
H38   H     H_    0.578878 0.906430 0.760467 0.135918
H39   H     H_    0.420915 0.906535 0.239322 0.135911
H40   H     H_    0.402942 0.206163 0.960473 0.146903
H41   H     H_    0.597060 0.206164 0.039532 0.146903
H42   H     H_    0.902942 0.706163 0.960471 0.146903
H43   H     H_    0.097060 0.706163 0.039531 0.146903
H44   H     H_    0.174853 0.398123 0.848692 0.135787
H45   H     H_    0.398082 0.174297 0.296328 0.135835
H46   H     H_    0.825107 0.398123 0.151308 0.135787
H47   H     H_    0.674770 0.898123 0.848693 0.135787
H48   H     H_    0.325030 0.898122 0.151309 0.135786
H49   H     H_    0.442446 0.293714 0.039483 0.146956
H50   H     H_    0.557551 0.293713 0.960512 0.146956
H51   H     H_    0.942447 0.793714 0.039484 0.146955
H52   H     H_    0.057552 0.793713 0.960513 0.146955
H53   H     H_    0.379646 0.293616 0.039846 0.153778
H54   H     H_    0.620351 0.293615 0.960149 0.153778
H55   H     H_    0.879647 0.793616 0.039847 0.153778
H56   H     H_    0.601833 0.174297 0.703672 0.135836
H57   H     H_    0.120352 0.793616 0.960150 0.153778
H58   H     H_    0.292182 0.119851 0.187488 0.135811
H59   H     H_    0.707816 0.119896 0.812422 0.135811
H60   H     H_    0.792182 0.619852 0.187490 0.135811
H61   H     H_    0.207817 0.619883 0.812449 0.135811
H62   H     H_    0.354592 0.129931 0.312413 0.135866
H63   H     H_    0.645321 0.129975 0.687498 0.135863
H64   H     H_    0.854593 0.629931 0.312414 0.135866
H65   H     H_    0.145347 0.629962 0.687524 0.135864
H66   H     H_    0.351907 0.075578 0.203674 0.134321
H67   H     H_    0.898084 0.674297 0.296328 0.135835
H68   H     H_    0.648178 0.075578 0.796326 0.134320
H69   H     H_    0.851905 0.575578 0.203674 0.134321
H70   H     H_    0.148153 0.575578 0.796326 0.134320
H71   H     H_    0.395397 0.119946 0.187589 0.135359
H72   H     H_    0.604690 0.119901 0.812500 0.135360
H73   H     H_    0.895395 0.619945 0.187587 0.135360
H74   H     H_    0.104664 0.619914 0.812474 0.135359
H75   H     H_    0.457807 0.130025 0.312513 0.135915
H76   H     H_    0.542196 0.129980 0.687576 0.135919
H77   H     H_    0.957807 0.630024 0.312511 0.135916
H78   H     H_    0.101858 0.674297 0.703672 0.135836
H79   H     H_    0.042195 0.629993 0.687549 0.135918
H80   H     H_    0.096536 0.230009 0.912579 0.153752
N1    N     N_R   0.482905 0.275918 0.000105 -0.178588
N2    N     N_R   0.956864 0.249983 0.948034 -0.178641
N3    N     N_R   0.543136 0.749983 0.051966 -0.178641
N4    N     N_R   0.456864 0.749983 0.948034 -0.178641
N5    N     N_R   0.008849 0.249871 0.051978 -0.178642
N6    N     N_R   0.991151 0.249872 0.948022 -0.178642
N7    N     N_R   0.508849 0.749872 0.051978 -0.178642
N8    N     N_R   0.491151 0.749872 0.948022 -0.178642
N9    N     N_R   0.517093 0.275918 0.999891 -0.178588
N10   N     N_R   0.982906 0.775918 0.000106 -0.178588
N11   N     N_R   0.017093 0.775918 0.999892 -0.178588
N12   N     N_R   0.517207 0.223957 0.000119 -0.178641
N13   N     N_R   0.482794 0.223957 0.999884 -0.178641
N14   N     N_R   0.017207 0.723957 0.000118 -0.178641
N15   N     N_R   0.982794 0.723957 0.999883 -0.178641
N16   N     N_R   0.043136 0.249983 0.051966 -0.178641
O1    O     O_R   0.298140 0.236530 0.096350 -0.616318
O2    O     O_R   0.059590 0.469170 0.561630 -0.617340
O3    O     O_R   0.440410 0.969170 0.438370 -0.617340
O4    O     O_R   0.559590 0.969170 0.561630 -0.617340
O5    O     O_R   0.997920 0.469160 0.438370 -0.617362
O6    O     O_R   0.002080 0.469160 0.561630 -0.617362
O7    O     O_R   0.497920 0.969160 0.438370 -0.617362
O8    O     O_R   0.502080 0.969160 0.561630 -0.617362
O9    O     O_R   0.263350 0.201750 0.026760 -0.616216
O10   O     O_R   0.736650 0.201750 0.973240 -0.616216
O11   O     O_R   0.763350 0.701750 0.026760 -0.616216
O12   O     O_R   0.701860 0.236530 0.903650 -0.616318
O13   O     O_R   0.236650 0.701750 0.973240 -0.616216
O14   O     O_R   0.318280 0.267330 0.034740 -0.623877
O15   O     O_R   0.681720 0.267330 0.965260 -0.623877
O16   O     O_R   0.818280 0.767330 0.034740 -0.623877
O17   O     O_R   0.181720 0.767330 0.965260 -0.623877
O18   O     O_R   0.283490 0.232560 0.965160 -0.623917
O19   O     O_R   0.716510 0.232560 0.034840 -0.623917
O20   O     O_R   0.783490 0.732560 0.965160 -0.623917
O21   O     O_R   0.216510 0.732560 0.034840 -0.623917
O22   O     O_R   0.236540 0.298140 0.973130 -0.616308
O23   O     O_R   0.798140 0.736530 0.096350 -0.616318
O24   O     O_R   0.763460 0.298140 0.026870 -0.616308
O25   O     O_R   0.736540 0.798140 0.973130 -0.616308
O26   O     O_R   0.263460 0.798140 0.026870 -0.616308
O27   O     O_R   0.201750 0.263360 0.903540 -0.616218
O28   O     O_R   0.798250 0.263360 0.096460 -0.616218
O29   O     O_R   0.701750 0.763360 0.903540 -0.616218
O30   O     O_R   0.298250 0.763360 0.096460 -0.616218
O31   O     O_R   0.216410 0.267340 0.034730 -0.623897
O32   O     O_R   0.783590 0.267340 0.965270 -0.623898
O33   O     O_R   0.716410 0.767340 0.034730 -0.623897
O34   O     O_R   0.201860 0.736530 0.903650 -0.616318
O35   O     O_R   0.283590 0.767340 0.965270 -0.623898
O36   O     O_R   0.181620 0.232560 0.965150 -0.623967
O37   O     O_R   0.818380 0.232560 0.034850 -0.623968
O38   O     O_R   0.681620 0.732560 0.965150 -0.623968
O39   O     O_R   0.318380 0.732560 0.034850 -0.623968
O40   O     O_R   0.502030 0.030780 0.561620 -0.617469
O41   O     O_R   0.497970 0.030780 0.438380 -0.617470
O42   O     O_R   0.002030 0.530780 0.561620 -0.617469
O43   O     O_R   0.997970 0.530780 0.438380 -0.617470
O44   O     O_R   0.559540 0.030780 0.561620 -0.617457
O45   O     O_R   0.440460 0.030780 0.438380 -0.617457
O46   O     O_R   0.059540 0.530780 0.561620 -0.617457
O47   O     O_R   0.940460 0.530780 0.438380 -0.617457
O48   O     O_R   0.940410 0.469170 0.438370 -0.617340
Zn1   Zn    Zn3+2 0.273180 0.273170 0.046410 0.955465
Zn2   Zn    Zn3+2 0.538430 0.999970 0.500010 0.961971
Zn3   Zn    Zn3+2 0.961570 0.499970 0.499990 0.961971
Zn4   Zn    Zn3+2 0.038430 0.499970 0.500010 0.961971
Zn5   Zn    Zn3+2 0.726820 0.273170 0.953590 0.955465
Zn6   Zn    Zn3+2 0.773180 0.773170 0.046410 0.955465
Zn7   Zn    Zn3+2 0.226820 0.773170 0.953590 0.955465
Zn8   Zn    Zn3+2 0.226720 0.226730 0.953480 0.955672
Zn9   Zn    Zn3+2 0.773280 0.226730 0.046520 0.955671
Zn10  Zn    Zn3+2 0.726720 0.726730 0.953480 0.955672
Zn11  Zn    Zn3+2 0.273280 0.726730 0.046520 0.955672
Zn12  Zn    Zn3+2 0.461570 0.999970 0.499990 0.961971

loop_
_geom_bond_atom_site_label_1
_geom_bond_atom_site_label_2
_ccdc_geom_bond_type
C111  O34   A    
C21   C26   S    
C34   C56   S    
O40   Zn12  S    
C66   H12   S    
C117  O18   A    
C8    C26   S    
C107  C112  S    
C106  H67   S    
N4    N8    A    
C51   H30   S    
C151  H8    S    
C79   C121  S    
C91   H58   S    
C46   O2    A    
C98   C138  T    
O3    Zn12  S    
C160  H13   S    
N3    N7    A    
C175  N6    A    
C132  H69   S    
C5    C36   S    
C128  C132  S    
O10   Zn9   S    
C73   H43   S    
C32   C45   S    
C149  C153  A    
N5    N16   A    
C146  C150  A    
C109  C127  S    
C162  C171  A    
C21   H44   S    
C70   C74   A    
C163  H16   S    
C102  C141  T    
C112  C129  S    
C84   H54   S    
O32   Zn5   S    
C93   C110  S    
C49   H28   S    
O44   Zn2   S    
C120  O17   A    
C100  O23   A    
C85   C144  A    
C5    H24   S    
C4    C34   S    
C25   C29   S    
O47   Zn3   S    
C84   C133  A    
C86   H57   S    
O24   Zn5   S    
O48   Zn3   S    
C112  C138  S    
C64   O47   A    
N1    N9    A    
C31   C44   S    
C28   C54   S    
C24   C76   S    
C29   C55   S    
C82   H52   S    
C120  C155  S    
C107  H78   S    
O34   Zn7   S    
C48   H27   S    
C9    H19   S    
C19   C68   S    
C65   C122  A    
C163  C172  A    
C118  O15   A    
O20   Zn10  S    
C108  C135  S    
O13   Zn11  S    
C22   C27   S    
C149  H6    S    
C33   C47   S    
C118  O19   A    
C34   C48   S    
C2    N13   A    
C152  C157  A    
C128  H73   S    
C7    C25   S    
C90   C107  S    
C27   C53   S    
C35   O48   A    
C68   O8    A    
C72   H42   S    
C106  C115  S    
C33   C38   S    
C42   O35   A    
C89   C96   S    
C1    O9    A    
C37   C50   S    
C77   C82   A    
C3    N3    A    
O26   Zn7   S    
O23   Zn6   S    
O28   Zn9   S    
C92   C109  S    
C127  C131  S    
C62   C99   S    
C73   C77   A    
C31   C36   S    
C127  H72   S    
C108  C126  S    
C134  H70   S    
C40   C171  S    
C110  C128  S    
O27   Zn8   S    
C47   H35   S    
C63   O46   A    
C147  C151  A    
C85   H55   S    
C121  C130  S    
C88   C124  S    
C33   H39   S    
C64   C102  S    
C89   O10   A    
C29   C47   S    
C45   C50   S    
O7    Zn2   S    
O4    Zn2   S    
C157  H9    S    
C65   C70   A    
C124  C132  S    
C67   C72   A    
C159  H11   S    
C153  C158  A    
O38   Zn10  S    
C16   C169  S    
C90   C125  S    
C61   O44   A    
C148  H5    S    
O11   Zn10  S    
C18   C35   S    
C79   C91   S    
C32   H38   S    
C4    H22   S    
O21   Zn11  S    
C99   C139  T    
N2    N6    A    
C97   C137  T    
C18   C58   T    
C93   H60   S    
C143  C148  A    
C87   H63   S    
C30   C34   S    
C105  H56   S    
C156  C160  A    
C9    C49   S    
C6    H25   S    
C15   C54   T    
C12   C165  S    
C113  C126  S    
C19   C59   T    
C23   C28   S    
C3    C154  S    
C45   H33   S    
C115  C128  S    
C61   C101  S    
C117  C122  S    
C5    C9    S    
C10   H20   S    
O43   Zn4   S    
C94   H61   S    
C87   C105  S    
C1    C95   S    
O9    Zn8   S    
C32   C37   S    
C69   C73   A    
C17   C56   T    
C37   C59   S    
C38   C60   S    
C114  C123  S    
C23   H47   S    
C62   O45   A    
C116  C125  S    
C124  C141  S    
C64   O43   A    
C97   C100  S    
C167  O24   A    
C105  C109  S    
O19   Zn9   S    
C89   O12   A    
C24   N10   A    
C126  H71   S    
O37   Zn9   S    
C148  C152  A    
C143  C170  A    
C161  H14   S    
C165  O27   A    
C31   H37   S    
O1    Zn1   S    
C113  H75   S    
O46   Zn4   S    
C143  H80   S    
C121  C139  S    
C39   O36   A    
C154  C159  A    
C87   C123  S    
C130  H66   S    
C65   H1    S    
C94   C112  S    
O31   Zn1   S    
C83   C122  A    
C15   C168  S    
C107  C116  S    
C104  C113  S    
C2    N1    A    
C113  C121  S    
C3    N8    A    
C69   H34   S    
C79   H62   S    
C80   H50   S    
C27   C44   S    
C175  N16   A    
C81   C85   A    
C25   C33   S    
C125  C134  S    
C167  O28   A    
C42   O39   A    
O12   Zn5   S    
O41   Zn2   S    
C80   C84   A    
C96   C136  T    
C22   H46   S    
C160  C164  A    
C67   H23   S    
C131  H68   S    
C38   C51   S    
C126  C130  S    
C88   H64   S    
C25   H48   S    
O30   Zn11  S    
C152  C175  S    
C78   C83   A    
C145  H2    S    
C8    H18   S    
C20   C60   T    
C81   H51   S    
C169  O26   A    
C72   C76   A    
O39   Zn11  S    
C78   H49   S    
C87   C92   S    
C119  C144  S    
O35   Zn7   S    
C67   C144  A    
C158  H10   S    
C162  H15   S    
C12   C52   T    
C90   C94   S    
C57   O3    A    
C41   O38   A    
C43   H31   S    
C63   C103  S    
C40   O37   A    
C176  N4    A    
C61   O40   A    
O16   Zn6   S    
C83   H53   S    
C82   C86   A    
C153  C174  S    
C119  O20   A    
C86   C155  A    
C8    C48   S    
C174  N2    A    
O36   Zn8   S    
C66   C71   A    
O22   Zn1   S    
C114  H76   S    
C151  C156  A    
C150  H7    S    
O5    Zn4   S    
C168  O29   A    
C10   C50   S    
C157  C161  A    
C104  C108  S    
C9    C27   S    
C10   C28   S    
C129  H74   S    
C156  C176  S    
C115  C124  S    
C123  C131  S    
C91   C108  S    
C110  C137  S    
O8    Zn12  S    
C6    C10   S    
C47   C51   S    
C147  C173  A    
C39   C170  S    
C21   C30   S    
C92   H59   S    
C71   H41   S    
C23   C32   S    
C174  N5    A    
C114  C127  S    
C62   O41   A    
C100  O11   A    
C41   O33   A    
C46   O6    A    
C166  N9    A    
C146  H3    S    
C75   C166  S    
O14   Zn1   S    
O17   Zn7   S    
C129  C134  S    
O42   Zn3   S    
O15   Zn5   S    
C75   C80   A    
N12   N13   A    
C74   C78   A    
N14   N15   A    
C14   C167  S    
C145  C149  A    
C36   C49   S    
C116  H79   S    
C44   C49   S    
C145  C171  A    
C146  C172  A    
C4    C8    S    
C91   C130  S    
C7    C11   S    
C69   C155  A    
C120  O21   A    
C7    H26   S    
C36   C58   S    
C30   H36   S    
O2    Zn4   S    
C44   H32   S    
C39   O31   A    
C40   O32   A    
C147  H4    S    
C116  C129  S    
C115  H77   S    
C43   C48   S    
C1    O1    A    
C2    C74   S    
C109  C136  S    
C13   N11   A    
C101  C140  T    
C26   C43   S    
O45   Zn12  S    
O6    Zn3   S    
C41   C172  S    
C13   C77   S    
C28   C45   S    
C22   C31   S    
C5    C22   S    
C24   N15   A    
C105  C114  S    
C164  C173  A    
C92   C131  S    
C17   C46   S    
C164  H17   S    
C123  C140  S    
O29   Zn10  S    
C169  O30   A    
C11   H21   S    
C26   C52   S    
C66   C133  A    
C88   C106  S    
C176  N7    A    
C68   O4    A    
C125  C142  S    
C14   C53   T    
C95   C135  T    
C111  O13   A    
C6    C37   S    
C118  C133  S    
C161  C170  A    
C57   O7    A    
O33   Zn6   S    
C159  C163  A    
C79   C104  S    
C93   C132  S    
C103  C142  T    
O18   Zn8   S    
C104  H45   S    
C106  C110  S    
C88   C93   S    
C98   C111  S    
C35   O5    A    
C42   C173  S    
C76   C81   A    
C165  O22   A    
C63   O42   A    
C70   H40   S    
C20   C57   S    
C16   C55   T    
C13   N14   A    
C71   C75   A    
C4    C21   S    
C6    C23   S    
C168  O25   A    
C94   C134  S    
C7    C38   S    
C30   C43   S    
C11   C51   S    
N10   N11   A    
C158  C162  A    
C50   H29   S    
C11   C29   S    
C150  C154  A    
C90   H65   S    
C166  N12   A    
O25   Zn6   S    
C117  O14   A    
C119  O16   A    
