data_mof_unit_62919.cif
_audit_creation_date              2012-10-26T18:23:15-0400
_audit_creation_method            fapswitch 2.2
_symmetry_space_group_name_H-M    P1
_symmetry_Int_Tables_number       1
_space_group_crystal_system       triclinic
_cell_length_a                    41.264118
_cell_length_b                    35.749826
_cell_length_c                    35.722082
_cell_angle_alpha                 89.999168
_cell_angle_beta                  148.338198
_cell_angle_gamma                 89.994218
_cell_volume                      27660.714542

loop_
_atom_site_label
_atom_site_type_symbol
_atom_type_description
_atom_site_fract_x
_atom_site_fract_y
_atom_site_fract_z
_atom_type_partial_charge
C1    C     C_R   0.000747 0.000031 0.073020 0.586177
C2    C     C_R   0.716485 0.028845 0.740621 0.101497
C3    C     C_R   0.473892 0.672541 0.444235 0.102211
C4    C     C_R   0.025478 0.133025 0.555763 0.074451
C5    C     C_R   0.973902 0.133129 0.444061 0.074666
C6    C     C_R   0.525324 0.632996 0.555688 0.074538
C7    C     C_R   0.474160 0.633126 0.444265 0.073523
C8    C     C_R   0.999881 0.113372 0.500009 -0.009595
C9    C     C_R   0.499901 0.613361 0.500043 -0.009627
C10   C     C_R   0.999096 0.192013 0.499603 -0.007084
C11   C     C_R   0.499230 0.691994 0.499748 -0.007956
C12   C     C_1   0.998869 0.232372 0.499506 0.081972
C13   C     C_R   0.783521 0.528683 0.259237 0.102695
C14   C     C_1   0.499040 0.732350 0.499693 0.082076
C15   C     C_1   0.499022 0.766081 0.499714 0.081075
C16   C     C_1   0.998846 0.266105 0.499515 0.079990
C17   C     C_R   0.555027 0.825758 0.558928 0.098205
C18   C     C_R   0.443662 0.825990 0.440740 0.117049
C19   C     C_R   0.055046 0.325762 0.558227 0.098145
C20   C     C_R   0.943397 0.326053 0.441227 0.097370
C21   C     C_R   0.219988 0.920384 0.279456 0.217154
C22   C     C_R   0.779449 0.919766 0.720891 0.196960
C23   C     C_R   0.719789 0.421090 0.279955 0.213529
C24   C     C_R   0.216488 0.528801 0.740676 0.101491
C25   C     C_R   0.279667 0.420058 0.720749 0.198187
C26   C     C_R   0.555394 0.865287 0.561378 0.151759
C27   C     C_R   0.443863 0.865477 0.438088 0.207703
C28   C     C_R   0.055475 0.365278 0.560914 0.156107
C29   C     C_R   0.943615 0.365525 0.438439 0.154411
C30   C     C_R   0.499743 0.885748 0.499759 -0.060366
C31   C     C_R   0.999692 0.385757 0.499710 -0.057344
C32   C     C_R   0.499215 0.806481 0.499836 -0.057570
C33   C     C_R   0.999077 0.306507 0.499675 -0.053465
C34   C     C_R   0.949941 0.827020 0.466518 0.109329
C35   C     C_R   0.313335 0.007058 0.316497 0.049978
C36   C     C_R   0.049717 0.826910 0.533340 0.109284
C37   C     C_R   0.449926 0.327018 0.466511 0.109379
C38   C     C_R   0.549684 0.326900 0.533295 0.109301
C39   C     C_R   0.953840 0.866121 0.474867 0.203301
C40   C     C_R   0.046028 0.866019 0.525177 0.203130
C41   C     C_R   0.453833 0.366119 0.474866 0.203535
C42   C     C_R   0.546009 0.366012 0.525153 0.203240
C43   C     C_R   0.999971 0.886276 0.500041 -0.039867
C44   C     C_R   0.499964 0.386273 0.500037 -0.039803
C45   C     C_R   0.999766 0.807495 0.499857 -0.056279
C46   C     C_R   0.686680 0.007173 0.683531 0.050099
C47   C     C_R   0.499735 0.307489 0.499823 -0.056230
C48   C     C_1   0.999630 0.767222 0.499713 0.132199
C49   C     C_1   0.499587 0.267215 0.499662 0.132322
C50   C     C_1   0.499463 0.233536 0.499532 0.164074
C51   C     C_1   0.999519 0.733544 0.499594 0.163962
C52   C     C_R   0.476291 0.173499 0.507930 0.203729
C53   C     C_R   0.522571 0.173568 0.491012 0.204480
C54   C     C_R   0.976246 0.673506 0.507857 0.203697
C55   C     C_R   0.022731 0.673577 0.491200 0.204354
C56   C     C_R   0.270213 0.936986 0.347790 0.121515
C57   C     C_R   0.813335 0.507230 0.316514 0.052401
C58   C     C_R   0.729175 0.936209 0.652456 0.137747
C59   C     C_R   0.769778 0.437952 0.348075 0.120761
C60   C     C_R   0.229439 0.436578 0.652379 0.139029
C61   C     C_R   0.467285 0.134471 0.495968 0.193034
C62   C     C_R   0.531971 0.134590 0.503366 0.197338
C63   C     C_R   0.967248 0.634482 0.495884 0.192807
C64   C     C_R   0.032102 0.634597 0.503532 0.197168
C65   C     C_R   0.499733 0.114288 0.499761 -0.075823
C66   C     C_R   0.999776 0.614295 0.499801 -0.075680
C67   C     C_R   0.499394 0.193172 0.499441 -0.071499
C68   C     C_R   0.186688 0.507195 0.683532 0.050019
C69   C     C_R   0.999458 0.693181 0.499507 -0.071460
C70   C     C_R   0.296686 0.970297 0.359858 0.171941
C71   C     C_R   0.703135 0.969760 0.640383 0.234240
C72   C     C_R   0.796401 0.471098 0.359976 0.172785
C73   C     C_R   0.203271 0.470033 0.640341 0.235290
C74   C     C_R   0.277628 0.983910 0.305501 -0.020086
C75   C     C_R   0.722420 0.983892 0.694684 -0.029696
C76   C     C_R   0.777567 0.484314 0.305646 -0.018317
C77   C     C_R   0.222456 0.484004 0.694633 -0.029537
C78   C     C_R   0.219932 0.972711 0.235562 -0.051882
C79   C     C_R   0.951734 0.989247 0.278693 0.104723
C80   C     C_R   0.780044 0.972673 0.764662 -0.055886
C81   C     C_R   0.719933 0.472993 0.235806 -0.050142
C82   C     C_R   0.280071 0.472750 0.764581 -0.056054
C83   C     C_R   0.186897 0.998127 0.180130 0.014055
C84   C     C_R   0.813109 0.998179 0.819982 0.014474
C85   C     C_R   0.686901 0.498193 0.180171 0.013426
C86   C     C_R   0.313116 0.498183 0.819967 0.014359
C87   C     C_R   0.048445 0.989269 0.721457 0.104626
C88   C     C_R   0.451701 0.489161 0.278674 0.104774
C89   C     C_R   0.999305 0.000031 0.927041 0.587850
C90   C     C_R   0.548483 0.489192 0.721481 0.103155
C91   C     C_R   0.955888 0.982325 0.321540 0.226679
C92   C     C_R   0.044261 0.982344 0.678584 0.226615
C93   C     C_R   0.455868 0.482266 0.321538 0.226662
C94   C     C_R   0.544265 0.482287 0.678573 0.227455
C95   C     C_R   0.002392 0.000840 0.388496 -0.024630
C96   C     C_R   0.997630 0.000788 0.611533 -0.024423
C97   C     C_R   0.502390 0.500789 0.388492 -0.024611
C98   C     C_R   0.497645 0.500761 0.611548 -0.025404
C99   C     C_R   0.048774 0.021591 0.415110 0.058617
C100  C     C_R   0.500735 0.500030 0.073007 0.586350
C101  C     C_R   0.951147 0.021433 0.584855 0.058967
C102  C     C_R   0.548794 0.521503 0.415105 0.058708
C103  C     C_R   0.451212 0.521432 0.584934 0.053518
C104  C     C_R   0.050427 0.021717 0.377300 0.097673
C105  C     C_R   0.949525 0.021506 0.622698 0.097881
C106  C     C_R   0.550420 0.521607 0.377269 0.097582
C107  C     C_R   0.449649 0.521527 0.622836 0.104189
C108  C     C_R   0.001118 0.006354 0.308423 -0.034217
C109  C     C_R   0.998976 0.006252 0.691686 -0.034048
C110  C     C_R   0.501078 0.506255 0.308380 -0.034207
C111  C     C_R   0.499321 0.500029 0.927059 0.586710
C112  C     C_R   0.499066 0.506211 0.691776 -0.033298
C113  C     C_1   0.001839 0.006951 0.268656 0.109461
C114  C     C_1   0.998335 0.006846 0.731537 0.109583
C115  C     C_1   0.501755 0.506858 0.268571 0.109436
C116  C     C_1   0.498437 0.506777 0.731642 0.107713
C117  C     C_R   0.119139 0.999600 0.115719 0.585900
C118  C     C_R   0.880868 0.999612 0.884345 0.583209
C119  C     C_R   0.619140 0.499611 0.115722 0.583138
C120  C     C_R   0.380871 0.499613 0.884345 0.583719
C121  C     C_1   0.002378 0.006509 0.235372 0.135765
C122  C     C_R   0.219212 0.025780 0.191745 0.081170
C123  C     C_1   0.997856 0.006420 0.764883 0.135618
C124  C     C_1   0.502259 0.506434 0.235255 0.135703
C125  C     C_1   0.497949 0.506337 0.764980 0.109830
C126  C     C_R   0.969643 0.976585 0.144415 0.077335
C127  C     C_R   0.031096 0.976760 0.856394 0.077698
C128  C     C_R   0.469609 0.476513 0.144360 0.077454
C129  C     C_R   0.531231 0.476732 0.856559 0.084954
C130  C     C_R   0.965830 0.976309 0.101373 0.052806
C131  C     C_R   0.034807 0.976523 0.899340 0.054426
C132  C     C_R   0.465834 0.476245 0.101354 0.052958
C133  C     C_R   0.780803 0.025934 0.808258 0.082024
C134  C     C_R   0.534907 0.476513 0.899472 0.052097
C135  C     C_R   0.003842 0.000444 0.117550 -0.052974
C136  C     C_R   0.996323 0.000435 0.882636 -0.052297
C137  C     C_R   0.503780 0.500441 0.117489 -0.053114
C138  C     C_R   0.496372 0.500419 0.882691 -0.050682
C139  C     C_R   0.043911 0.025748 0.175659 0.205870
C140  C     C_R   0.955904 0.025509 0.824151 0.205806
C141  C     C_R   0.543721 0.525805 0.175495 0.205830
C142  C     C_R   0.455924 0.525460 0.824158 0.210258
C143  C     C_R   0.036663 0.031505 0.207529 0.231677
C144  C     C_R   0.719200 0.525750 0.191627 0.083133
C145  C     C_R   0.963129 0.031282 0.792261 0.231576
C146  C     C_R   0.536422 0.531530 0.207315 0.231604
C147  C     C_R   0.463129 0.531197 0.792245 0.181887
C148  C     C_R   0.002639 0.005152 0.195128 -0.031990
C149  C     C_R   0.997624 0.005109 0.805163 -0.032445
C150  C     C_R   0.502502 0.505111 0.194993 -0.031959
C151  C     C_R   0.497694 0.505039 0.805238 -0.051237
C152  C     C_R   0.499903 0.927551 0.499904 0.623171
C153  C     C_R   0.999883 0.427555 0.499884 0.623587
C154  C     C_R   0.380923 0.003204 0.381797 0.602907
C155  C     C_R   0.280807 0.525886 0.808306 0.081940
C156  C     C_R   0.619055 0.003363 0.618182 0.605719
C157  C     C_R   0.880927 0.503262 0.381803 0.605050
C158  C     C_R   0.119060 0.503354 0.618186 0.606555
C159  C     C_R   0.499944 0.072427 0.499949 0.603513
C160  C     C_R   0.999967 0.572429 0.499970 0.604239
C161  C     C_R   0.197772 0.937167 0.224632 0.101682
C162  C     C_R   0.801976 0.936939 0.775747 0.106437
C163  C     C_R   0.697814 0.437534 0.225144 0.108923
C164  C     C_R   0.302058 0.437073 0.775585 0.106728
C165  C     C_R   0.000000 0.927849 0.500019 0.640126
C166  C     C_R   0.283522 0.028683 0.259361 0.100672
C167  C     C_R   0.499999 0.427848 0.500020 0.640361
C168  C     C_R   0.000791 0.000259 0.428499 0.594266
C169  C     C_R   0.999212 0.000248 0.571505 0.594321
C170  C     C_R   0.500791 0.500246 0.428499 0.594396
C171  C     C_R   0.499213 0.500237 0.571507 0.594700
C172  C     C_R   0.999984 0.072165 0.500004 0.545899
C173  C     C_R   0.499986 0.572161 0.500012 0.546004
C174  C     C_R   0.025058 0.172444 0.555467 0.102753
C175  C     C_R   0.973532 0.172546 0.443948 0.102691
C176  C     C_R   0.524914 0.672413 0.555417 0.102661
Cu1   Cu    Cu3+1 0.000000 0.037260 0.000000 1.235771
Cu2   Cu    Cu3+1 0.938190 0.000100 0.438180 1.239765
Cu3   Cu    Cu3+1 0.561810 0.500100 0.561820 1.239544
Cu4   Cu    Cu3+1 0.438190 0.500100 0.438180 1.238842
Cu5   Cu    Cu3+1 0.500000 0.537260 0.000000 1.234514
Cu6   Cu    Cu3+1 1.000000 0.962750 0.000000 1.121353
Cu7   Cu    Cu3+1 0.500000 0.462750 0.000000 1.117143
Cu8   Cu    Cu3+1 0.500010 0.000000 0.462750 1.240632
Cu9   Cu    Cu3+1 0.499990 0.000000 0.537250 1.212287
Cu10  Cu    Cu3+1 0.000010 0.500000 0.462750 1.231019
Cu11  Cu    Cu3+1 0.999990 0.500000 0.537250 1.212887
Cu12  Cu    Cu3+1 0.061810 0.000100 0.561820 1.240118
H1    H     H_    0.198583 0.067354 0.315753 0.406153
H2    H     H_    0.300912 0.877992 0.244874 0.390377
H3    H     H_    0.129566 0.368723 0.701727 0.354067
H4    H     H_    0.867398 0.366279 0.296141 0.355786
H5    H     H_    0.854851 0.872747 0.460828 0.388574
H6    H     H_    0.145288 0.872400 0.539583 0.388843
H7    H     H_    0.354856 0.372755 0.460844 0.388171
H8    H     H_    0.645259 0.372396 0.539544 0.388643
H9    H     H_    0.451657 0.182690 0.584950 0.391426
H10   H     H_    0.546634 0.182693 0.413388 0.390223
H11   H     H_    0.951217 0.682652 0.584453 0.391497
H12   H     H_    0.800105 0.065605 0.683095 0.405211
H13   H     H_    0.047122 0.682689 0.413928 0.390412
H14   H     H_    0.406901 0.085961 0.518092 0.406751
H15   H     H_    0.592589 0.088366 0.480716 0.389250
H16   H     H_    0.906498 0.586348 0.517676 0.407207
H17   H     H_    0.092811 0.588630 0.480943 0.389401
H18   H     H_    0.088512 0.899341 0.159349 0.349558
H19   H     H_    0.910588 0.898456 0.840412 0.348342
H20   H     H_    0.588337 0.399726 0.159400 0.348083
H21   H     H_    0.410853 0.398803 0.840401 0.348314
H22   H     H_    0.407808 0.969005 0.507467 0.333690
H23   H     H_    0.697985 0.567980 0.315294 0.406426
H24   H     H_    0.586810 0.010487 0.463698 0.368773
H25   H     H_    0.907360 0.470425 0.508170 0.334002
H26   H     H_    0.087007 0.510916 0.463761 0.368602
H27   H     H_    0.857591 0.898739 0.226630 0.390423
H28   H     H_    0.142979 0.898916 0.773875 0.390640
H29   H     H_    0.357568 0.398682 0.226698 0.390456
H30   H     H_    0.642870 0.398811 0.773696 0.390447
H31   H     H_    0.300201 0.565676 0.683178 0.405657
H32   H     H_    0.041116 0.106845 0.281518 0.390875
H33   H     H_    0.957643 0.106630 0.717277 0.390917
H34   H     H_    0.540580 0.606766 0.281132 0.391088
H35   H     H_    0.519468 0.590930 0.801838 0.351893
H36   H     H_    0.627646 0.869638 0.701026 0.353686
I1    I     I_    0.171923 0.058977 0.104245 -0.141928
I2    I     I_    0.075353 0.933744 0.868038 -0.107472
I3    I     I_    0.426294 0.433197 0.133715 -0.106744
I4    I     I_    0.575639 0.433749 0.868390 -0.109048
I5    I     I_    0.898948 0.941131 0.009039 -0.136154
I6    I     I_    0.102162 0.941751 0.992301 -0.149142
I7    I     I_    0.399102 0.440975 0.009130 -0.136603
I8    I     I_    0.602244 0.441755 0.992486 -0.140958
I9    I     I_    0.063161 0.203199 0.638911 -0.138245
I10   I     I_    0.934764 0.203461 0.360153 -0.138626
I11   I     I_    0.562597 0.703139 0.638594 -0.134604
I12   I     I_    0.828100 0.059252 0.895651 -0.140665
I13   I     I_    0.435656 0.703464 0.360805 -0.124508
I14   I     I_    0.062184 0.102908 0.638713 -0.173390
I15   I     I_    0.937766 0.103187 0.361403 -0.173107
I16   I     I_    0.561805 0.602854 0.638466 -0.170646
I17   I     I_    0.438209 0.603189 0.361733 -0.173640
I18   I     I_    0.638847 0.793289 0.643422 -0.023595
I19   I     I_    0.359354 0.793979 0.356819 -0.023672
I20   I     I_    0.138933 0.293320 0.641505 -0.026761
I21   I     I_    0.858983 0.294177 0.358895 -0.028177
I22   I     I_    0.867502 0.796802 0.399257 0.015599
I23   I     I_    0.671861 0.558737 0.103936 -0.156398
I24   I     I_    0.132052 0.796524 0.600612 0.016546
I25   I     I_    0.367500 0.296797 0.399293 0.015371
I26   I     I_    0.631994 0.296500 0.600517 0.015213
I27   I     I_    0.166266 0.900585 0.150096 -0.065605
I28   I     I_    0.833235 0.900780 0.850427 0.015984
I29   I     I_    0.667257 0.400594 0.151608 0.016911
I30   I     I_    0.333160 0.400732 0.850004 0.015465
I31   I     I_    0.313654 0.909506 0.436924 -0.014738
I32   I     I_    0.684412 0.908239 0.562809 0.058214
I33   I     I_    0.812821 0.410979 0.437250 -0.014527
I34   I     I_    0.328117 0.559112 0.895781 -0.140305
I35   I     I_    0.184872 0.408807 0.562728 0.048229
I36   I     I_    0.334547 0.068608 0.276976 -0.091472
I37   I     I_    0.665401 0.068721 0.722988 -0.083678
I38   I     I_    0.834536 0.568421 0.276615 -0.094698
I39   I     I_    0.165413 0.568596 0.723156 -0.083601
I40   I     I_    0.867487 0.979078 0.166166 -0.059674
I41   I     I_    0.132851 0.979321 0.834050 -0.059700
I42   I     I_    0.367460 0.478948 0.166158 -0.059636
I43   I     I_    0.632888 0.479181 0.834051 -0.073601
I44   I     I_    0.113943 0.055951 0.508900 -0.131909
I45   I     I_    0.126872 0.045753 0.423251 -0.069710
I46   I     I_    0.885780 0.055729 0.490935 -0.133070
I47   I     I_    0.614056 0.555833 0.508948 -0.131704
I48   I     I_    0.385806 0.555713 0.490985 -0.129577
I49   I     I_    0.872884 0.045280 0.576585 -0.074114
I50   I     I_    0.626881 0.545582 0.423201 -0.069588
I51   I     I_    0.373192 0.545479 0.576932 -0.015492
I52   I     I_    0.926256 0.933311 0.133719 -0.106717
O1    O     O_R   0.000000 0.031470 0.054370 -0.458360
O2    O     O_R   0.052180 0.000130 0.606560 -0.458662
O3    O     O_2   0.490321 0.228119 0.410713 -0.249823
O4    O     O_2   0.600479 0.214580 0.526011 -0.197012
O5    O     O_3   0.532523 0.167978 0.421391 -0.430262
O6    O     O_2   0.007393 0.728265 0.587119 -0.249705
O7    O     O_2   0.897480 0.714209 0.471728 -0.196893
O8    O     O_3   0.965741 0.667977 0.576924 -0.426492
O9    O     O_2   0.990676 0.728139 0.411055 -0.250089
O10   O     O_2   0.100801 0.714566 0.526445 -0.196334
O11   O     O_3   0.032922 0.667982 0.421828 -0.431146
O12   O     O_2   0.361274 0.139449 0.432142 -0.170503
O13   O     O_R   0.447820 0.500130 0.393440 -0.458657
O14   O     O_2   0.376872 0.083889 0.409460 -0.264253
O15   O     O_3   0.441140 0.090166 0.533875 -0.420287
O16   O     O_2   0.638053 0.140130 0.567452 -0.170243
O17   O     O_2   0.623307 0.084618 0.591146 -0.263610
O18   O     O_3   0.559199 0.090227 0.466734 -0.450323
O19   O     O_2   0.861016 0.639483 0.431609 -0.170689
O20   O     O_2   0.876797 0.583962 0.409072 -0.264138
O21   O     O_3   0.940686 0.590132 0.533280 -0.419458
O22   O     O_2   0.138320 0.640118 0.567887 -0.169688
O23   O     O_2   0.123425 0.584645 0.591468 -0.263306
O24   O     O_R   0.552180 0.500130 0.606560 -0.458703
O25   O     O_3   0.059536 0.590192 0.467175 -0.450556
O26   O     O_2   0.218355 0.845976 0.285855 -0.143902
O27   O     O_2   0.177148 0.882539 0.297570 -0.213649
O28   O     O_3   0.110075 0.876292 0.172387 -0.443032
O29   O     O_2   0.780677 0.845235 0.715224 -0.141313
O30   O     O_2   0.821180 0.880954 0.702045 -0.219425
O31   O     O_3   0.889134 0.875506 0.827839 -0.445505
O32   O     O_2   0.718644 0.346765 0.287548 -0.141661
O33   O     O_2   0.676387 0.383719 0.297646 -0.215176
O34   O     O_3   0.610230 0.376687 0.173063 -0.447077
O35   O     O_R   0.052220 0.054460 0.552220 -0.498381
O36   O     O_2   0.280942 0.345563 0.714780 -0.141325
O37   O     O_2   0.321649 0.381535 0.702030 -0.219136
O38   O     O_3   0.389366 0.375817 0.827667 -0.445994
O39   O     O_2   0.287844 0.998670 0.420592 -0.187859
O40   O     O_2   0.316059 0.041790 0.398702 -0.201834
O41   O     O_3   0.399627 0.995606 0.505271 -0.453460
O42   O     O_2   0.712200 0.998019 0.580019 -0.213516
O43   O     O_2   0.678088 0.040627 0.595387 -0.232561
O44   O     O_3   0.600308 0.990544 0.494391 -0.485092
O45   O     O_2   0.787722 0.500005 0.420689 -0.188991
O46   O     O_R   0.947780 0.054460 0.447780 -0.498677
O47   O     O_2   0.814883 0.542814 0.397307 -0.201292
O48   O     O_3   0.899324 0.497286 0.504866 -0.453604
O49   O     O_2   0.212220 0.498542 0.579958 -0.214160
O50   O     O_2   0.178309 0.540978 0.595713 -0.231308
O51   O     O_3   0.100373 0.491041 0.494438 -0.487076
O52   O     O_2   0.935312 0.929779 0.354851 -0.248180
O53   O     O_2   0.847085 0.967333 0.247146 -0.222455
O54   O     O_3   0.888641 0.914710 0.244553 -0.453663
O55   O     O_2   0.064966 0.929799 0.645419 -0.248027
O56   O     O_2   0.153060 0.967507 0.752884 -0.222462
O57   O     O_R   0.552220 0.554460 0.552220 -0.498626
O58   O     O_3   0.111883 0.914848 0.755927 -0.453468
O59   O     O_2   0.435300 0.429760 0.354897 -0.248219
O60   O     O_2   0.347071 0.467301 0.247169 -0.222585
O61   O     O_3   0.388614 0.414643 0.244601 -0.453645
O62   O     O_2   0.564900 0.429766 0.645302 -0.248163
O63   O     O_2   0.653042 0.467417 0.752839 -0.222665
O64   O     O_3   0.611795 0.414750 0.755778 -0.452642
O65   O     O_R   0.447780 0.554460 0.447780 -0.498764
O66   O     O_R   0.000010 0.968540 0.054390 -0.503681
O67   O     O_R   0.999990 0.968540 0.945610 -0.501894
O68   O     O_R   0.500010 0.468540 0.054390 -0.504696
O69   O     O_R   0.000000 0.031470 0.945630 -0.458627
O70   O     O_R   0.499990 0.468540 0.945610 -0.503055
O71   O     O_R   0.090180 0.031470 0.090180 -0.456793
O72   O     O_R   0.909820 0.031470 0.909820 -0.456644
O73   O     O_R   0.590180 0.531470 0.090180 -0.455541
O74   O     O_R   0.409820 0.531470 0.909820 -0.456179
O75   O     O_R   0.090190 0.968540 0.090200 -0.507069
O76   O     O_R   0.909810 0.968540 0.909800 -0.511390
O77   O     O_R   0.590190 0.468540 0.090200 -0.512052
O78   O     O_R   0.409810 0.468540 0.909800 -0.511204
O79   O     O_R   0.500020 0.945640 0.468560 -0.454581
O80   O     O_R   0.500000 0.531470 0.054370 -0.457625
O81   O     O_R   0.499980 0.945640 0.531440 -0.500432
O82   O     O_R   0.000020 0.445640 0.468560 -0.464550
O83   O     O_R   0.999980 0.445640 0.531440 -0.496282
O84   O     O_R   0.409830 1.000000 0.378360 -0.478446
O85   O     O_R   0.590170 0.000000 0.621640 -0.480118
O86   O     O_R   0.909830 0.500000 0.378360 -0.479290
O87   O     O_R   0.090170 0.500000 0.621640 -0.480410
O88   O     O_R   0.409830 0.000010 0.441300 -0.472273
O89   O     O_R   0.590170 0.000010 0.558700 -0.444556
O90   O     O_R   0.909830 0.500010 0.441300 -0.471681
O91   O     O_R   0.500000 0.531470 0.945630 -0.459504
O92   O     O_R   0.090170 0.500010 0.558700 -0.443337
O93   O     O_R   0.500000 0.054360 0.468520 -0.455558
O94   O     O_R   0.500000 0.054360 0.531480 -0.446931
O95   O     O_R   0.000000 0.554360 0.468520 -0.454883
O96   O     O_R   0.000000 0.554360 0.531480 -0.446542
O97   O     O_R   0.052170 0.945740 0.552190 -0.437875
O98   O     O_R   0.947830 0.945740 0.447810 -0.438044
O99   O     O_R   0.552170 0.445740 0.552190 -0.437826
O100  O     O_R   0.447830 0.445740 0.447810 -0.437963
O101  O     O_2   0.131210 0.018002 0.208602 -0.316084
O102  O     O_R   0.052200 0.000100 0.497840 -0.474745
O103  O     O_2   0.087431 0.080626 0.174155 -0.199963
O104  O     O_3   0.166786 0.055838 0.300746 -0.390073
O105  O     O_2   0.868695 0.017328 0.791265 -0.319388
O106  O     O_2   0.911612 0.080164 0.824916 -0.198662
O107  O     O_3   0.832606 0.055046 0.698647 -0.391790
O108  O     O_2   0.631084 0.518286 0.208495 -0.316764
O109  O     O_2   0.586960 0.580811 0.173777 -0.199939
O110  O     O_3   0.666438 0.556126 0.300465 -0.389883
O111  O     O_2   0.368782 0.517360 0.791392 -0.318299
O112  O     O_2   0.411676 0.580184 0.824890 -0.201154
O113  O     O_R   0.947800 0.000100 0.502160 -0.474622
O114  O     O_3   0.332594 0.554972 0.698641 -0.391699
O115  O     O_2   0.129057 0.064408 0.335882 -0.181911
O116  O     O_2   0.070149 0.104227 0.234992 -0.163669
O117  O     O_3   0.019233 0.085890 0.247639 -0.511963
O118  O     O_2   0.870235 0.063709 0.663437 -0.183541
O119  O     O_2   0.928655 0.103836 0.763786 -0.163274
O120  O     O_3   0.979736 0.085704 0.751287 -0.511871
O121  O     O_2   0.628658 0.564586 0.335524 -0.182064
O122  O     O_2   0.569517 0.604323 0.234448 -0.163410
O123  O     O_3   0.518733 0.585837 0.247219 -0.511602
O124  O     O_R   0.552200 0.500100 0.497840 -0.474736
O125  O     O_2   0.370127 0.563560 0.663363 -0.140759
O126  O     O_2   0.428182 0.603850 0.763129 -0.164518
O127  O     O_3   0.478945 0.585774 0.750223 -0.483134
O128  O     O_2   0.669699 0.882233 0.651842 -0.228482
O129  O     O_2   0.621272 0.928070 0.645128 -0.301399
O130  O     O_3   0.658804 0.866768 0.711567 -0.427848
O131  O     O_2   0.329794 0.884315 0.346944 -0.277594
O132  O     O_2   0.379897 0.927937 0.353374 -0.299437
O133  O     O_3   0.341430 0.865724 0.288508 -0.445954
O134  O     O_2   0.169037 0.382828 0.649803 -0.231374
O135  O     O_R   0.447800 0.500100 0.502160 -0.475156
O136  O     O_2   0.121394 0.427899 0.645083 -0.301258
O137  O     O_3   0.160182 0.366241 0.711380 -0.427497
O138  O     O_2   0.831440 0.385926 0.351036 -0.241423
O139  O     O_2   0.879446 0.427829 0.353031 -0.297470
O140  O     O_3   0.837376 0.365359 0.287522 -0.425240
O141  O     O_2   0.933688 0.922168 0.504943 -0.254575
O142  O     O_2   0.845444 0.899965 0.381406 -0.222177
O143  O     O_3   0.885848 0.859124 0.476140 -0.448924
O144  O     O_2   0.066534 0.921992 0.495411 -0.254097
O145  O     O_2   0.154583 0.899672 0.618871 -0.221868
O146  O     O_R   0.947820 0.000130 0.393440 -0.458691
O147  O     O_3   0.114180 0.858849 0.524135 -0.448754
O148  O     O_2   0.433663 0.422180 0.504911 -0.255015
O149  O     O_2   0.345426 0.399950 0.381393 -0.222583
O150  O     O_3   0.385861 0.359134 0.476168 -0.449173
O151  O     O_2   0.566531 0.421992 0.495412 -0.254146
O152  O     O_2   0.654575 0.399651 0.618859 -0.222114
O153  O     O_3   0.614147 0.358846 0.524091 -0.448970
O154  O     O_2   0.507604 0.228281 0.587294 -0.250025
O155  O     O_2   0.397670 0.214208 0.472039 -0.196964
O156  O     O_3   0.466096 0.168005 0.577325 -0.425756
S1    S     S_3+6 0.107869 0.045611 0.213976 0.112653
S2    S     S_3+6 0.372781 0.887624 0.356422 0.041268
S3    S     S_3+6 0.127245 0.387255 0.641910 0.049322
S4    S     S_3+6 0.872311 0.387856 0.357374 0.045854
S5    S     S_3+6 0.903657 0.888378 0.458394 0.094834
S6    S     S_3+6 0.096382 0.888165 0.541845 0.095116
S7    S     S_3+6 0.403648 0.388380 0.458390 0.094358
S8    S     S_3+6 0.596367 0.388157 0.541826 0.094962
S9    S     S_3+6 0.461270 0.197501 0.536024 0.110483
S10   S     S_3+6 0.537105 0.197570 0.462385 0.109663
S11   S     S_3+6 0.961068 0.697493 0.535783 0.110425
S12   S     S_3+6 0.891661 0.045070 0.785543 0.111464
S13   S     S_3+6 0.037416 0.697575 0.462738 0.109562
S14   S     S_3+6 0.408793 0.112011 0.465245 0.137883
S15   S     S_3+6 0.590971 0.112422 0.534775 0.131230
S16   S     S_3+6 0.908587 0.612035 0.464846 0.138328
S17   S     S_3+6 0.091186 0.612421 0.535117 0.131682
S18   S     S_3+6 0.181988 0.880250 0.260423 0.125472
S19   S     S_3+6 0.816992 0.879297 0.739889 0.123864
S20   S     S_3+6 0.681848 0.381028 0.261161 0.125427
S21   S     S_3+6 0.317293 0.379679 0.739694 0.124081
S22   S     S_3+6 0.324631 0.002663 0.421302 0.093397
S23   S     S_3+6 0.607584 0.545815 0.213742 0.112606
S24   S     S_3+6 0.673924 0.001161 0.577361 0.077170
S25   S     S_3+6 0.824154 0.503860 0.420901 0.092446
S26   S     S_3+6 0.174030 0.501571 0.577429 0.076845
S27   S     S_3+6 0.905654 0.948348 0.292542 0.097491
S28   S     S_3+6 0.094619 0.948436 0.707681 0.097627
S29   S     S_3+6 0.405636 0.448306 0.292571 0.097443
S30   S     S_3+6 0.594576 0.448367 0.707599 0.097912
S31   S     S_3+6 0.391703 0.545054 0.785568 0.111171
S32   S     S_3+6 0.065972 0.072548 0.258424 0.113848
S33   S     S_3+6 0.933230 0.072160 0.740763 0.113632
S34   S     S_3+6 0.565522 0.572613 0.258034 0.114017
S35   S     S_3+6 0.433124 0.572058 0.740621 0.123232
S36   S     S_3+6 0.627029 0.887278 0.642589 0.050313

loop_
_geom_bond_atom_site_label_1
_geom_bond_atom_site_label_2
_ccdc_geom_bond_type
C18   I19   S    
C10   C174  A    
O38   S21   S    
Cu2   O146  S    
Cu9   O94   S    
O150  S7    S    
C107  C112  A    
O27   S18   D    
C35   C154  S    
C104  C108  A    
C136  C140  A    
C95   C168  S    
C15   C32   S    
Cu12  O2    S    
C135  C139  A    
C172  O35   A    
C171  O135  A    
O145  S6    D    
C57   C76   A    
C52   C61   A    
O154  S9    D    
C61   S14   S    
C95   C99   A    
C22   S19   S    
C54   C63   A    
O39   S22   D    
Cu1   Cu6   S    
C165  O97   A    
O4    S10   D    
C104  I45   S    
O149  S7    D    
C137  C141  A    
C146  C150  A    
O5    S10   S    
C40   C43   A    
C111  O91   A    
C12   C16   T    
C34   I22   S    
C58   I32   S    
C62   S15   S    
C25   C60   A    
C158  O87   A    
C107  I51   S    
Cu2   Cu12  S    
H5    O143  S    
O60   S29   D    
C89   C136  S    
C79   I40   S    
C42   C44   A    
C68   C158  S    
C85   C144  A    
Cu7   O70   S    
Cu5   Cu7   S    
C170  O124  A    
C153  O82   A    
C28   S3    S    
C84   C133  A    
C102  I47   S    
C167  O100  A    
O34   S20   S    
C119  O77   A    
C100  O80   A    
C155  I34   S    
O131  S2    D    
C130  I5    S    
C154  O84   A    
C132  C137  A    
C122  I1    S    
Cu2   O113  S    
C64   C66   A    
C108  C113  S    
O41   S22   S    
C1    O1    A    
H10   O5    S    
C159  O94   A    
O14   S14   D    
C93   S29   S    
C7    I17   S    
O107  S12   S    
H33   O120  S    
H31   O114  S    
Cu1   O71   S    
C20   C33   A    
C131  I6    S    
C128  C150  A    
O17   S15   D    
C152  O81   A    
H19   O31   S    
O122  S34   D    
H12   O107  S    
Cu7   O78   S    
O61   S29   S    
C68   C77   A    
Cu6   O66   S    
C126  I52   S    
O133  S2    S    
O21   S16   S    
O48   S25   S    
C158  O92   A    
C140  C145  A    
C22   C58   A    
C5    C8    A    
C120  O74   A    
C171  O24   A    
H26   O51   S    
C83   C117  S    
Cu12  O35   S    
C90   I43   S    
H7    O150  S    
Cu3   O124  S    
C160  O96   A    
O114  S31   S    
C82   C164  A    
C77   C82   A    
H34   O123  S    
C129  I4    S    
C79   C108  A    
H24   O44   S    
C40   S6    S    
O132  S2    D    
C127  C131  A    
C3    C11   A    
C100  C137  S    
C61   C65   A    
O45   S25   D    
C17   C32   A    
C126  C130  A    
C103  C107  A    
C25   C164  A    
Cu5   O74   S    
O121  S34   D    
C166  I36   S    
O115  S32   D    
C111  O70   A    
C168  O102  A    
C147  C151  A    
Cu9   O88   S    
C6    C9    A    
Cu6   O75   S    
C170  O13   A    
C142  S31   S    
C23   C59   A    
C11   C176  A    
O58   S28   S    
O63   S30   D    
H22   O41   S    
O136  S3    D    
C13   C57   A    
O54   S27   S    
H11   O8    S    
C92   C96   A    
Cu8   Cu9   S    
O10   S13   D    
C4    C8    A    
C85   C119  S    
C173  O57   A    
C125  C151  S    
C139  C143  A    
O101  S1    D    
C127  I2    S    
H25   O48   S    
C9    C173  S    
H20   O34   S    
C37   C47   A    
C50   C67   S    
H13   O11   S    
H27   O54   S    
C79   C91   A    
H36   O130  S    
H4    O140  S    
O134  S3    D    
C46   C75   A    
C143  C148  A    
C99   I44   S    
C25   S21   S    
C34   C39   A    
C71   S24   S    
O144  S6    D    
C131  C136  A    
C19   C33   A    
C41   S7    S    
H29   O61   S    
O29   S19   D    
C91   S27   S    
C97   C170  S    
C129  C134  A    
C133  I12   S    
O130  S36   S    
Cu3   O99   S    
C70   C74   A    
O6    S11   D    
O152  S8    D    
C30   C152  S    
O20   S16   D    
C86   C155  A    
C19   C28   A    
C80   C162  A    
C55   C69   A    
C52   C67   A    
C109  C114  S    
O52   S27   D    
C114  C123  T    
C20   I21   S    
C26   C30   A    
C116  C125  T    
O44   S24   S    
Cu5   O80   S    
C74   C78   A    
O9    S13   D    
C132  I7    S    
C93   C97   A    
C157  O90   A    
C112  C116  S    
C154  O88   A    
C10   C175  A    
C105  C109  A    
C73   C77   A    
O37   S21   D    
C142  C147  A    
C164  I30   S    
C29   S4    S    
O3    S10   D    
O55   S28   D    
O56   S28   D    
C46   C156  S    
O118  S33   D    
C156  O85   A    
C96   C169  S    
C105  I49   S    
Cu7   O77   S    
Cu10  Cu11  S    
C127  C149  A    
H18   O28   S    
C38   I26   S    
C72   C76   A    
C24   I39   S    
C146  S34   S    
C122  C166  A    
C83   C122  A    
C37   C41   A    
C53   C67   A    
C117  O75   A    
C91   C95   A    
Cu8   O89   S    
C119  O73   A    
C113  C121  T    
C78   C161  A    
C84   C118  S    
C49   C50   T    
C144  I23   S    
O103  S1    D    
C4    I14   S    
C14   C15   T    
C86   C120  S    
C169  O2    A    
C1    C135  S    
C81   C85   A    
O110  S23   S    
C35   C74   A    
O16   S15   D    
Cu9   O81   S    
H21   O38   S    
C168  O146  A    
C130  C135  A    
O32   S20   D    
O139  S4    D    
C80   C84   A    
Cu11  O83   S    
C64   S17   S    
O126  S35   D    
O119  S33   D    
O53   S27   D    
C39   S5    S    
O105  S12   D    
C167  O99   A    
H32   O117  S    
H9    O156  S    
C129  C151  A    
C3    C7    A    
O128  S36   D    
C22   C162  A    
Cu10  O92   S    
C58   C71   A    
C176  I11   S    
C94   C98   A    
C98   C103  A    
C60   C73   A    
C35   C166  A    
H23   O110  S    
O137  S3    S    
C134  I8    S    
C163  I29   S    
O138  S4    D    
O140  S4    S    
Cu8   O79   S    
C78   C83   A    
C159  O93   A    
C90   C94   A    
C13   I38   S    
C172  O46   A    
C97   C102  A    
O40   S22   D    
C59   C72   A    
C88   C110  A    
C99   C104  A    
C63   C66   A    
C4    C174  A    
C96   C101  A    
H30   O64   S    
C5    C175  A    
C19   I20   S    
Cu4   O65   S    
O120  S33   S    
O26   S18   D    
C43   C165  S    
Cu6   O67   S    
Cu11  O87   S    
C2    C133  A    
H3    O137  S    
C120  O78   A    
O142  S5    D    
C138  C142  A    
O8    S11   S    
C161  I27   S    
C126  C148  A    
C26   S36   S    
C141  S23   S    
O59   S29   D    
C165  O98   A    
Cu11  O96   S    
C44   C167  S    
Cu8   O93   S    
Cu10  O82   S    
O30   S19   D    
Cu6   O76   S    
C94   S30   S    
C27   S2    S    
C89   O67   A    
O148  S7    D    
C121  C148  S    
O12   S14   D    
O7    S11   D    
O104  S1    S    
O109  S23   D    
C141  C146  A    
C87   I41   S    
C17   I18   S    
O15   S14   S    
H14   O15   S    
C41   C44   A    
C18   C32   A    
C118  O76   A    
C174  I9    S    
O62   S30   D    
Cu8   O84   S    
C45   C48   S    
C124  C150  S    
C115  C124  T    
C5    I15   S    
C28   C31   A    
C23   S20   S    
C21   C56   A    
C173  O65   A    
Cu3   O57   S    
C117  O71   A    
C87   C109  A    
C21   S18   S    
Cu4   O13   S    
O108  S23   D    
C70   S22   S    
O31   S19   S    
C82   C86   A    
C54   C69   A    
Cu4   O100  S    
C169  O113  A    
O141  S5    D    
C157  O86   A    
C24   C68   A    
Cu1   O72   S    
Cu3   Cu4   S    
O147  S6    S    
O64   S30   S    
O18   S15   S    
C52   S9    S    
O33   S20   D    
C72   S25   S    
C42   S8    S    
C110  C115  S    
C145  C149  A    
C8    C172  S    
C111  C138  S    
O125  S35   D    
O117  S32   S    
O50   S26   D    
O51   S26   S    
Cu12  O102  S    
C53   S10   S    
C123  C149  S    
C139  S1    S    
C156  O89   A    
O143  S5    S    
C143  S32   S    
C106  I50   S    
O129  S36   D    
C90   C112  A    
C65   C159  S    
O111  S31   D    
C66   C160  S    
O156  S9    S    
C47   C49   S    
C2    C46   A    
C17   C26   A    
C60   I35   S    
Cu3   O24   S    
O127  S35   S    
C38   C42   A    
C54   S11   S    
C160  O95   A    
C11   C14   S    
C37   I25   S    
C13   C144  A    
C2    I37   S    
C89   O69   A    
H35   O127  S    
O43   S24   D    
C1    O66   A    
C162  I28   S    
C48   C51   T    
O153  S8    S    
H17   O25   S    
H2    O133  S    
C152  O79   A    
C75   C80   A    
C24   C155  A    
Cu1   O1    S    
C51   C69   S    
O25   S17   S    
O49   S26   D    
C27   C30   A    
C81   C163  A    
Cu5   O91   S    
Cu10  O95   S    
H1    O104  S    
C128  C132  A    
C31   C153  S    
O123  S34   S    
C23   C163  A    
C20   C29   A    
C101  C105  A    
C21   C161  A    
C100  O68   A    
O151  S8    D    
C36   C40   A    
Cu11  O90   S    
C59   I33   S    
Cu7   O68   S    
O116  S32   D    
C39   C43   A    
C6    I16   S    
O22   S17   D    
H8    O153  S    
O47   S25   D    
C16   C33   S    
O155  S9    D    
C53   C62   A    
Cu9   O85   S    
C175  I10   S    
C55   C64   A    
C36   C45   A    
C34   C45   A    
C73   S26   S    
C38   C47   A    
C10   C12   S    
C3    I13   S    
C98   C171  S    
C55   S13   S    
C56   C70   A    
C36   I24   S    
C63   S16   S    
C87   C92   A    
O36   S21   D    
C106  C110  A    
C7    C9    A    
C57   C157  S    
C88   C93   A    
C153  O83   A    
C62   C65   A    
O28   S18   S    
C18   C27   A    
H28   O58   S    
Cu10  O86   S    
C76   C81   A    
C134  C138  A    
C101  I46   S    
O11   S13   S    
C92   S28   S    
O23   S17   D    
C103  I48   S    
O106  S12   D    
O42   S24   D    
Cu12  O97   S    
C29   C31   A    
Cu2   O98   S    
Cu4   O135  S    
C71   C75   A    
O19   S16   D    
Cu2   O46   S    
C88   I42   S    
C6    C176  A    
H6    O147  S    
C128  I3    S    
C147  S35   S    
C102  C106  A    
H15   O18   S    
C145  S33   S    
C118  O72   A    
H16   O21   S    
C140  S12   S    
O112  S31   D    
C56   I31   S    
Cu5   O73   S    
Cu1   O69   S    
