data_mof_unit_53100.cif
_audit_creation_date              2012-12-11T18:04:58-0500
_audit_creation_method            fapswitch 2.2
_symmetry_space_group_name_H-M    P1
_symmetry_Int_Tables_number       1
_space_group_crystal_system       triclinic
_cell_length_a                    8.221478
_cell_length_b                    12.662998
_cell_length_c                    22.837846
_cell_angle_alpha                 96.46428
_cell_angle_beta                  89.368684
_cell_angle_gamma                 98.515227
_cell_volume                      2336.4173882

loop_
_atom_site_label
_atom_site_type_symbol
_atom_type_description
_atom_site_fract_x
_atom_site_fract_y
_atom_site_fract_z
_atom_type_partial_charge
Ba1   Ba    Ba6+2 0.856210 0.551220 0.472190 1.652045
Ba2   Ba    Ba6+2 0.333620 0.448870 0.527810 1.691696
C1    C     C_3   0.603082 0.919514 0.300175 -0.386176
C2    C     C_R   0.101612 0.585254 0.940072 -0.030630
C3    C     C_R   0.055533 0.579432 0.879903 0.627195
C4    C     C_3   0.124774 0.780006 0.310849 0.316527
C5    C     C_R   0.984450 0.387869 0.875636 0.588441
C6    C     C_R   0.024828 0.391495 0.935988 -0.019302
C7    C     C_R   0.084022 0.490743 0.968334 -0.053575
C8    C     C_R   0.163793 0.683575 0.972884 -0.053430
C9    C     C_R   0.207600 0.687906 0.032287 -0.071006
C10   C     C_R   0.189266 0.594218 0.061188 -0.020518
C11   C     C_R   0.126406 0.495360 0.029131 -0.049874
C12   C     C_3   0.637894 0.828873 0.334328 0.336570
C13   C     C_R   0.007485 0.297703 0.964739 -0.070176
C14   C     C_R   0.047031 0.302429 0.024496 -0.072352
C15   C     C_R   0.106876 0.400968 0.057504 -0.027520
C16   C     C_3   0.093764 0.809684 0.249690 -0.297714
C17   C     C_R   0.148732 0.406961 0.118012 0.591971
C18   C     C_R   0.232842 0.597368 0.121298 0.578111
C19   C     C_2   0.797818 0.420016 0.767719 -0.059500
C20   C     C_3   0.762968 0.391367 0.702532 -0.076650
C21   C     C_1   0.007896 0.519701 0.684923 0.018868
C22   C     C_2   0.056577 0.526403 0.741020 -0.076331
C23   C     C_3   0.476100 0.290064 0.349294 0.290702
C24   C     C_2   0.945201 0.475878 0.786374 0.215780
C25   C     C_R   0.414607 0.556936 0.231438 -0.097403
C26   C     C_R   0.457685 0.564786 0.291174 -0.016109
C27   C     C_R   0.188646 0.474766 0.314107 0.031178
C28   C     C_3   0.224730 0.779102 0.596640 0.318993
C29   C     C_R   0.143079 0.466670 0.253993 -0.096346
C30   C     C_R   0.255268 0.509701 0.211905 0.206430
C31   C     C_2   0.868603 0.462466 0.664405 -0.271482
C32   C     C_R   0.758670 0.180512 0.524482 -0.271190
C33   C     C_R   0.432526 0.810064 0.475142 -0.295373
C34   C     C_3   0.457479 0.258920 0.283173 -0.362700
C35   C     C_R   0.407009 0.989417 0.455347 -0.103439
C36   C     C_R   0.343862 0.881168 0.452126 -0.003208
C37   C     C_R   0.577854 0.847528 0.506696 0.062065
C38   C     C_R   0.640909 0.958959 0.513234 -0.054355
C39   C     C_R   0.554868 0.030131 0.486050 -0.065515
C40   C     C_3   0.234972 0.900090 0.610049 -0.333810
C41   C     C_R   0.616831 0.140669 0.491613 0.050575
C42   C     C_R   0.848758 0.111455 0.548505 -0.038693
C43   C     C_R   0.787968 0.001668 0.544841 -0.088711
C44   C     C_3   0.970024 0.221541 0.405055 0.278455
C45   C     C_3   0.959099 0.139584 0.683330 0.269106
C46   C     C_3   0.958372 0.100505 0.391489 -0.339744
C47   C     C_3   0.715930 0.692622 0.647866 0.301557
C48   C     C_3   0.763229 0.729857 0.712281 0.353707
C49   C     C_3   0.995337 0.110081 0.744016 -0.270071
C50   C     C_3   0.492020 0.171190 0.683699 0.363619
C51   C     C_3   0.488169 0.095392 0.730969 -0.364670
C52   C     C_R   0.343843 0.526460 0.332022 -0.304056
H1    H     H_    0.721343 0.862634 0.371965 0.065038
H2    H     H_    0.821906 0.661082 0.625655 -0.089396
H3    H     H_    0.609175 0.627636 0.645530 0.073440
H4    H     H_    0.553659 0.982089 0.330319 0.096083
H5    H     H_    0.864135 0.799056 0.714298 0.041070
H6    H     H_    0.808880 0.664196 0.732401 -0.048125
H7    H     H_    0.518419 0.792502 0.351896 -0.054323
H8    H     H_    0.510959 0.887691 0.264958 0.134451
H9    H     H_    0.357405 0.311096 0.366873 0.021136
H10   H     H_    0.573609 0.360940 0.357208 0.056800
H11   H     H_    0.358343 0.189346 0.274004 0.139749
H12   H     H_    0.314647 0.928867 0.649096 0.140613
H13   H     H_    0.425414 0.327248 0.261523 0.073257
H14   H     H_    0.574766 0.236920 0.264458 0.129587
H15   H     H_    0.717510 0.956061 0.279533 0.130929
H16   H     H_    0.071660 0.735799 0.218148 0.123926
H17   H     H_    0.922621 0.220955 0.688321 0.017040
H18   H     H_    0.856345 0.079199 0.663971 -0.017348
H19   H     H_    0.096721 0.169078 0.765387 0.162452
H20   H     H_    0.883663 0.110201 0.771796 0.128358
H21   H     H_    0.031787 0.028537 0.740109 0.116167
H22   H     H_    0.621404 0.186913 0.668433 -0.127214
H23   H     H_    0.287582 0.940507 0.572164 0.073504
H24   H     H_    0.416838 0.130502 0.645341 0.083589
H25   H     H_    0.558739 0.136747 0.770310 0.128072
H26   H     H_    0.545258 0.023968 0.713922 0.130579
H27   H     H_    0.034744 0.708717 0.318342 0.106095
H28   H     H_    0.359343 0.068833 0.743893 0.136813
H29   H     H_    0.030962 0.228257 0.044750 0.126486
H30   H     H_    0.962244 0.220010 0.941134 0.128181
H31   H     H_    0.255370 0.765346 0.055652 0.124781
H32   H     H_    0.504849 0.587461 0.200267 0.111074
H33   H     H_    0.179286 0.757771 0.952658 0.132356
H34   H     H_    0.110271 0.921368 0.619228 0.120932
H35   H     H_    0.178204 0.567384 0.754207 0.164718
H36   H     H_    0.712706 0.383284 0.798849 0.103617
H37   H     H_    0.021643 0.427133 0.240115 0.119366
H38   H     H_    0.379143 0.532624 0.377928 0.080312
H39   H     H_    0.251254 0.759517 0.312703 -0.041675
H40   H     H_    0.841243 0.450319 0.617545 0.078349
H41   H     H_    0.335587 0.040725 0.435291 0.106159
H42   H     H_    0.859029 0.951453 0.565810 0.099617
H43   H     H_    0.806070 0.265396 0.527636 0.057475
H44   H     H_    0.382291 0.725635 0.471797 0.068339
H45   H     H_    0.847788 0.242495 0.416856 -0.001056
H46   H     H_    0.983393 0.850663 0.249705 0.148920
H47   H     H_    0.201342 0.864336 0.235296 0.119996
H48   H     H_    0.349062 0.759016 0.587156 0.011644
H49   H     H_    0.143327 0.752603 0.557655 0.050798
H50   H     H_    0.567552 0.891654 0.827019 0.362127
H51   H     H_    0.056455 0.248155 0.442548 0.076873
H52   H     H_    0.873764 0.071878 0.353761 0.116196
H53   H     H_    0.911121 0.060128 0.430011 0.086107
H54   H     H_    0.081930 0.079077 0.380188 0.144955
N1    N     N_R   0.996426 0.481423 0.848182 -0.427191
N2    N     N_R   0.209782 0.504671 0.149691 -0.424197
O1    O     O_2   0.890290 0.440320 0.360790 -0.460201
O2    O     O_2   0.185486 0.116372 0.539168 -0.481281
O3    O     O_3   0.100921 0.138634 0.648716 -0.583180
O4    O     O_3   0.130840 0.441440 0.431840 -0.498309
O5    O     O_3   0.574800 0.630800 0.528960 -0.489637
O6    O     O_2   0.344900 0.234690 0.472540 -0.466452
O7    O     O_3   0.518791 0.202776 0.375273 -0.650012
O8    O     O_2   0.460457 0.473186 0.707737 -0.441778
O9    O     O_3   0.425856 0.263912 0.706776 -0.563679
O10   O     O_2   0.065965 0.661894 0.856124 -0.556031
O11   O     O_2   0.939743 0.300831 0.847360 -0.620437
O12   O     O_3   0.677621 0.780361 0.621337 -0.629024
O13   O     O_2   0.133429 0.324718 0.142149 -0.594294
O14   O     O_2   0.291349 0.683076 0.148332 -0.615984
O15   O     O_3   0.672400 0.637930 0.395560 -0.480920
O16   O     O_2   0.796911 0.562945 0.292578 -0.502377
O17   O     O_3   0.023582 0.268299 0.354440 -0.627193
O18   O     O_3   0.715013 0.755516 0.296783 -0.596740
O19   O     O_2   0.844800 0.765340 0.527490 -0.470267
O20   O     O_3   0.090520 0.693800 0.424220 -0.495180
O21   O     O_2   0.009548 0.885042 0.461826 -0.483373
O22   O     O_2   0.470550 0.805936 0.717639 -0.302076
O23   O     O_3   0.104433 0.867102 0.352571 -0.611729
O24   O     O_2   0.512402 0.674479 0.784954 -0.269916
O25   O     O_3   0.666638 0.869098 0.807224 -0.513045
O26   O     O_2   0.299410 0.559720 0.639240 -0.434355
O27   O     O_3   0.058870 0.558650 0.568170 -0.506646
O28   O     O_3   0.517310 0.362160 0.604450 -0.471110
O29   O     O_3   0.163501 0.731673 0.646293 -0.601517
O30   O     O_3   0.614910 0.369290 0.471050 -0.480123
O31   O     O_3   0.099190 0.306290 0.575790 -0.466809
P1    P     P_3+3 0.057140 0.408270 0.369700 0.990624
P2    P     P_3+3 0.667360 0.749400 0.544670 0.984855
P3    P     P_3+3 0.136954 0.832293 0.423017 0.940003
P4    P     P_3+3 0.132580 0.591820 0.630310 1.028425
P5    P     P_3+3 0.055830 0.166847 0.577954 0.960606
P6    P     P_3+3 0.661648 0.626996 0.318560 0.955442
P7    P     P_3+3 0.527177 0.235456 0.451775 0.934508
P8    P     P_3+3 0.541791 0.376363 0.681082 1.000286
S1    S     S_3+6 0.594131 0.768533 0.755460 -0.050631

loop_
_geom_bond_atom_site_label_1
_geom_bond_atom_site_label_2
_ccdc_geom_bond_type
C16   H16   S    
C19   C24   D    
O9    P8    S    
H50   O25   S    
O8    P8    D    
O22   S1    D    
C49   H20   S    
C44   H45   S    
C22   H35   S    
O30   P7    S    
C34   H13   S    
C12   O18   S    
C5    C6    A    
C42   C43   A    
Ba2   P4    S    
C21   P4    S    
C17   O13   D    
C30   N2    S    
O7    P7    S    
C48   H5    S    
O4    P1    S    
O27   P4    S    
C1    H15   S    
Ba1   O15   S    
C4    O23   S    
Ba1   O19   S    
C17   N2    Am   
C46   H53   S    
C27   C52   A    
C47   O12   S    
C13   C14   A    
O24   S1    D    
C44   H51   S    
C32   H43   S    
C47   H3    S    
C35   H41   S    
Ba1   Ba2   S    
C23   H9    S    
C7    C11   A    
Ba1   P1    S    
O1    P1    D    
Ba2   O6    S    
C46   H52   S    
C6    C7    A    
C21   C31   D    
C28   H49   S    
C42   P5    S    
C21   C22   D    
C41   P7    S    
C33   H44   S    
O20   P3    S    
O26   P4    D    
C12   H1    S    
C20   P8    S    
C4    H27   S    
C19   C20   S    
C31   H40   S    
C39   C41   A    
C28   H48   S    
C16   H46   S    
O12   P2    S    
C5    O11   D    
C50   H24   S    
C16   H47   S    
C44   C46   S    
C19   H36   S    
O28   P8    S    
C38   C43   A    
C4    C16   S    
O5    P2    S    
C8    H33   S    
C3    O10   D    
Ba2   O28   S    
C44   O17   S    
C33   C36   A    
C32   C42   A    
Ba1   O20   S    
O15   P6    S    
C37   C38   A    
O6    P7    D    
C26   C52   A    
C34   H11   S    
C14   C15   A    
C45   C49   S    
C12   H7    S    
C14   H29   S    
Ba2   O26   S    
C5    N1    Am   
C51   H28   S    
C23   H10   S    
O3    P5    S    
C25   H32   S    
C33   C37   A    
C1    H4    S    
C52   H38   S    
C35   C36   A    
Ba1   P2    S    
Ba2   O5    S    
C48   S1    S    
C29   C30   A    
C9    C10   A    
C4    H39   S    
C10   C18   A    
C1    C12   S    
C24   N1    S    
C45   H17   S    
Ba1   O30   S    
O31   P5    S    
C18   N2    Am   
C38   C39   A    
C37   P2    S    
C6    C13   A    
C29   H37   S    
C40   H34   S    
Ba1   O4    S    
C2    C8    A    
O25   S1    S    
Ba1   O27   S    
C50   C51   S    
C1    H8    S    
C45   O3    S    
C20   C31   S    
O29   P4    S    
C26   P6    S    
C28   O29   S    
C51   H25   S    
C25   C30   A    
Ba2   O27   S    
C36   P3    S    
C32   C41   A    
C49   H19   S    
C49   H21   S    
C2    C3    A    
C50   H22   S    
C23   O7    S    
O16   P6    D    
C34   H14   S    
O18   P6    S    
C13   H30   S    
O19   P2    D    
O23   P3    S    
C47   H2    S    
C11   C15   A    
C48   H6    S    
Ba2   O30   S    
C27   C29   A    
Ba1   O1    S    
Ba2   O4    S    
C22   C24   S    
C46   H54   S    
C3    N1    Am   
C9    H31   S    
C27   P1    S    
C15   C17   A    
O2    P5    D    
C35   C39   A    
C45   H18   S    
C18   O14   D    
C8    C9    A    
C23   C34   S    
C50   O9    S    
C10   C11   A    
C40   H23   S    
C47   C48   S    
C25   C26   A    
C40   H12   S    
Ba2   O31   S    
C28   C40   S    
Ba1   O5    S    
C2    C7    A    
C43   H42   S    
O17   P1    S    
O21   P3    D    
C51   H26   S    
