data_mof_unit_54894.cif
_audit_creation_date              2012-12-11T17:12:45-0500
_audit_creation_method            fapswitch 2.2
_symmetry_space_group_name_H-M    P1
_symmetry_Int_Tables_number       1
_space_group_crystal_system       triclinic
_cell_length_a                    17.305066
_cell_length_b                    6.880347
_cell_length_c                    14.415384
_cell_angle_alpha                 90.000477
_cell_angle_beta                  110.396644
_cell_angle_gamma                 89.999514
_cell_volume                      1608.75366303

loop_
_atom_site_label
_atom_site_type_symbol
_atom_type_description
_atom_site_fract_x
_atom_site_fract_y
_atom_site_fract_z
_atom_type_partial_charge
O1    O     O_R   0.314130 0.635770 0.168990 -0.547673
O2    O     O_R   0.685870 0.364230 0.831010 -0.547735
O3    O     O_R   0.185870 0.135770 0.331010 -0.547657
O4    O     O_R   0.814130 0.864230 0.668990 -0.547749
O5    O     O_R   0.146800 0.302460 0.139760 -0.539999
O6    O     O_R   0.853200 0.697540 0.860240 -0.540037
O7    O     O_R   0.353200 0.802460 0.360240 -0.540007
O8    O     O_R   0.646800 0.197540 0.639760 -0.540040
C1    C     C_R   0.113996 0.475834 0.112782 0.736572
C2    C     C_R   0.886003 0.524165 0.887220 0.736970
C3    C     C_R   0.386004 0.975834 0.387219 0.736789
C4    C     C_R   0.613997 0.024165 0.612780 0.736999
O9    O     O_R   0.311100 0.305780 0.157130 -0.535277
O10   O     O_R   0.688900 0.694220 0.842870 -0.535247
O11   O     O_R   0.188900 0.805780 0.342870 -0.535301
O12   O     O_R   0.811100 0.194220 0.657130 -0.535236
O13   O     O_R   0.351340 0.139640 0.348510 -0.529059
O14   O     O_R   0.648660 0.860360 0.651490 -0.529000
O15   O     O_R   0.148660 0.639640 0.151490 -0.529124
O16   O     O_R   0.851340 0.360360 0.848510 -0.529013
C5    C     C_R   0.334471 0.475272 0.138007 0.739222
C6    C     C_R   0.665524 0.524727 0.861990 0.739385
C7    C     C_R   0.165533 0.975274 0.361997 0.738998
C8    C     C_R   0.834471 0.024723 0.638005 0.739333
C9    C     C_1   0.533571 0.008914 0.533047 -0.111286
C10   C     C_1   0.466430 0.991086 0.466951 -0.111376
C11   C     C_1   0.966429 0.508914 0.966953 -0.111253
C12   C     C_1   0.033570 0.491086 0.033049 -0.111393
O17   O     O_3   0.263010 0.470920 0.312770 -0.370737
O18   O     O_3   0.736990 0.529080 0.687230 -0.370795
O19   O     O_3   0.236990 0.970920 0.187230 -0.370767
O20   O     O_3   0.763010 0.029080 0.812770 -0.370798
V1    V     V_3+5 0.247590 0.194450 0.238360 1.524144
V2    V     V_3+5 0.752410 0.805550 0.761640 1.524197
V3    V     V_3+5 0.252410 0.694450 0.261640 1.524104
V4    V     V_3+5 0.747590 0.305550 0.738360 1.524211
C13   C     C_R   0.114119 0.992107 0.425000 -0.197539
C14   C     C_R   0.885891 0.007842 0.575006 -0.197692
C15   C     C_R   0.385886 0.492108 0.075005 -0.197640
C16   C     C_R   0.614105 0.507864 0.924988 -0.197722
C17   C     C_R   0.911043 0.828967 0.443212 0.329977
C18   C     C_R   0.089035 0.170629 0.556925 0.329803
C19   C     C_R   0.589014 0.329207 0.056879 0.329995
C20   C     C_R   0.410939 0.670564 0.943040 0.329918
C21   C     C_R   0.863873 0.866337 0.501718 -0.131591
C22   C     C_R   0.136187 0.133412 0.498385 -0.130979
C23   C     C_R   0.636161 0.366475 0.998336 -0.131640
C24   C     C_R   0.363801 0.633378 0.001601 -0.131257
C25   C     C_R   0.957404 0.120311 0.590274 -0.047747
C26   C     C_R   0.042593 0.879658 0.409687 -0.047707
C27   C     C_R   0.542580 0.620305 0.909702 -0.047815
C28   C     C_R   0.457419 0.379683 0.090318 -0.047780
C29   C     C_R   0.011664 0.074917 0.537410 -0.011628
C30   C     C_R   0.988361 0.924879 0.462616 -0.011646
C31   C     C_R   0.488326 0.574919 0.962576 -0.011633
C32   C     C_R   0.511657 0.424968 0.037408 -0.011632
H1    H     H_    0.193041 0.213732 0.512148 0.165332
H2    H     H_    0.807063 0.785886 0.488037 0.165409
H3    H     H_    0.306939 0.713667 0.987829 0.165318
H4    H     H_    0.692997 0.286107 0.012061 0.165362
C33   C     C_2   0.028894 0.712595 0.341407 0.852303
O21   O     O_2   0.009276 0.740164 0.252333 -0.556774
O22   O     O_R   0.040835 0.523855 0.379643 -0.634699
H5    H     H_    0.030845 0.421494 0.326124 0.301178
C34   C     C_2   0.971025 0.287748 0.658323 0.852228
O23   O     O_2   0.990222 0.260656 0.747390 -0.556882
O24   O     O_R   0.959558 0.476334 0.619865 -0.634689
H6    H     H_    0.969483 0.578989 0.673235 0.301277
C35   C     C_2   0.471091 0.212461 0.158498 0.852223
O25   O     O_2   0.490484 0.239831 0.247566 -0.556830
O26   O     O_R   0.459411 0.023776 0.120164 -0.634675
H7    H     H_    0.469369 0.921288 0.173615 0.301235
C36   C     C_2   0.528954 0.787743 0.841656 0.852214
O27   O     O_2   0.509810 0.760657 0.752598 -0.556900
O28   O     O_R   0.540351 0.976331 0.880110 -0.634677
H8    H     H_    0.530436 0.078991 0.826749 0.301304
Br1   Br    Br    0.857012 0.653914 0.335373 -0.434884
Br2   Br    Br    0.143249 0.344685 0.665158 -0.434919
Br3   Br    Br    0.643163 0.154735 0.164948 -0.434947
Br4   Br    Br    0.356692 0.844475 0.834754 -0.434917

loop_
_geom_bond_atom_site_label_1
_geom_bond_atom_site_label_2
_ccdc_geom_bond_type
C2    C11   S    
C16   C23   A    
C31   C32   A    
O1    C5    A    
C36   O27   D    
O3    C7    A    
C14   C25   A    
C29   C30   A    
O7    C3    A    
C26   C30   A    
C25   C34   S    
O20   V4    S    
C18   C29   A    
C17   Br1   S    
O4    C8    A    
O3    V1    S    
C19   Br3   S    
O17   V1    S    
C33   O22   S    
C18   C22   A    
C35   O26   S    
C14   C21   A    
C28   C35   S    
C23   H4    S    
C1    O15   A    
C2    O16   A    
C34   O24   S    
O5    V1    S    
O2    C6    A    
C8    C14   S    
O19   V1    S    
O11   C7    A    
C15   C28   A    
O12   C8    A    
O9    V1    S    
C36   O28   S    
C35   O25   D    
O13   V1    S    
O11   V3    S    
O4    V2    S    
C21   H2    S    
O18   V2    S    
O24   H6    S    
C20   Br4   S    
C3    C10   S    
C9    C10   T    
C7    C13   S    
O6    V2    S    
O20   V2    S    
O28   H8    S    
O5    C1    A    
C5    C15   S    
O8    C4    A    
C6    C16   S    
O9    C5    A    
O14   V2    S    
C18   Br2   S    
C22   H1    S    
O19   V3    S    
O1    V3    S    
C24   H3    S    
O2    V4    S    
C3    O13   A    
O7    V3    S    
C27   C36   S    
O10   V2    S    
O8    V4    S    
C16   C27   A    
O17   V3    S    
O18   V4    S    
C4    C9    S    
O10   C6    A    
O26   H7    S    
O15   V3    S    
O12   V4    S    
C13   C26   A    
C20   C31   A    
C25   C29   A    
C27   C31   A    
C33   O21   D    
C17   C30   A    
O6    C2    A    
O22   H5    S    
O16   V4    S    
C20   C24   A    
C19   C32   A    
C34   O23   D    
C4    O14   A    
C11   C12   T    
C26   C33   S    
C17   C21   A    
C13   C22   A    
C19   C23   A    
C28   C32   A    
C1    C12   S    
C15   C24   A    
