data_mof_unit_11794.cif
_audit_creation_date              2012-10-26T19:52:26-0400
_audit_creation_method            fapswitch 2.2
_symmetry_space_group_name_H-M    P1
_symmetry_Int_Tables_number       1
_space_group_crystal_system       triclinic
_cell_length_a                    9.595995
_cell_length_b                    10.894899
_cell_length_c                    13.492212
_cell_angle_alpha                 91.390008
_cell_angle_beta                  72.993752
_cell_angle_gamma                 90.56827
_cell_volume                      1348.49239554

loop_
_atom_site_label
_atom_site_type_symbol
_atom_type_description
_atom_site_fract_x
_atom_site_fract_y
_atom_site_fract_z
_atom_type_partial_charge
C1    C     C_R   0.500604 0.736957 0.500715 0.544247
C2    C     C_R   0.375792 0.474853 0.814046 0.014900
C3    C     C_R   0.413104 0.932878 0.455943 0.014065
C4    C     C_R   0.422194 0.489687 0.699509 0.540122
C5    C     C_R   0.505781 0.869204 0.497762 -0.012184
C6    C     C_R   0.607031 0.934712 0.534700 -0.122815
C7    C     C_R   0.604051 0.062831 0.540241 0.055165
C8    C     C_R   0.501628 0.127833 0.503323 0.015737
C9    C     C_R   0.412721 0.059545 0.456082 0.017889
C10   C     C_3   0.250848 0.059480 0.475309 -0.263286
C11   C     C_3   0.252823 0.921079 0.477690 -0.255354
C12   C     C_R   0.440548 0.487706 0.977064 0.037784
C13   C     C_R   0.959758 0.453972 0.416783 0.122525
C14   C     C_R   0.893083 0.558313 0.576024 0.022975
C15   C     C_R   0.041944 0.560835 0.576961 0.237899
C16   C     C_R   0.498740 0.262172 0.503234 0.563271
C17   C     C_R   0.106786 0.451817 0.417450 0.158653
C18   C     C_3   0.118030 0.320315 0.383050 -0.059578
C19   C     C_3   0.964849 0.326813 0.374480 -0.237832
C20   C     C_R   0.577934 0.500347 0.300608 0.561983
C21   C     C_R   0.786301 0.400246 0.031928 -0.142535
C22   C     C_R   0.622824 0.487833 0.187842 0.015140
C23   C     C_R   0.478768 0.457828 0.869484 -0.005276
C24   C     C_R   0.226797 0.481912 0.870721 0.138170
C25   C     C_R   0.187885 0.508746 0.976997 -0.123104
C26   C     C_R   0.293698 0.517673 0.028659 -0.126141
C27   C     C_3   0.970317 0.689645 0.740080 -0.343504
C28   C     C_3   0.112669 0.331205 0.784230 -0.259186
C29   C     C_R   0.548310 0.477686 0.030017 0.054970
C30   C     C_R   0.683914 0.421618 0.978689 0.048506
C31   C     C_R   0.713489 0.382231 0.876088 -0.137635
C32   C     C_R   0.614000 0.401520 0.822042 -0.115252
C33   C     C_R   0.523418 0.515765 0.133900 -0.103774
C34   C     C_R   0.755943 0.432983 0.135928 -0.128894
Cu1   Cu    Cu3+1 0.359330 0.500020 0.500010 0.972819
Cu2   Cu    Cu3+1 0.640670 0.499980 0.499990 0.946998
H1    H     H_    0.833724 0.410207 0.176668 0.127835
H2    H     H_    0.888737 0.263124 0.426413 0.185802
H3    H     H_    0.887543 0.353562 0.994508 0.113337
H4    H     H_    0.425335 0.563667 0.175841 0.125097
H5    H     H_    0.254660 0.537352 0.110770 0.128740
H6    H     H_    0.074467 0.520470 0.020672 0.112861
H7    H     H_    0.640642 0.362359 0.745024 0.188546
H8    H     H_    0.682216 0.886262 0.566017 0.157375
H9    H     H_    0.175074 0.675506 0.635895 0.293432
H10   H     H_    0.923303 0.766089 0.707293 0.138069
H11   H     H_    0.020703 0.728876 0.798241 0.155868
H12   H     H_    0.190385 0.103677 0.550616 0.145233
H13   H     H_    0.883400 0.624986 0.780865 0.150845
H14   H     H_    0.014392 0.489641 0.862067 0.242014
H15   H     H_    0.046724 0.326798 0.729016 0.158387
H16   H     H_    0.064858 0.269309 0.849713 0.119509
H17   H     H_    0.223326 0.297243 0.742034 0.161689
H18   H     H_    0.221428 0.088308 0.406014 0.174519
H19   H     H_    0.198364 0.884546 0.555805 0.142457
H20   H     H_    0.221924 0.875450 0.412534 0.154434
H21   H     H_    0.808615 0.603549 0.636170 0.131993
H22   H     H_    0.123359 0.263728 0.448519 0.141772
H23   H     H_    0.958427 0.324975 0.293623 0.144201
H24   H     H_    0.812581 0.333445 0.837795 0.124713
I1    I     I_    0.744921 0.140981 0.620727 -0.506564
I2    I     I_    0.275395 0.281254 0.237063 -0.431320
N1    N     N_R   0.852320 0.499070 0.499340 -0.253638
N2    N     N_R   0.148230 0.499110 0.499340 -0.240607
N3    N     N_2   0.080515 0.626014 0.658710 -0.472131
N4    N     N_2   0.116036 0.456727 0.822199 -0.474946
O1    O     O_R   0.381190 0.680360 0.500000 -0.528885
O2    O     O_R   0.618780 0.680320 0.499990 -0.505204
O3    O     O_R   0.323230 0.500000 0.650990 -0.457832
O4    O     O_R   0.560820 0.499960 0.650980 -0.529057
O5    O     O_R   0.381220 0.319680 0.500010 -0.501714
O6    O     O_R   0.618810 0.319640 0.500000 -0.481647
O7    O     O_R   0.439180 0.500040 0.349020 -0.477811
O8    O     O_R   0.676770 0.500000 0.349010 -0.504842

loop_
_geom_bond_atom_site_label_1
_geom_bond_atom_site_label_2
_ccdc_geom_bond_type
C12   C29   A    
C34   H1    S    
C2    C4    S    
Cu1   Cu2   S    
C16   O6    A    
C4    O4    A    
C7    C8    A    
C12   C23   A    
C3    C9    A    
C17   N2    A    
C30   C31   A    
C28   H15   S    
C15   N3    S    
C29   C33   A    
C1    O2    A    
C18   C19   S    
C14   H21   S    
C7    I1    S    
H9    N3    S    
C18   H22   S    
C8    C9    A    
C13   N1    A    
C15   N2    A    
Cu1   N2    S    
Cu2   N1    S    
C9    C10   S    
C24   N4    S    
Cu1   O5    S    
C8    C16   S    
C6    H8    S    
C16   O5    A    
C4    O3    A    
Cu2   O4    S    
C22   C34   A    
C33   H4    S    
C13   C19   S    
C24   C25   A    
C18   I2    S    
C21   C34   A    
C19   H23   S    
C25   C26   A    
C12   C26   A    
C31   H24   S    
C28   N4    S    
C29   C30   A    
C27   N3    S    
C19   H2    S    
C31   C32   A    
C21   H3    S    
Cu1   O1    S    
C17   C18   S    
C20   O8    A    
H14   N4    S    
Cu2   O8    S    
C27   H10   S    
C20   C22   S    
C2    C24   A    
C1    C5    S    
C11   H19   S    
C27   H11   S    
C22   C33   A    
Cu1   O7    S    
C3    C5    A    
C25   H6    S    
C28   H17   S    
Cu2   O2    S    
C6    C7    A    
C21   C30   A    
C13   C17   A    
C23   C32   A    
C10   H12   S    
C28   H16   S    
C5    C6    A    
C14   N1    A    
C1    O1    A    
C32   H7    S    
C20   O7    A    
C10   H18   S    
C3    C11   S    
C10   C11   S    
Cu2   O6    S    
Cu1   O3    S    
C2    C23   A    
C14   C15   A    
C11   H20   S    
C27   H13   S    
C26   H5    S    
