data_mof_unit_28773.cif
_audit_creation_date              2013-03-05T15:51:53-0500
_audit_creation_method            fapswitch 2.2
_symmetry_space_group_name_H-M    P1
_symmetry_Int_Tables_number       1
_space_group_crystal_system       triclinic
_cell_length_a                    8.407246
_cell_length_b                    17.405657
_cell_length_c                    22.895245
_cell_angle_alpha                 95.824591
_cell_angle_beta                  89.757448
_cell_angle_gamma                 96.308375
_cell_volume                      3312.7845432

loop_
_atom_site_label
_atom_site_type_symbol
_atom_site_description
_atom_site_fract_x
_atom_site_fract_y
_atom_site_fract_z
_atom_type_partial_charge
P1    P     P_3+3 0.063260 0.435680 0.369690 0.475943
O1    O     O_2   0.894270 0.458150 0.360790 -0.338312
O2    O     O_3   0.134750 0.458940 0.431830 -0.353814
O3    O     O_3   0.663190 0.596710 0.395570 -0.367626
O4    O     O_2   0.778905 0.542567 0.294455 -0.416731
O5    O     O_3   0.015783 0.334191 0.360084 -0.595269
O6    O     O_3   0.718946 0.685014 0.295385 -0.592758
C1    C     C_3   0.607722 0.793845 0.257984 -0.010222
P2    P     P_3+3 0.650710 0.674870 0.544690 0.505767
P3    P     P_3+3 0.113403 0.737306 0.428173 0.438817
O7    O     O_2   0.827090 0.686050 0.527520 -0.336792
O8    O     O_3   0.077580 0.635890 0.424230 -0.379534
O9    O     O_2   0.976615 0.772475 0.463046 -0.389994
O10   O     O_3   0.674211 0.686138 0.622146 -0.579456
O11   O     O_3   0.094092 0.766973 0.358205 -0.568537
C2    C     C_3   0.095302 0.703326 0.315369 0.346095
C3    C     C_3   0.074658 0.732056 0.255044 -0.457456
H1    H     H_    0.188075 0.765198 0.243131 0.198814
C4    C     C_3   0.075901 0.708573 0.669114 0.608894
H2    H     H_    0.952165 0.695835 0.651841 0.125244
C5    C     C_3   0.078822 0.694399 0.734633 -1.076983
H3    H     H_    0.068167 0.748151 0.764281 0.247205
Ba1   Ba    Ba6+2 0.852790 0.535910 0.472200 1.562219
C6    C     C_3   0.143202 0.293487 0.338232 0.487612
C7    C     C_3   0.147327 0.286533 0.269916 -0.497023
C8    C     C_3   0.573522 0.738369 0.651189 0.428865
C9    C     C_3   0.659355 0.824119 0.662369 -0.018483
H4    H     H_    0.742735 0.828839 0.625233 0.119623
P4    P     P_3+3 0.126450 0.564380 0.630310 0.509371
O12   O     O_2   0.295430 0.541870 0.639250 -0.322225
O13   O     O_3   0.054960 0.541130 0.568170 -0.340085
O14   O     O_3   0.526510 0.403350 0.604440 -0.334686
O15   O     O_3   0.179385 0.664755 0.634570 -0.561531
P5    P     P_3+3 0.075764 0.262692 0.576306 0.462056
O16   O     O_3   0.623640 0.408350 0.471030 -0.358996
O17   O     O_3   0.112120 0.364170 0.575770 -0.358235
O18   O     O_2   0.215594 0.226659 0.543571 -0.382143
O19   O     O_3   0.099753 0.240588 0.648367 -0.512717
Ba2   Ba    Ba6+2 0.337030 0.464150 0.527810 1.586725
P6    P     P_3+3 0.649895 0.593615 0.318778 0.389180
C10   C     C_3   0.614463 0.742311 0.310455 0.503947
H5    H     H_    0.490870 0.714777 0.317122 -0.017712
O20   O     O_3   0.566070 0.591710 0.528970 -0.334234
C11   C     C_3   0.638267 0.297310 0.340610 0.472301
C12   C     C_3   0.671292 0.219601 0.305459 -0.449058
H6    H     H_    0.604315 0.210210 0.263286 0.196945
P7    P     P_3+3 0.540109 0.311337 0.450969 0.434347
O21   O     O_2   0.362610 0.313970 0.472520 -0.326600
O22   O     O_3   0.503104 0.285201 0.375771 -0.639068
C13   C     C_3   0.981449 0.271585 0.684445 0.456263
C14   C     C_3   0.920660 0.212951 0.726713 -1.017452
H7    H     H_    0.020986 0.195511 0.751710 0.265180
P8    P     P_3+3 0.554686 0.419580 0.680681 0.479626
C15   C     C_3   0.499201 0.278745 0.704201 0.411205
H8    H     H_    0.628427 0.286600 0.715302 -0.007779
O23   O     O_2   0.490765 0.497167 0.702200 -0.384100
O24   O     O_3   0.430329 0.348986 0.713137 -0.504692
H9    H     H_    0.483815 0.254648 0.657401 0.076088
H10   H     H_    0.467487 0.163377 0.730969 0.126180
C16   C     C_3   0.417874 0.219496 0.742854 -0.424401
H11   H     H_    0.980488 0.301806 0.053675 0.158112
H12   H     H_    0.911588 0.293604 0.949986 0.161996
C17   C     C_R   0.340628 0.520966 0.331402 -0.439106
C18   C     C_R   0.133026 0.544012 0.933845 -0.047047
C19   C     C_R   0.083088 0.540475 0.874620 0.520689
O25   O     O_2   0.107726 0.598510 0.848650 -0.609603
N1    N     N_R   0.004392 0.472646 0.846263 -0.160302
C20   C     C_R   0.972587 0.407688 0.877113 0.500396
O26   O     O_2   0.910335 0.346594 0.852007 -0.636518
C21   C     C_R   0.013386 0.410926 0.937456 -0.034083
C22   C     C_R   0.095314 0.479333 0.965703 -0.022568
C23   C     C_R   0.218818 0.611351 0.962155 -0.130242
C24   C     C_R   0.266334 0.614306 0.020744 -0.144178
C25   C     C_R   0.226734 0.550605 0.053444 -0.026055
C26   C     C_R   0.139689 0.483255 0.026100 -0.028739
C27   C     C_R   0.974620 0.347218 0.970297 -0.138113
C28   C     C_R   0.014382 0.351925 0.030095 -0.138962
C29   C     C_R   0.097239 0.419957 0.058894 -0.041034
C30   C     C_R   0.138409 0.426137 0.119556 0.514186
N2    N     N_R   0.224431 0.493071 0.146776 -0.159876
C31   C     C_R   0.271531 0.553759 0.113041 0.502389
C32   C     C_2   0.807436 0.438441 0.765501 -0.222572
C33   C     C_3   0.771219 0.427720 0.700098 0.075400
C34   C     C_1   0.010243 0.515698 0.686748 0.188965
C35   C     C_2   0.066404 0.505034 0.739473 -0.215057
C36   C     C_2   0.955685 0.470205 0.784442 0.148148
C37   C     C_R   0.418785 0.533190 0.230504 -0.246795
C38   C     C_R   0.453300 0.546883 0.290808 0.206216
C39   C     C_R   0.190995 0.483737 0.313254 0.220306
C40   C     C_R   0.149620 0.478520 0.252823 -0.315357
C41   C     C_R   0.264769 0.500503 0.209991 0.147274
O27   O     O_2   0.098814 0.371401 0.147731 -0.627717
O28   O     O_2   0.350883 0.611970 0.135080 -0.647062
C42   C     C_2   0.862238 0.491419 0.669864 -0.309943
H13   H     H_    0.332669 0.667329 0.040615 0.162111
H14   H     H_    0.250426 0.662056 0.938974 0.164746
H15   H     H_    0.030540 0.455311 0.238818 0.187191
H16   H     H_    0.372183 0.527374 0.377540 0.175912
H17   H     H_    0.471896 0.143256 0.466619 0.145354
H18   H     H_    0.285027 0.896189 0.455644 0.161808
C43   C     C_R   0.399854 0.721700 0.482973 -0.428377
C44   C     C_R   0.547818 0.746544 0.509565 0.221882
C45   C     C_R   0.606579 0.825673 0.513630 -0.321018
C46   C     C_R   0.511316 0.880443 0.495239 0.110725
C47   C     C_R   0.359356 0.854819 0.470412 -0.316946
C48   C     C_R   0.306188 0.774968 0.462922 0.252256
C49   C     C_R   0.583309 0.164797 0.489290 -0.283984
C50   C     C_R   0.639387 0.243733 0.491416 0.263902
C51   C     C_R   0.878456 0.221418 0.543917 0.209878
C52   C     C_R   0.823906 0.141582 0.540790 -0.281515
C53   C     C_R   0.675769 0.113123 0.513363 0.100686
C54   C     C_1   0.620072 0.030807 0.507162 -0.034985
C55   C     C_1   0.570585 0.962328 0.501430 -0.013507
C56   C     C_R   0.783901 0.271810 0.520123 -0.436478
H19   H     H_    0.724951 0.844753 0.531279 0.148690
C57   C     C_3   0.675800 0.788072 0.369019 -0.283011
C58   C     C_3   0.798140 0.859537 0.364924 -0.820326
H20   H     H_    0.896168 0.846587 0.334836 0.274929
H21   H     H_    0.742825 0.908077 0.348886 0.226082
H22   H     H_    0.848992 0.880171 0.409114 0.269972
H23   H     H_    0.572860 0.806612 0.393722 0.154001
H24   H     H_    0.728465 0.748046 0.396245 0.251879
H25   H     H_    0.975570 0.652823 0.744564 0.251887
H26   H     H_    0.190053 0.671118 0.746579 0.283030
C59   C     C_3   0.121552 0.211610 0.360262 -0.383677
C60   C     C_3   0.047101 0.210767 0.420643 -0.707207
H27   H     H_    0.095052 0.262485 0.449526 0.293594
H28   H     H_    0.917128 0.213184 0.416978 0.209317
H29   H     H_    0.068565 0.156861 0.440051 0.225320
H30   H     H_    0.041870 0.170504 0.330232 0.175740
H31   H     H_    0.239282 0.188631 0.361646 0.184431
H32   H     H_    0.257263 0.324477 0.355744 0.121114
H33   H     H_    0.024398 0.279156 0.251533 0.219349
C61   C     C_3   0.236648 0.219645 0.241387 -0.355418
C62   C     C_3   0.287311 0.231532 0.178575 -0.785887
H34   H     H_    0.180158 0.230811 0.150285 0.285038
H35   H     H_    0.364301 0.287446 0.177270 0.264752
H36   H     H_    0.356535 0.183630 0.160961 0.219687
H37   H     H_    0.344109 0.214735 0.267621 0.211333
H38   H     H_    0.158684 0.163691 0.240293 0.199993
H39   H     H_    0.208371 0.341090 0.256606 0.212251
C63   C     C_3   0.505842 0.704055 0.707187 -0.297635
C64   C     C_3   0.622696 0.668066 0.744964 -0.788181
H40   H     H_    0.700938 0.632187 0.717405 0.262911
H41   H     H_    0.695942 0.711802 0.774687 0.241319
H42   H     H_    0.553015 0.629512 0.773924 0.251255
H43   H     H_    0.440034 0.746237 0.734173 0.143120
H44   H     H_    0.416159 0.655617 0.692577 0.244284
H45   H     H_    0.466394 0.740298 0.623348 0.035943
H46   H     H_    0.731829 0.820416 0.251376 0.147685
C65   C     C_3   0.769069 0.843720 0.717485 -0.225714
C66   C     C_3   0.692126 0.872314 0.775582 -0.915664
H47   H     H_    0.651650 0.930495 0.773656 0.259691
H48   H     H_    0.590192 0.832369 0.788460 0.260813
H49   H     H_    0.783403 0.877984 0.811119 0.244457
H50   H     H_    0.833431 0.793433 0.723821 0.179868
H51   H     H_    0.861010 0.891648 0.708091 0.183348
C67   C     C_3   0.544920 0.887209 0.656801 -0.353411
C68   C     C_3   0.633792 0.967075 0.648498 -0.881910
H52   H     H_    0.697880 0.993238 0.689149 0.257936
H53   H     H_    0.721870 0.962398 0.612435 0.251325
H54   H     H_    0.546467 0.006911 0.637420 0.252123
H55   H     H_    0.464945 0.870205 0.618220 0.190094
H56   H     H_    0.467966 0.893150 0.696071 0.208409
C69   C     C_3   0.498868 0.862308 0.264421 -0.352170
C70   C     C_3   0.405592 0.876568 0.321178 -0.925808
H57   H     H_    0.356643 0.821245 0.336720 0.280035
H58   H     H_    0.480121 0.911652 0.356003 0.259030
H59   H     H_    0.303851 0.909864 0.313054 0.261346
H60   H     H_    0.573764 0.916937 0.257003 0.200654
H61   H     H_    0.407725 0.854756 0.228833 0.206785
C71   C     C_3   0.602587 0.358176 0.299206 -0.340241
C72   C     C_3   0.717507 0.364989 0.247663 -0.874175
H62   H     H_    0.841687 0.367722 0.263470 0.273485
H63   H     H_    0.693703 0.314582 0.213965 0.238362
H64   H     H_    0.701574 0.417972 0.226175 0.271274
H65   H     H_    0.480113 0.344291 0.280924 0.177542
H66   H     H_    0.604923 0.415293 0.325611 0.224951
H67   H     H_    0.744233 0.320139 0.367479 0.143515
H68   H     H_    0.799995 0.223340 0.294293 0.189671
C73   C     C_3   0.628501 0.147712 0.338188 -0.210996
C74   C     C_3   0.675339 0.074820 0.302957 -0.983137
H69   H     H_    0.607280 0.063668 0.260918 0.266228
H70   H     H_    0.805605 0.080635 0.293697 0.263287
H71   H     H_    0.647005 0.024973 0.329029 0.258672
H72   H     H_    0.691889 0.154646 0.380681 0.190583
H73   H     H_    0.497768 0.139608 0.346402 0.204918
C75   C     C_3   0.562459 0.741043 0.200730 -0.272977
C76   C     C_3   0.593210 0.782167 0.144932 -0.923965
H74   H     H_    0.503022 0.822774 0.139202 0.249422
H75   H     H_    0.714299 0.814894 0.146142 0.246172
H76   H     H_    0.585054 0.738278 0.106012 0.276770
H77   H     H_    0.632089 0.690169 0.196445 0.231622
H78   H     H_    0.434070 0.719385 0.203193 0.235063
C77   C     C_3   0.028468 0.665502 0.207431 -0.301493
C78   C     C_3   0.020065 0.695100 0.147177 -0.854400
H79   H     H_    0.931091 0.737606 0.147327 0.255694
H80   H     H_    0.138807 0.723423 0.135058 0.275310
H81   H     H_    0.983039 0.645702 0.113723 0.249106
H82   H     H_    0.118461 0.624175 0.206862 0.224860
H83   H     H_    0.910619 0.634348 0.217020 0.247977
H84   H     H_    0.036161 0.325488 0.710104 0.114515
H85   H     H_    0.875947 0.285633 0.660033 -0.000807
H86   H     H_    0.837313 0.238798 0.758693 0.256156
H87   H     H_    0.856820 0.160501 0.701890 0.247508
H88   H     H_    0.288216 0.209464 0.732904 0.229881
H89   H     H_    0.995938 0.658233 0.322823 0.192233
C79   C     C_3   0.446547 0.242396 0.809031 -0.278994
C80   C     C_3   0.345480 0.305503 0.834669 -0.750857
H90   H     H_    0.391527 0.362974 0.820805 0.268949
H91   H     H_    0.218262 0.291072 0.820989 0.266674
H92   H     H_    0.351683 0.310044 0.883355 0.220098
H93   H     H_    0.414238 0.189849 0.832247 0.186847
H94   H     H_    0.575359 0.261655 0.818026 0.212235
H95   H     H_    0.512268 0.548500 0.199820 0.166579
H96   H     H_    0.191051 0.523157 0.750702 0.183723
H97   H     H_    0.720083 0.414518 0.795702 0.167133
H98   H     H_    0.210443 0.677624 0.316523 0.013719
H99   H     H_    0.800511 0.522776 0.639744 0.162958
H100  H     H_    0.897064 0.102005 0.558681 0.147353
H101  H     H_    0.355189 0.660662 0.479204 0.178470
H102  H     H_    0.827561 0.332798 0.521226 0.173960
H103  H     H_    0.980559 0.771940 0.256911 0.221775
C81   C     C_3   0.135732 0.794106 0.663197 -0.442090
C82   C     C_3   0.115073 0.816041 0.601154 -0.824998
H104  H     H_    0.163828 0.877543 0.598696 0.232739
H105  H     H_    0.987148 0.808915 0.588457 0.257953
H106  H     H_    0.180534 0.778522 0.569924 0.274716
H107  H     H_    0.078874 0.834736 0.694435 0.166492
H108  H     H_    0.263568 0.803188 0.674808 0.190583

loop_
_geom_bond_atom_site_label_1
_geom_bond_atom_site_label_2
_geom_bond_distance
_ccdc_geom_bond_type
C11   O22   1.399226 S    
C69   H61   1.108948 S    
C62   H36   1.110352 S    
C37   C38   1.403102 A    
C5    H25   1.105705 S    
C69   C70   1.527682 S    
C1    H46   1.110079 S    
C37   C41   1.417711 A    
C17   C38   1.395826 A    
C64   H42   1.110758 S    
P5    O18   1.547972 D    
C10   H5    1.112075 S    
O2    Ba1   2.948977 S    
C53   C54   1.450541 S    
C13   H85   1.112880 S    
C2    H89   1.106750 S    
O16   P7    1.772041 S    
C81   C82   1.523299 S    
C80   H92   1.110501 S    
C73   H73   1.110338 S    
C12   C73   1.531569 S    
C62   H34   1.109971 S    
P7    O22   1.755675 S    
C15   C16   1.529503 S    
C28   C29   1.409368 A    
C14   H86   1.107969 S    
C9    C67   1.552217 S    
O8    Ba1   2.730160 S    
C8    C9    1.581531 S    
C79   H93   1.111606 S    
C57   H24   1.108265 S    
C65   H51   1.110393 S    
C9    H4    1.103416 S    
C4    C5    1.545454 S    
C17   H16   1.081954 S    
P3    O11   1.745763 S    
C58   H21   1.102576 S    
C61   H38   1.110714 S    
N2    C31   1.392923 Am   
O14   Ba2   2.739837 S    
C71   H66   1.108157 S    
C64   H40   1.107973 S    
P4    O15   1.747799 S    
C69   H60   1.108938 S    
C82   H106  1.105209 S    
Ba1   O20   2.945347 S    
C57   C58   1.534815 S    
C3    H1    1.106893 S    
P1    O1    1.534185 D    
C24   C25   1.409225 A    
C18   C22   1.409323 A    
C50   C56   1.399292 A    
C76   H75   1.109605 S    
C6    H32   1.103162 S    
C52   C53   1.413746 A    
C46   C47   1.408432 A    
P2    Ba1   3.399320 S    
C12   H68   1.107226 S    
C80   H91   1.110388 S    
C74   H69   1.110766 S    
C59   H30   1.110010 S    
C5    H26   1.105202 S    
C10   C57   1.548218 S    
O3    P6    1.757181 S    
H11   C28   1.083207 S    
C2    C3    1.532662 S    
C19   N1    1.389060 Am   
P7    O21   1.573736 D    
P1    C39   1.879549 S    
C65   C66   1.537705 S    
C68   H53   1.109566 S    
C6    C7    1.557021 S    
C2    H98   1.111614 S    
C21   C22   1.406281 A    
C7    H33   1.106928 S    
C40   H15   1.075091 S    
C67   H56   1.108398 S    
P8    O23   1.541890 D    
C13   H84   1.110194 S    
O2    Ba2   2.772467 S    
H10   C16   1.112106 S    
C72   H62   1.100905 S    
C5    H3    1.110452 S    
C70   H58   1.105699 S    
H12   C27   1.083160 S    
C76   H74   1.108659 S    
C78   H81   1.110123 S    
C11   H67   1.098743 S    
C54   C55   1.212735 T    
C80   H90   1.108868 S    
C8    C63   1.548800 S    
C27   C28   1.402832 A    
C72   H63   1.109229 S    
P2    O20   1.549550 S    
C57   H23   1.092326 S    
C4    C81   1.537391 S    
C14   H7    1.107579 S    
C43   C44   1.392796 A    
C63   H44   1.093812 S    
C1    C10   1.575279 S    
P4    C34   1.836247 S    
C78   H80   1.110797 S    
C4    O15   1.407733 S    
C58   H22   1.109761 S    
C79   C80   1.530706 S    
C61   H37   1.102849 S    
O3    Ba1   2.740469 S    
P8    O24   1.746849 S    
C29   C30   1.423343 A    
C78   H79   1.108154 S    
Ba2   O20   2.772566 S    
C60   H29   1.110349 S    
C13   C14   1.523453 S    
C35   C36   1.512809 S    
C33   C42   1.502937 S    
P4    Ba2   3.390831 S    
O17   Ba2   2.730681 S    
C1    C75   1.546187 S    
N1    C20   1.393831 Am   
C75   C76   1.534051 S    
P1    O2    1.544703 S    
C74   H71   1.106488 S    
Ba1   O13   2.771698 S    
C67   C68   1.533302 S    
C73   C74   1.521441 S    
C76   H76   1.110461 S    
O16   Ba2   2.944651 S    
P2    O10   1.773755 S    
C11   C71   1.545005 S    
P4    O12   1.534513 D    
C3    H103  1.106333 S    
C81   H108  1.098779 S    
C31   O28   1.215229 D    
C59   H31   1.109277 S    
P7    C50   1.839133 S    
C68   H52   1.108241 S    
C66   H49   1.110386 S    
O6    P6    1.766941 S    
O5    C6    1.410723 S    
O10   C8    1.423699 S    
C82   H104  1.110279 S    
H18   C47   1.083241 S    
C68   H54   1.110504 S    
C34   C42   1.315937 D    
C65   H50   1.100208 S    
C34   C35   1.335709 D    
C60   H28   1.102009 S    
C7    C61   1.542601 S    
P2    O7    1.529210 D    
C30   O27   1.219765 D    
P2    C44   1.843379 S    
P3    O8    1.750975 S    
C67   H55   1.108240 S    
O19   C13   1.408245 S    
C51   C56   1.397114 A    
C20   C21   1.418991 A    
C66   H48   1.101490 S    
C75   H77   1.110043 S    
P1    Ba1   3.390443 S    
Ba1   O16   2.773113 S    
C21   C27   1.410290 A    
C59   C60   1.515889 S    
C62   H35   1.110997 S    
C30   N2    1.392835 Am   
C3    C77   1.526268 S    
C24   H13   1.083308 S    
C49   C50   1.398786 A    
O14   P8    1.752608 S    
C45   C46   1.407000 A    
C52   H100  1.083107 S    
C71   C72   1.527638 S    
C77   H82   1.098928 S    
C15   H9    1.112992 S    
C72   H64   1.109161 S    
C43   H101  1.082199 S    
C43   C48   1.392988 A    
C64   H41   1.103271 S    
C15   H8    1.107377 S    
N1    C36   1.470290 S    
C79   H94   1.111612 S    
P1    O5    1.759286 S    
P5    O19   1.749139 S    
C49   C53   1.405304 A    
C63   H43   1.105071 S    
C20   O26   1.221171 D    
C8    H45   1.111068 S    
C7    H39   1.099227 S    
C11   C12   1.553687 S    
C9    C65   1.553347 S    
C23   C24   1.395585 A    
P3    O9    1.543522 D    
C73   H72   1.100700 S    
C14   H87   1.110897 S    
C61   C62   1.525849 S    
C77   H83   1.108218 S    
H17   C49   1.083872 S    
C47   C48   1.405930 A    
C45   H19   1.080504 S    
P8    C33   1.862553 S    
C18   C19   1.414520 A    
P6    C38   1.846970 S    
C4    H2    1.105774 S    
C39   C40   1.419585 A    
C19   O25   1.221359 D    
C32   C36   1.360757 D    
C81   H107  1.099484 S    
C22   C26   1.426730 A    
C16   H88   1.105814 S    
C40   C41   1.425472 A    
C70   H57   1.097467 S    
C32   H97   1.085256 S    
N2    C41   1.477516 S    
C60   H27   1.100833 S    
Ba1   Ba2   4.608612 S    
O7    Ba1   2.816042 S    
C46   C55   1.450276 S    
C82   H105  1.105710 S    
O13   Ba2   2.949794 S    
O12   Ba2   2.803224 S    
P5    O17   1.760429 S    
C17   C39   1.394889 A    
O6    C10   1.416097 S    
C71   H65   1.105549 S    
C44   C45   1.405158 A    
C26   C29   1.408612 A    
C74   H70   1.110241 S    
P3    C48   1.833371 S    
C1    C69   1.575471 S    
C75   H78   1.106692 S    
C77   C78   1.525303 S    
C23   H14   1.083306 S    
C12   H6    1.108347 S    
C42   H99   1.088311 S    
C25   C26   1.402903 A    
C70   H59   1.110976 S    
P4    O13   1.544683 S    
C32   C33   1.518028 S    
O4    P6    1.543438 D    
C51   C52   1.409421 A    
O1    Ba1   2.802735 S    
P5    C51   1.859589 S    
C37   H95   1.081455 S    
C63   C64   1.535571 S    
C35   H96   1.084879 S    
C66   H47   1.108241 S    
C25   C31   1.411132 A    
C6    C59   1.551323 S    
C58   H20   1.099570 S    
O11   C2    1.403948 S    
C18   C23   1.406462 A    
C16   C79   1.540140 S    
Ba2   O21   2.816240 S    
C56   H102  1.082238 S    
C15   O24   1.405573 S    
