data_mof_unit_63808.cif
_audit_creation_date              2012-10-26T19:17:08-0400
_audit_creation_method            fapswitch 2.2
_symmetry_space_group_name_H-M    P1
_symmetry_Int_Tables_number       1
_space_group_crystal_system       triclinic
_cell_length_a                    15.106574
_cell_length_b                    15.813051
_cell_length_c                    17.067361
_cell_angle_alpha                 96.343882
_cell_angle_beta                  90.381428
_cell_angle_gamma                 93.046133
_cell_volume                      4046.0554854

loop_
_atom_site_label
_atom_site_type_symbol
_atom_type_description
_atom_site_fract_x
_atom_site_fract_y
_atom_site_fract_z
_atom_type_partial_charge
C1    C     C_R   0.502026 0.489681 0.348689 0.553976
C2    C     C_R   0.445092 0.464236 0.858858 0.426085
C3    C     C_R   0.499431 0.473107 0.097699 0.209468
C4    C     C_R   0.501620 0.526752 0.902461 0.209195
C5    C     C_R   0.448829 0.415004 0.137020 -0.140777
C6    C     C_R   0.550939 0.585684 0.863047 -0.140364
C7    C     C_R   0.451045 0.420328 0.218833 -0.175952
C8    C     C_R   0.548325 0.580434 0.781223 -0.175074
C9    C     C_R   0.455304 0.750346 0.462680 0.018713
C10   C     C_R   0.545150 0.249592 0.536858 0.018637
C11   C     C_R   0.457243 0.839549 0.464193 0.378915
C12   C     C_R   0.498036 0.510308 0.651343 0.558648
C13   C     C_R   0.543199 0.160386 0.535303 0.379152
C14   C     C_R   0.517888 0.891010 0.515029 0.157913
C15   C     C_R   0.482033 0.108984 0.484939 0.158677
C16   C     C_R   0.328424 0.499640 0.500117 0.573519
C17   C     C_R   0.671650 0.500258 0.498835 0.570880
C18   C     C_R   0.574085 0.849555 0.562326 -0.115408
C19   C     C_R   0.425373 0.150501 0.438109 -0.115978
C20   C     C_R   0.569739 0.760306 0.558980 0.530342
C21   C     C_R   0.429766 0.239750 0.441463 0.526020
C22   C     C_R   0.810186 0.425425 0.502025 -0.163654
C23   C     C_R   0.056705 0.643866 0.453640 0.089805
C24   C     C_R   0.190141 0.569484 0.477112 -0.164738
C25   C     C_R   0.768647 0.500417 0.493895 -0.000462
C26   C     C_R   0.231436 0.498029 0.496638 0.000822
C27   C     C_R   0.818957 0.573941 0.479346 0.399796
C28   C     C_R   0.180841 0.424563 0.510309 0.403674
C29   C     C_R   0.911631 0.572449 0.471151 0.013076
C30   C     C_R   0.088115 0.420446 0.500791 0.013470
C31   C     C_R   0.953471 0.496624 0.484514 -0.040439
C32   C     C_R   0.046363 0.495630 0.485403 -0.041221
C33   C     C_R   0.902189 0.422104 0.498420 -0.013899
C34   C     C_R   0.943206 0.345452 0.507583 0.089026
C35   C     C_R   0.097839 0.570338 0.472381 -0.013467
C36   C     C_R   0.963531 0.644325 0.450828 0.156087
C37   C     C_R   0.036242 0.343897 0.506681 0.156802
C38   C     C_R   0.504542 0.483868 0.262715 -0.052935
C39   C     C_R   0.495787 0.516062 0.737379 -0.054512
C40   C     C_R   0.559432 0.540362 0.223622 0.091955
C41   C     C_R   0.442252 0.458581 0.776600 0.093650
C42   C     C_R   0.556867 0.534737 0.141346 0.427926
Cu1   Cu    Cu3+1 0.495660 0.415220 0.496180 1.100022
Cu2   Cu    Cu3+1 0.504340 0.584780 0.503820 1.102131
F1    F     F_    0.600655 0.125941 0.582661 -0.571734
F2    F     F_    0.400316 0.873932 0.416308 -0.571379
F3    F     F_    0.624720 0.722124 0.605529 -0.566269
F4    F     F_    0.374333 0.277987 0.395358 -0.575963
F5    F     F_    0.776857 0.647164 0.477291 -0.557222
F6    F     F_    0.222706 0.360494 0.538823 -0.564672
F7    F     F_    0.391099 0.410227 0.895871 -0.568425
F8    F     F_    0.611985 0.587780 0.104339 -0.567362
H1    H     H_    0.769220 0.370231 0.513054 0.174896
H2    H     H_    0.408962 0.711406 0.423645 0.168309
H3    H     H_    0.231685 0.624314 0.466050 0.172265
H4    H     H_    0.621390 0.886575 0.601982 0.188607
H5    H     H_    0.377666 0.113532 0.398817 0.188004
H6    H     H_    0.405917 0.366474 0.104000 0.189513
H7    H     H_    0.593138 0.634871 0.895993 0.189655
H8    H     H_    0.409387 0.375815 0.248026 0.200092
H9    H     H_    0.588995 0.625669 0.751993 0.202700
H10   H     H_    0.591867 0.288483 0.575553 0.168795
I1    I     I_    0.905177 0.751891 0.407062 -0.029876
I2    I     I_    0.094723 0.222056 0.504300 -0.029021
I3    I     I_    0.135490 0.756150 0.430407 -0.178708
I4    I     I_    0.864683 0.230572 0.523298 -0.181836
I5    I     I_    0.350615 0.365915 0.716453 -0.045394
I6    I     I_    0.652751 0.631041 0.284197 -0.073310
N1    N     N_2   0.491669 0.466028 0.014451 -0.121903
N2    N     N_2   0.509661 0.533865 0.985728 -0.122815
N3    N     N_R   0.510860 0.712130 0.509560 -0.269457
N4    N     N_R   0.489140 0.287870 0.490440 -0.268493
N5    N     N_2   0.525716 0.982673 0.521382 -0.100080
N6    N     N_2   0.474185 0.017319 0.478573 -0.100365
O1    O     O_R   0.495940 0.420530 0.382500 -0.462468
O2    O     O_R   0.504060 0.579470 0.617500 -0.460661
O3    O     O_R   0.503270 0.563720 0.388950 -0.504515
O4    O     O_R   0.496730 0.436280 0.611050 -0.502052
O5    O     O_R   0.366590 0.428400 0.496760 -0.374893
O6    O     O_R   0.633410 0.571600 0.503240 -0.370351
O7    O     O_R   0.373920 0.571590 0.503210 -0.550595
O8    O     O_R   0.626080 0.428410 0.496790 -0.552519

loop_
_geom_bond_atom_site_label_1
_geom_bond_atom_site_label_2
_ccdc_geom_bond_type
C13   F1    S    
C3    C42   A    
Cu1   N4    S    
C27   C29   A    
C34   C37   A    
C1    O3    A    
N5    N6    D    
C14   C18   A    
C34   I4    S    
C4    N2    S    
C39   C41   A    
C19   H5    S    
C24   H3    S    
C15   C19   A    
C29   C36   A    
C5    H6    S    
Cu2   O3    S    
C19   C21   A    
C24   C26   A    
C11   C14   A    
C2    C41   A    
Cu1   O5    S    
Cu2   N3    S    
C17   O8    A    
Cu2   O2    S    
C28   F6    S    
C22   C25   A    
C12   O4    A    
C31   C33   A    
C20   N3    A    
C8    C39   A    
C30   C32   A    
C36   I1    S    
C18   H4    S    
C8    H9    S    
C21   F4    S    
C40   C42   A    
Cu1   O1    S    
C10   H10   S    
C22   H1    S    
C16   C26   S    
C24   C35   A    
C21   N4    A    
C1    O1    A    
C14   N5    S    
Cu2   O6    S    
C41   I5    S    
Cu2   O7    S    
C5    C7    A    
C6    C8    A    
C17   O6    A    
C30   C37   A    
Cu1   O4    S    
C2    C4    A    
Cu1   Cu2   S    
C32   C35   A    
C31   C32   A    
C33   C34   A    
C9    C11   A    
C1    C38   S    
C4    C6    A    
C23   C35   A    
C13   C15   A    
C12   O2    A    
C7    H8    S    
C37   I2    S    
C22   C33   A    
C3    N1    S    
C6    H7    S    
C9    N3    A    
C3    C5    A    
C10   C13   A    
C25   C27   A    
C26   C28   A    
C16   O5    A    
C17   C25   S    
C23   I3    S    
C12   C39   S    
C28   C30   A    
C29   C31   A    
C38   C40   A    
C16   O7    A    
C7    C38   A    
C18   C20   A    
N1    N2    D    
C20   F3    S    
C2    F7    S    
C15   N6    S    
C23   C36   A    
C40   I6    S    
Cu1   O8    S    
C11   F2    S    
C9    H2    S    
C27   F5    S    
C42   F8    S    
C10   N4    A    
