data_mof_unit_54866.cif
_audit_creation_date              2012-12-11T15:52:28-0500
_audit_creation_method            fapswitch 2.2
_symmetry_space_group_name_H-M    P1
_symmetry_Int_Tables_number       1
_space_group_crystal_system       triclinic
_cell_length_a                    11.041637
_cell_length_b                    11.022322
_cell_length_c                    18.780002
_cell_angle_alpha                 89.89717
_cell_angle_beta                  90.128498
_cell_angle_gamma                 120.020403
_cell_volume                      1978.98397263

loop_
_atom_site_label
_atom_site_type_symbol
_atom_type_description
_atom_site_fract_x
_atom_site_fract_y
_atom_site_fract_z
_atom_type_partial_charge
Br1   Br    Br    0.458211 0.231209 0.889863 -0.397168
Br2   Br    Br    0.798009 0.261782 0.882752 -0.390098
Br3   Br    Br    0.757093 0.567596 0.883801 -0.361438
Br4   Br    Br    0.933869 0.136934 0.080975 -0.436169
Br5   Br    Br    0.197623 0.062253 0.086393 -0.429857
Br6   Br    Br    0.860019 0.800901 0.087952 -0.422618
C1    C     C_R   0.518626 0.457765 0.147660 0.538360
C2    C     C_3   0.026384 0.741919 0.460035 -0.277020
C3    C     C_3   0.717760 0.974900 0.461045 -0.277095
C4    C     C_3   0.253417 0.281395 0.452019 -0.266035
C5    C     C_R   0.519196 0.458038 0.353417 0.546419
C6    C     C_R   0.545623 0.066879 0.355471 0.540052
C7    C     C_R   0.930343 0.477247 0.356229 0.541718
C8    C     C_R   0.455425 0.519971 0.645289 0.574081
C9    C     C_R   0.058685 0.541646 0.647291 0.574976
C10   C     C_R   0.482521 0.940662 0.647068 0.565904
C11   C     C_R   0.485391 0.954131 0.931460 0.057506
C12   C     C_R   0.542343 0.061660 0.147651 0.543077
C13   C     C_R   0.087887 0.554381 0.935457 0.039065
C14   C     C_R   0.447129 0.535950 0.935733 0.044163
C15   C     C_R   0.015133 0.512686 0.080805 0.000797
C16   C     C_R   0.497991 0.991157 0.079615 0.000849
C17   C     C_R   0.487052 0.504804 0.081380 -0.000679
C18   C     C_R   0.388194 0.978197 0.966148 -0.033578
C19   C     C_R   0.045604 0.425785 0.968251 -0.023775
C20   C     C_R   0.573211 0.628603 0.969677 -0.023969
C21   C     C_R   0.006943 0.405555 0.038625 0.013121
C22   C     C_R   0.400505 0.003941 0.038040 0.007998
C23   C     C_R   0.938411 0.481318 0.147468 0.542049
C24   C     C_R   0.593130 0.607565 0.040080 0.007076
C25   C     C_R   0.574454 0.936090 0.047450 -0.142767
C26   C     C_R   0.077484 0.648035 0.051204 -0.131332
C27   C     C_R   0.353214 0.428903 0.050924 -0.135354
C28   C     C_R   0.108932 0.667421 0.978524 -0.134084
C29   C     C_R   0.573241 0.924319 0.973560 -0.138534
C30   C     C_R   0.335660 0.439158 0.977995 -0.136607
C31   C     C_3   0.338068 0.079422 0.952753 0.042216
C32   C     C_3   0.939563 0.277930 0.949346 0.053642
C33   C     C_3   0.724224 0.678423 0.952785 0.059439
C34   C     C_R   0.423646 0.544948 0.860123 0.558737
C35   C     C_3   0.892812 0.259568 0.026873 0.054573
C36   C     C_3   0.363330 0.115561 0.031716 0.061318
C37   C     C_3   0.740259 0.643376 0.029451 0.060171
C38   C     C_R   0.512594 0.013333 0.579338 0.026712
C39   C     C_R   0.983609 0.498531 0.580201 0.025737
C40   C     C_R   0.478779 0.508045 0.570628 0.021869
C41   C     C_R   0.957588 0.484311 0.431939 0.018511
C42   C     C_R   0.523404 0.034731 0.430679 0.018878
C43   C     C_R   0.498100 0.503491 0.422129 0.017323
C44   C     C_R   0.633623 0.040222 0.542257 0.033160
C45   C     C_R   0.121505 0.576921 0.860128 0.555134
C46   C     C_R   0.959478 0.594400 0.542607 0.027616
C47   C     C_R   0.359983 0.433267 0.528226 0.036537
C48   C     C_R   0.947801 0.587120 0.470080 0.032209
C49   C     C_R   0.637374 0.049452 0.469624 0.039017
C50   C     C_R   0.367992 0.431660 0.455499 0.018773
C51   C     C_R   0.411963 0.032613 0.467878 -0.168015
C52   C     C_R   0.952905 0.371900 0.470009 -0.155262
C53   C     C_R   0.615797 0.596112 0.463116 -0.165678
C54   C     C_R   0.964154 0.378263 0.544504 -0.153471
C55   C     C_R   0.408219 0.025249 0.542432 -0.169319
C56   C     C_R   0.476178 0.926869 0.855679 0.599489
C57   C     C_R   0.606436 0.597397 0.537330 -0.171858
C58   C     C_3   0.715996 0.965268 0.541243 -0.268589
C59   C     C_3   0.040238 0.751684 0.540012 -0.270100
C60   C     C_3   0.248845 0.282943 0.532355 -0.265807
Cr1   Cr    Cr6+3 0.769160 0.541570 0.250690 1.074363
Cr2   Cr    Cr6+3 0.458430 0.227590 0.250690 1.070228
Cr3   Cr    Cr6+3 0.772410 0.230840 0.250690 1.074828
Cr4   Cr    Cr6+3 0.541570 0.769160 0.749310 1.050307
Cr5   Cr    Cr6+3 0.227590 0.458430 0.749310 1.053919
Cr6   Cr    Cr6+3 0.230840 0.772410 0.749310 1.046865
H1    H     H_    0.645876 0.916432 0.078102 0.212602
H2    H     H_    0.787164 0.246127 0.035506 0.160472
H3    H     H_    0.453224 0.221465 0.043251 0.160219
H4    H     H_    0.754855 0.551091 0.035646 0.162146
H5    H     H_    0.326015 0.030761 0.439446 0.121047
H6    H     H_    0.945346 0.282655 0.442336 0.126678
H7    H     H_    0.717356 0.657518 0.438771 0.139802
H8    H     H_    0.968404 0.295670 0.573338 0.121993
H9    H     H_    0.318502 0.016074 0.570321 0.119842
H10   H     H_    0.698903 0.664228 0.568454 0.128187
H11   H     H_    0.655331 0.855698 0.560129 0.170124
H12   H     H_    0.089988 0.736094 0.082278 0.211854
H13   H     H_    0.149895 0.794684 0.557371 0.165258
H14   H     H_    0.149176 0.267850 0.553646 0.138542
H15   H     H_    0.960557 0.783504 0.438597 0.139458
H16   H     H_    0.824028 0.042288 0.438889 0.137312
H17   H     H_    0.286983 0.208744 0.432013 0.164477
H18   H     H_    0.821297 0.028328 0.565676 0.129832
H19   H     H_    0.982910 0.799452 0.565136 0.134665
H20   H     H_    0.286530 0.217008 0.557995 0.142498
H21   H     H_    0.127542 0.778899 0.432042 0.141847
H22   H     H_    0.655576 0.871705 0.434337 0.145336
H23   H     H_    0.265690 0.351129 0.081391 0.214044
H24   H     H_    0.157336 0.269643 0.426455 0.132532
H25   H     H_    0.141129 0.768335 0.955083 0.151815
H26   H     H_    0.644406 0.896377 0.949393 0.156844
H27   H     H_    0.237568 0.365121 0.953779 0.152869
H28   H     H_    0.225971 0.025625 0.936997 0.164882
H29   H     H_    0.988656 0.215004 0.934051 0.159246
H30   H     H_    0.784253 0.792404 0.940884 0.157878
O1    O     O_R   0.911480 0.572650 0.170990 -0.486067
O2    O     O_R   0.528970 0.640340 0.824320 -0.466931
O3    O     O_R   0.111370 0.471030 0.824320 -0.485178
O4    O     O_R   0.359660 0.888630 0.824320 -0.512305
O5    O     O_R   0.909980 0.572450 0.331530 -0.514495
O6    O     O_R   0.427550 0.337530 0.331530 -0.519805
O7    O     O_R   0.662470 0.090020 0.331530 -0.514430
O8    O     O_R   0.572450 0.909980 0.668470 -0.515924
O9    O     O_R   0.337530 0.427550 0.668470 -0.507050
O10   O     O_R   0.090020 0.662470 0.668470 -0.513237
O11   O     O_R   0.638950 0.528780 0.324500 -0.508107
O12   O     O_R   0.427350 0.338830 0.170990 -0.489723
O13   O     O_R   0.471220 0.110170 0.324500 -0.506475
O14   O     O_R   0.889830 0.361050 0.324500 -0.506438
O15   O     O_R   0.528780 0.638950 0.675500 -0.498184
O16   O     O_R   0.110170 0.471220 0.675500 -0.497495
O17   O     O_R   0.361050 0.889830 0.675500 -0.503536
O18   O     O_3   0.666667 0.333333 0.250560 -0.279937
O19   O     O_3   0.333333 0.666667 0.749440 -0.326515
O20   O     O_R   0.661170 0.088520 0.170990 -0.484210
O21   O     O_R   0.572650 0.911480 0.829010 -0.503815
O22   O     O_R   0.338830 0.427350 0.829010 -0.467871
O23   O     O_R   0.088520 0.661170 0.829010 -0.458868
O24   O     O_R   0.640340 0.528970 0.175680 -0.472528
O25   O     O_R   0.471030 0.111370 0.175680 -0.475519
O26   O     O_R   0.888630 0.359660 0.175680 -0.472162

loop_
_geom_bond_atom_site_label_1
_geom_bond_atom_site_label_2
_ccdc_geom_bond_type
C42   C49   A    
Br5   C36   S    
Cr6   O10   S    
C39   C54   A    
Cr6   O19   S    
C3    C58   S    
C44   C58   S    
C58   H18   S    
C6    C42   S    
C28   H25   S    
C10   O8    A    
C42   C51   A    
C8    C40   S    
C36   H3    S    
C1    O12   A    
C32   H29   S    
C3    H16   S    
C12   O25   A    
Cr4   O2    S    
C20   C33   S    
C25   H1    S    
Br4   C35   S    
Cr4   O15   S    
C52   C54   A    
C27   C30   A    
C23   O1    A    
C31   C36   S    
C21   C35   S    
C6    O7    A    
Cr4   O8    S    
C35   H2    S    
Cr3   O7    S    
Cr4   O21   S    
C4    H17   S    
C17   C27   A    
Cr5   O9    S    
C19   C32   S    
C3    C49   S    
C29   H26   S    
C4    C50   S    
Cr1   O18   S    
C10   C38   S    
C1    C17   S    
Br1   C31   S    
C6    O13   A    
C15   C21   A    
Br3   C33   S    
C2    C59   S    
C16   C22   A    
C26   H12   S    
C27   H23   S    
C56   O21   A    
C46   C48   A    
C4    C60   S    
C8    O9    A    
C34   O22   A    
C15   C26   A    
C11   C18   A    
C16   C25   A    
C57   H10   S    
Cr1   O1    S    
C45   O23   A    
C17   C24   A    
C51   H5    S    
Cr5   O22   S    
Cr3   O26   S    
C32   C35   S    
Cr1   O24   S    
C53   H7    S    
C7    C41   S    
C33   C37   S    
Cr2   O13   S    
C39   C46   A    
C15   C23   S    
C26   C28   A    
C58   H11   S    
C5    C43   S    
C11   C56   S    
C34   O2    A    
Br2   C32   S    
C4    H24   S    
C45   O3    A    
C8    O15   A    
C18   C31   S    
C51   C55   A    
C47   C60   S    
Cr2   O25   S    
C12   O20   A    
C41   C48   A    
Cr6   O4    S    
C20   C24   A    
Br6   C37   S    
Cr5   O3    S    
C25   C29   A    
C24   C37   S    
C10   O17   A    
C9    C39   S    
C2    C48   S    
C5    O6    A    
C33   H30   S    
C47   C50   A    
C38   C44   A    
C37   H4    S    
C59   H19   S    
C54   H8    S    
Cr5   O16   S    
C12   C16   S    
C9    O10   A    
Cr5   O19   S    
C2    H21   S    
C18   C22   A    
Cr3   O14   S    
C13   C28   A    
C60   H14   S    
C60   H20   S    
C59   H13   S    
C56   O4    A    
C38   C55   A    
C19   C21   A    
C43   C50   A    
C11   C29   A    
C40   C57   A    
Cr3   O18   S    
C53   C57   A    
C44   C49   A    
C43   C53   A    
C9    O16   A    
Cr6   O23   S    
C2    H15   S    
Cr1   O11   S    
C55   H9    S    
Cr2   O18   S    
C41   C52   A    
Cr4   O19   S    
Cr1   O5    S    
C14   C20   A    
Cr3   O20   S    
C14   C34   S    
C40   C47   A    
C22   C36   S    
C30   H27   S    
C1    O24   A    
C5    O11   A    
C7    O14   A    
Cr6   O17   S    
C52   H6    S    
C13   C19   A    
C14   C30   A    
C13   C45   S    
C23   O26   A    
C7    O5    A    
Cr2   O6    S    
C3    H22   S    
C31   H28   S    
C46   C59   S    
Cr2   O12   S    
