data_mof_unit_23769.cif
_audit_creation_date              2012-12-10T21:06:58-0500
_audit_creation_method            fapswitch 2.2
_symmetry_space_group_name_H-M    P1
_symmetry_Int_Tables_number       1
_space_group_crystal_system       triclinic
_cell_length_a                    10.782103
_cell_length_b                    15.824751
_cell_length_c                    15.040802
_cell_angle_alpha                 90.709648
_cell_angle_beta                  91.320069
_cell_angle_gamma                 89.993782
_cell_volume                      2565.44530464

loop_
_atom_site_label
_atom_site_type_symbol
_atom_type_description
_atom_site_fract_x
_atom_site_fract_y
_atom_site_fract_z
_atom_type_partial_charge
C1    C     C_R   0.499435 0.338835 0.499415 0.889854
C2    C     C_R   0.480941 0.087053 0.500521 -0.017032
C3    C     C_R   0.441367 0.954381 0.425171 0.497894
C4    C     C_R   0.516474 0.045711 0.578872 0.495282
C5    C     C_1   0.486480 0.824213 0.503117 0.027493
C6    C     C_1   0.486870 0.175819 0.497973 0.026002
C7    C     C_1   0.493097 0.250563 0.498019 -0.190748
C8    C     C_1   0.493035 0.749466 0.502005 -0.185384
C9    C     C_R   0.499790 0.423212 0.951987 -0.206224
C10   C     C_R   0.488938 0.575677 0.047636 -0.210257
C11   C     C_R   0.492932 0.499386 0.904840 0.062408
C12   C     C_R   0.499449 0.661175 0.500572 0.913142
C13   C     C_R   0.496701 0.499574 0.094830 0.112163
C14   C     C_R   0.486225 0.575563 0.953776 -0.229773
C15   C     C_R   0.501398 0.423307 0.045885 -0.137856
C16   C     C_R   0.259358 0.499654 0.498694 0.861017
C17   C     C_R   0.740696 0.497675 0.501138 0.884274
C18   C     C_1   0.496818 0.499657 0.807136 0.020631
C19   C     C_1   0.498776 0.499782 0.192730 0.047499
C20   C     C_R   0.191604 0.646928 0.237524 -0.181822
C21   C     C_R   0.777277 0.350033 0.755520 -0.190496
C22   C     C_R   0.144694 0.622652 0.318916 -0.189472
C23   C     C_R   0.872989 0.493951 0.502449 -0.113169
C24   C     C_R   0.820354 0.375518 0.673349 -0.171684
C25   C     C_R   0.111863 0.538305 0.332876 -0.039573
C26   C     C_R   0.890186 0.449919 0.666630 -0.028695
C27   C     C_R   0.128136 0.477421 0.264766 0.441567
C28   C     C_R   0.920015 0.497991 0.744246 0.420286
C29   C     C_R   0.172077 0.502082 0.181456 0.437777
C30   C     C_R   0.872811 0.473224 0.826895 0.404188
C31   C     C_R   0.205305 0.587535 0.169110 -0.345414
C32   C     C_R   0.803934 0.398038 0.831975 -0.308029
C33   C     C_R   0.930758 0.513056 0.422772 -0.200154
C34   C     C_R   0.127277 0.495767 0.496075 -0.119944
C35   C     C_R   0.069970 0.471952 0.574020 -0.206256
C36   C     C_3   0.193895 0.345959 0.303977 0.170476
C37   C     C_3   0.161232 0.252740 0.295097 -0.813743
C38   C     C_3   0.100793 0.569436 0.781315 0.123600
C39   C     C_3   0.187972 0.633552 0.741429 -0.800309
C40   C     C_3   0.160223 0.466346 0.030695 0.103996
C41   C     C_3   0.139757 0.389224 0.970823 -0.756165
C42   C     C_3   0.796906 0.554405 0.940278 0.128711
C43   C     C_3   0.835037 0.619844 0.010616 -0.843121
C44   C     C_3   0.460624 0.098918 0.712937 0.111876
C45   C     C_R   0.942926 0.472854 0.579624 0.086466
C46   C     C_3   0.496735 0.162911 0.785288 -0.840185
C47   C     C_3   0.495435 0.901913 0.290206 0.111200
C48   C     C_3   0.458131 0.838377 0.217683 -0.836118
C49   C     C_R   0.057565 0.514520 0.418564 0.066222
C50   C     C_R   0.517343 0.957868 0.579307 -0.370354
C51   C     C_R   0.440933 0.042310 0.424636 -0.375878
C52   C     C_R   0.479733 0.913032 0.502918 -0.016834
H1    H     H_    0.242976 0.608665 0.107291 0.154050
H2    H     H_    0.124653 0.452286 0.631424 0.157575
H3    H     H_    0.548478 0.924934 0.638533 0.178264
H4    H     H_    0.411103 0.075343 0.365150 0.172616
H5    H     H_    0.506821 0.363676 0.080317 0.134862
H6    H     H_    0.481006 0.635214 0.919367 0.141108
H7    H     H_    0.217445 0.359418 0.374978 0.138964
H8    H     H_    0.277036 0.357737 0.263078 0.156520
H9    H     H_    0.138389 0.236616 0.224526 0.266358
H10   H     H_    0.241316 0.213756 0.317776 0.199908
H11   H     H_    0.080174 0.238183 0.336520 0.256454
H12   H     H_    0.771970 0.376243 0.895398 0.164028
H13   H     H_    0.144859 0.505900 0.776018 0.104978
H14   H     H_    0.091142 0.586383 0.852647 0.190699
H15   H     H_    0.150279 0.698359 0.750200 0.250297
H16   H     H_    0.280497 0.630056 0.775185 0.202223
H17   H     H_    0.198520 0.620367 0.669370 0.271398
H18   H     H_    0.238164 0.503219 0.003775 0.155534
H19   H     H_    0.074032 0.505003 0.028872 0.182275
H20   H     H_    0.060198 0.351724 0.994440 0.259899
H21   H     H_    0.119467 0.409272 0.901609 0.196942
H22   H     H_    0.224302 0.349102 0.971393 0.245132
H23   H     H_    0.505043 0.363559 0.916165 0.137731
H24   H     H_    0.742555 0.504660 0.973300 0.169615
H25   H     H_    0.738294 0.586643 0.888906 0.155791
H26   H     H_    0.893030 0.669490 0.980622 0.257588
H27   H     H_    0.751149 0.649796 0.038639 0.217275
H28   H     H_    0.888664 0.589306 0.065338 0.247931
H29   H     H_    0.442724 0.037024 0.744616 0.139792
H30   H     H_    0.373568 0.121727 0.679565 0.134222
H31   H     H_    0.510867 0.225966 0.755502 0.254530
H32   H     H_    0.421790 0.167816 0.834509 0.204797
H33   H     H_    0.583758 0.142909 0.819933 0.256950
H34   H     H_    0.484926 0.635398 0.083433 0.139555
H35   H     H_    0.583253 0.879125 0.322490 0.136130
H36   H     H_    0.512270 0.964105 0.258854 0.139540
H37   H     H_    0.371077 0.858975 0.183491 0.254284
H38   H     H_    0.532621 0.833333 0.168124 0.203579
H39   H     H_    0.443406 0.775249 0.247192 0.259739
H40   H     H_    0.217176 0.712162 0.227292 0.175777
H41   H     H_    0.724344 0.292250 0.760142 0.176833
H42   H     H_    0.133328 0.669631 0.371092 0.161207
H43   H     H_    0.800190 0.336895 0.614817 0.153771
H44   H     H_    0.877295 0.529287 0.363390 0.172706
N1    N     N_1   0.499960 0.500020 0.270550 -0.099332
N2    N     N_1   0.500040 0.499980 0.729450 -0.085420
O1    O     O_R   0.500000 0.378020 0.573650 -0.605506
O2    O     O_3   0.984228 0.573487 0.736222 -0.600098
O3    O     O_3   0.190056 0.439074 0.117634 -0.609301
O4    O     O_3   0.904174 0.519190 0.902979 -0.655627
O5    O     O_3   0.558503 0.091285 0.652606 -0.602715
O6    O     O_3   0.398821 0.908687 0.351652 -0.603347
O7    O     O_R   0.500000 0.621980 0.426350 -0.602465
O8    O     O_R   0.500060 0.378020 0.426320 -0.625595
O9    O     O_R   0.499940 0.621980 0.573680 -0.610291
O10   O     O_R   0.316730 0.500010 0.573660 -0.625124
O11   O     O_R   0.683270 0.499990 0.426340 -0.619467
O12   O     O_R   0.316790 0.500010 0.426330 -0.632742
O13   O     O_R   0.683210 0.499990 0.573670 -0.603422
O14   O     O_3   0.090510 0.394803 0.276580 -0.603694
Zn1   Zn    Zn3+2 0.499960 0.500000 0.598370 0.971523
Zn2   Zn    Zn3+2 0.500040 0.500000 0.401630 0.963861

loop_
_geom_bond_atom_site_label_1
_geom_bond_atom_site_label_2
_ccdc_geom_bond_type
C3    O6    S    
C11   C18   S    
C23   C45   A    
C40   H19   S    
C27   C29   A    
C15   H5    S    
C39   H16   S    
C36   H7    S    
C42   H24   S    
C1    O1    A    
C37   H10   S    
C19   N1    T    
C16   O12   A    
C43   H26   S    
C20   H40   S    
C17   C23   S    
C40   H18   S    
O8    Zn2   S    
C36   C37   S    
C24   C26   A    
C34   C35   A    
C44   H30   S    
C12   O7    A    
C11   C14   A    
C43   H27   S    
C4    O5    S    
C42   O4    S    
C51   H4    S    
O9    Zn1   S    
C26   C45   S    
C16   C34   S    
C41   H22   S    
C38   H14   S    
C23   C33   A    
C48   H39   S    
C36   O14   S    
C50   C52   A    
C5    C52   S    
O12   Zn2   S    
C1    O8    A    
C46   H33   S    
C28   O2    S    
C40   O3    S    
C48   H38   S    
C35   H2    S    
C22   H42   S    
C2    C6    S    
C17   O13   A    
C37   H11   S    
C44   O5    S    
C44   C46   S    
C14   H6    S    
C21   C32   A    
C13   C19   S    
O7    Zn2   S    
C32   H12   S    
C38   O2    S    
C44   H29   S    
C10   C14   A    
C24   H43   S    
C3    C51   A    
N2    Zn1   S    
C43   H28   S    
C22   C25   A    
C4    C50   A    
C47   H35   S    
O10   Zn1   S    
C2    C4    A    
C12   O9    A    
C47   C48   S    
C38   H13   S    
C8    C12   S    
C30   O4    S    
C39   H17   S    
C29   O3    S    
O13   Zn1   S    
C31   H1    S    
C9    C11   A    
O11   Zn2   S    
C41   H20   S    
C46   H32   S    
C40   C41   S    
C20   C22   A    
C27   O14   S    
C48   H37   S    
C13   C15   A    
C42   C43   S    
C35   C45   A    
C33   H44   S    
C10   H34   S    
C34   C49   A    
C47   O6    S    
C1    C7    S    
C39   H15   S    
C36   H8    S    
C10   C13   A    
C17   O11   A    
O1    Zn1   S    
C5    C8    T    
C37   H9    S    
C3    C52   A    
C6    C7    T    
C25   C27   A    
C18   N2    T    
C26   C28   A    
C50   H3    S    
C47   H36   S    
C28   C30   A    
C9    C15   A    
C29   C31   A    
C30   C32   A    
C38   C39   S    
C21   H41   S    
C25   C49   S    
C2    C51   A    
C16   O10   A    
C41   H21   S    
C46   H31   S    
C42   H25   S    
C21   C24   A    
C9    H23   S    
N1    Zn2   S    
C33   C49   A    
C20   C31   A    
