data_mof_unit_33738.cif
_audit_creation_date              2012-12-11T15:25:37-0500
_audit_creation_method            fapswitch 2.2
_symmetry_space_group_name_H-M    P1
_symmetry_Int_Tables_number       1
_space_group_crystal_system       triclinic
_cell_length_a                    6.944505
_cell_length_b                    23.065013
_cell_length_c                    25.901974
_cell_angle_alpha                 104.426534
_cell_angle_beta                  89.811557
_cell_angle_gamma                 90.591169
_cell_volume                      4017.81420398

loop_
_atom_site_label
_atom_site_type_symbol
_atom_type_description
_atom_site_fract_x
_atom_site_fract_y
_atom_site_fract_z
_atom_type_partial_charge
O1    O     O_R   0.494330 0.439230 0.438150 -0.554170
O2    O     O_R   0.820190 0.446230 0.546380 -0.554910
O3    O     O_R   0.994320 0.560770 0.561850 -0.522546
C1    C     C_R   0.649786 0.434240 0.563314 0.738764
O4    O     O_R   0.823790 0.432220 0.437600 -0.537788
O5    O     O_R   0.997940 0.546660 0.452300 -0.541948
C2    C     C_R   0.655204 0.414829 0.418148 0.759991
O6    O     O_R   0.490700 0.453340 0.547700 -0.505497
O7    O     O_3   0.662060 0.537560 0.504950 -0.363399
V1    V     V_3+5 0.935420 0.493030 0.499080 1.441186
O8    O     O_R   0.327880 0.553770 0.453620 -0.551139
C3    C     C_R   0.159574 0.566187 0.437244 0.666255
O9    O     O_R   0.324280 0.567780 0.562400 -0.513084
C4    C     C_R   0.155402 0.584985 0.582028 0.754866
V2    V     V_3+5 0.435890 0.506970 0.500920 1.473906
O10   O     O_3   0.159380 0.462440 0.495050 -0.371944
C5    C     C_R   0.933009 0.856995 0.830981 -0.203598
C6    C     C_R   0.084079 0.866587 0.868135 -0.085450
C7    C     C_R   0.247858 0.830167 0.857134 -0.224227
C8    C     C_R   0.259429 0.784130 0.810112 0.110056
C9    C     C_R   0.108389 0.775324 0.772492 0.102025
C10   C     C_R   0.946199 0.812435 0.782959 0.044353
C11   C     C_R   0.419650 0.746753 0.800158 -0.231404
C12   C     C_R   0.429152 0.700420 0.753904 -0.093658
C13   C     C_R   0.279466 0.690672 0.716057 0.052590
C14   C     C_R   0.119413 0.729294 0.724689 -0.166023
C15   C     C_R   0.971635 0.722349 0.685806 -0.091162
C16   C     C_R   0.810096 0.761148 0.696530 0.474253
C17   C     C_R   0.798516 0.804521 0.745506 -0.307368
C18   C     C_R   0.286344 0.642292 0.670537 0.374335
C19   C     C_R   0.145195 0.636275 0.630090 -0.314601
C20   C     C_R   0.991651 0.678037 0.636816 0.389859
H1    H     H_    0.365236 0.837056 0.885591 0.130144
H2    H     H_    0.555674 0.672486 0.747761 0.158388
C21   C     C_R   0.242014 0.866710 0.110131 -0.183343
H3    H     H_    0.370612 0.869747 0.087136 0.136179
C22   C     C_R   0.245003 0.831176 0.146751 -0.211625
C23   C     C_R   0.082794 0.826092 0.178276 -0.055074
C24   C     C_R   0.914354 0.858298 0.172381 0.439602
C25   C     C_R   0.910920 0.891517 0.133036 -0.268415
H4    H     H_    0.780585 0.913800 0.126329 0.114480
C26   C     C_R   0.074473 0.896848 0.102439 -0.088291
N1    N     N_R   0.938009 0.778596 0.246301 -0.211615
N2    N     N_R   0.949104 0.744719 0.281054 -0.292969
C27   C     C_R   0.117287 0.718471 0.288769 0.494780
N3    N     N_R   0.273504 0.727381 0.259826 -0.281290
N4    N     N_R   0.261883 0.761054 0.224878 -0.296654
C28   C     C_R   0.094031 0.787776 0.217373 0.535263
C29   C     C_R   0.308233 0.661938 0.342800 -0.146674
C30   C     C_R   0.318647 0.625413 0.378659 -0.180509
H5    H     H_    0.458896 0.611670 0.389058 0.113171
C31   C     C_R   0.150156 0.606181 0.400071 -0.043019
C32   C     C_R   0.971336 0.625390 0.385341 -0.169155
C33   C     C_R   0.961047 0.662073 0.349738 -0.141290
C34   C     C_R   0.129204 0.680491 0.327605 0.035795
C35   C     C_R   0.461573 0.364934 0.609327 0.345841
C36   C     C_R   0.461657 0.326638 0.645341 0.327675
C37   C     C_R   0.626550 0.323997 0.676984 -0.120101
C38   C     C_R   0.791555 0.356741 0.670628 -0.204796
C39   C     C_R   0.794561 0.392516 0.634535 -0.279039
H6    H     H_    0.922159 0.419370 0.632931 0.179729
C40   C     C_R   0.635006 0.395840 0.602333 -0.203180
N5    N     N_R   0.786038 0.262601 0.730579 -0.296772
N6    N     N_R   0.779947 0.228462 0.765327 -0.294571
C41   C     C_R   0.611828 0.219504 0.789499 0.506880
N7    N     N_R   0.451950 0.247659 0.778536 -0.225072
N8    N     N_R   0.458014 0.281736 0.743941 -0.229645
C42   C     C_R   0.624271 0.289265 0.718527 0.525302
C43   C     C_R   0.425962 0.151596 0.835749 0.454268
C44   C     C_R   0.419399 0.116350 0.873037 -0.267177
H7    H     H_    0.281899 0.098556 0.882034 0.126886
C45   C     C_R   0.587499 0.103745 0.898131 -0.099393
C46   C     C_R   0.763233 0.128052 0.885953 -0.171375
H8    H     H_    0.895770 0.119269 0.904445 0.135319
C47   C     C_R   0.769232 0.166148 0.851477 -0.231153
H9    H     H_    0.905215 0.186614 0.845268 0.198289
C48   C     C_R   0.601596 0.178923 0.826272 -0.064892
C49   C     C_R   0.495513 0.129715 0.176728 -0.282383
C50   C     C_R   0.585272 0.135664 0.129933 -0.189840
C51   C     C_R   0.685781 0.189200 0.129420 0.379453
C52   C     C_R   0.701173 0.236153 0.176958 -0.058311
C53   C     C_R   0.612445 0.228606 0.224345 -0.077552
C54   C     C_R   0.509857 0.175156 0.224078 0.046186
C55   C     C_R   0.803369 0.290304 0.178779 0.408028
C56   C     C_R   0.803029 0.336783 0.225713 -0.260292
C57   C     C_R   0.715503 0.329702 0.272578 -0.029255
C58   C     C_R   0.626494 0.274461 0.272344 -0.055466
C59   C     C_R   0.552807 0.264779 0.320275 -0.012697
C60   C     C_R   0.451181 0.211668 0.319191 -0.255943
C61   C     C_R   0.424042 0.167868 0.271450 0.381604
C62   C     C_R   0.711994 0.377280 0.319394 0.342934
C63   C     C_R   0.648047 0.366256 0.368082 -0.256105
C64   C     C_R   0.583196 0.308217 0.368641 0.306272
H10   H     H_    0.872573 0.378750 0.225289 0.170073
O11   O     O_R   0.738220 0.046730 0.952360 -0.537726
O12   O     O_R   0.404950 0.067790 0.062410 -0.544689
O13   O     O_R   0.230980 0.953320 0.047680 -0.541532
C65   C     C_R   0.574297 0.085027 0.081850 0.743716
O14   O     O_R   0.408720 0.053790 0.953630 -0.545481
O15   O     O_R   0.234780 0.939210 0.938130 -0.540733
C66   C     C_R   0.577926 0.065596 0.936804 0.706814
O16   O     O_R   0.734430 0.060840 0.061910 -0.521967
O17   O     O_3   0.566930 0.962480 0.995080 -0.373660
V3    V     V_3+5 0.293490 0.006960 0.000910 1.402681
O18   O     O_R   0.904820 0.932150 0.937550 -0.543607
C67   C     C_R   0.073635 0.915610 0.917514 0.705379
O19   O     O_R   0.901050 0.946150 0.046320 -0.541862
C68   C     C_R   0.068937 0.934323 0.063142 0.711534
V4    V     V_3+5 0.793050 0.992940 0.999010 1.418346
O20   O     O_3   0.069480 0.037520 0.004920 -0.361106
H11   H     H_    0.807062 0.885272 0.838842 0.123322
H12   H     H_    0.376439 0.807726 0.150486 0.187350
O21   O     O_3   0.752676 0.852931 0.202890 -0.558566
C69   C     C_3   0.650690 0.907195 0.219681 0.062420
H13   H     H_    0.551890 0.911970 0.187405 0.134943
H14   H     H_    0.749292 0.946827 0.230156 0.107210
C70   C     C_3   0.531751 0.905488 0.269113 -0.250858
H15   H     H_    0.465534 0.860452 0.264075 0.241384
H16   H     H_    0.627834 0.914001 0.304499 0.188688
C71   C     C_3   0.371356 0.951714 0.278810 -0.860627
H17   H     H_    0.431231 0.997380 0.282856 0.261213
H18   H     H_    0.293009 0.950662 0.316000 0.234712
H19   H     H_    0.267456 0.941283 0.245185 0.233975
H20   H     H_    0.440824 0.675492 0.326852 0.135485
H21   H     H_    0.838434 0.612052 0.401298 0.111267
H22   H     H_    0.820620 0.675477 0.339145 0.129086
O22   O     O_3   0.292599 0.383597 0.589303 -0.559460
C72   C     C_3   0.165067 0.337710 0.562477 0.107000
H23   H     H_    0.034504 0.360003 0.553280 0.149017
H24   H     H_    0.105477 0.310446 0.587888 0.138862
C73   C     C_3   0.243491 0.299225 0.509825 -0.395618
H25   H     H_    0.402144 0.295845 0.511753 0.205653
H26   H     H_    0.182828 0.253322 0.503580 0.151222
C74   C     C_3   0.186628 0.323526 0.462257 -0.583131
H27   H     H_    0.193407 0.287336 0.424944 0.203938
H28   H     H_    0.286147 0.360094 0.459336 0.271247
H29   H     H_    0.039144 0.341632 0.465780 0.172721
O23   O     O_3   0.297406 0.295473 0.653069 -0.562098
C75   C     C_3   0.315705 0.234812 0.624394 0.059961
H30   H     H_    0.433238 0.212371 0.640865 0.121538
H31   H     H_    0.347991 0.231290 0.581594 0.095516
C76   C     C_3   0.126934 0.201495 0.628536 -0.251294
H32   H     H_    0.105862 0.198660 0.670387 0.236960
H33   H     H_    0.003667 0.226301 0.617518 0.190685
C77   C     C_3   0.127779 0.138509 0.591823 -0.875862
H34   H     H_    0.136859 0.140706 0.549517 0.235739
H35   H     H_    0.992664 0.114644 0.597428 0.238022
H36   H     H_    0.252190 0.112989 0.601072 0.241447
H37   H     H_    0.917816 0.356099 0.694927 0.199239
O24   O     O_3   0.258885 0.162356 0.810669 -0.565802
C78   C     C_3   0.191347 0.109220 0.774835 0.078645
H38   H     H_    0.042421 0.117684 0.763223 0.163921
H39   H     H_    0.180758 0.070787 0.793563 0.096667
C79   C     C_3   0.314459 0.092821 0.724032 -0.318428
H40   H     H_    0.327058 0.132015 0.706499 0.216375
H41   H     H_    0.461380 0.080246 0.733872 0.177865
C80   C     C_3   0.225270 0.040281 0.683071 -0.849186
H42   H     H_    0.207209 0.001173 0.700469 0.235373
H43   H     H_    0.320660 0.027537 0.647649 0.234114
H44   H     H_    0.082461 0.052780 0.670202 0.239278
H45   H     H_    0.418277 0.088493 0.176276 0.166570
O25   O     O_3   0.771218 0.195099 0.082603 -0.555363
C81   C     C_3   0.631398 0.214620 0.051247 0.125519
H46   H     H_    0.536576 0.249659 0.075735 0.108795
H47   H     H_    0.540249 0.176062 0.030291 0.087981
C82   C     C_3   0.733273 0.240998 0.009791 -0.271466
H48   H     H_    0.825901 0.279400 0.030111 0.226112
H49   H     H_    0.827376 0.206541 0.984731 0.193105
C83   C     C_3   0.589245 0.262589 0.974434 -0.816619
H50   H     H_    0.488751 0.225876 0.955319 0.240450
H51   H     H_    0.667600 0.278013 0.942791 0.245622
H52   H     H_    0.504736 0.300500 0.998352 0.226086
O26   O     O_3   0.887988 0.300461 0.133312 -0.559530
C84   C     C_3   0.091089 0.305205 0.138639 0.104947
H53   H     H_    0.154609 0.271949 0.104384 0.148250
H54   H     H_    0.148764 0.294767 0.175530 0.095583
C85   C     C_3   0.157657 0.368032 0.136214 -0.337297
H55   H     H_    0.089225 0.380121 0.101631 0.212471
H56   H     H_    0.112954 0.401202 0.173035 0.190281
C86   C     C_3   0.375928 0.371757 0.130761 -0.816803
H57   H     H_    0.448798 0.353355 0.161192 0.233098
H58   H     H_    0.421374 0.419165 0.136108 0.239575
H59   H     H_    0.421034 0.346418 0.090473 0.231111
O27   O     O_3   0.785111 0.433126 0.318060 -0.574439
C87   C     C_3   0.632388 0.473389 0.317615 0.079733
H60   H     H_    0.692318 0.519514 0.331076 0.139995
H61   H     H_    0.514582 0.469928 0.345975 0.104808
C88   C     C_3   0.549233 0.465204 0.261431 -0.348192
H62   H     H_    0.667315 0.467293 0.232879 0.207632
H63   H     H_    0.476543 0.420847 0.248972 0.198892
C89   C     C_3   0.402381 0.513386 0.259686 -0.786035
H64   H     H_    0.283407 0.512631 0.288302 0.241972
H65   H     H_    0.340591 0.505109 0.219001 0.233948
H66   H     H_    0.473065 0.558175 0.269578 0.236812
H67   H     H_    0.537685 0.753118 0.828346 0.134515
O28   O     O_3   0.548968 0.293719 0.416490 -0.589846
C90   C     C_3   0.714791 0.268531 0.433587 0.063169
H68   H     H_    0.753563 0.297067 0.473476 0.122672
H69   H     H_    0.842516 0.266320 0.406837 0.106750
C91   C     C_3   0.669376 0.205361 0.439535 -0.299974
H70   H     H_    0.534213 0.205395 0.462533 0.192054
H71   H     H_    0.649196 0.174466 0.399642 0.192725
C92   C     C_3   0.831861 0.181671 0.467834 -0.855853
H72   H     H_    0.967846 0.179744 0.444786 0.232384
H73   H     H_    0.794900 0.135793 0.471162 0.237629
H74   H     H_    0.852726 0.210824 0.508631 0.225705
H75   H     H_    0.388033 0.204208 0.355285 0.160241
O29   O     O_3   0.329238 0.115186 0.272455 -0.579959
C93   C     C_3   0.128868 0.125111 0.273644 0.067697
H76   H     H_    0.080475 0.132284 0.234741 0.128823
H77   H     H_    0.088304 0.164638 0.306306 0.114207
C94   C     C_3   0.026123 0.070045 0.283494 -0.312717
H78   H     H_    0.060824 0.030194 0.250824 0.196095
H79   H     H_    0.077324 0.062162 0.321778 0.207548
C95   C     C_3   0.808694 0.078134 0.286245 -0.807600
H80   H     H_    0.770922 0.120896 0.314826 0.236544
H81   H     H_    0.741242 0.040941 0.300096 0.230639
H82   H     H_    0.751414 0.077768 0.246208 0.241987
O30   O     O_3   0.435418 0.601608 0.665270 -0.554414
C96   C     C_3   0.368835 0.547961 0.677066 0.115722
H83   H     H_    0.445774 0.510388 0.650228 0.161642
H84   H     H_    0.211895 0.538732 0.669562 0.082274
C97   C     C_3   0.416320 0.547787 0.734671 -0.376596
H85   H     H_    0.571641 0.558424 0.742466 0.205596
H86   H     H_    0.329851 0.582409 0.762338 0.193868
C98   C     C_3   0.371567 0.486911 0.745410 -0.754934
H87   H     H_    0.217407 0.474829 0.737224 0.232717
H88   H     H_    0.402227 0.488602 0.787802 0.233999
H89   H     H_    0.462790 0.451894 0.719910 0.240152
O31   O     O_3   0.851251 0.673624 0.597794 -0.524341
C99   C     C_3   0.921842 0.688367 0.550952 0.159977
H90   H     H_    0.794417 0.689970 0.525533 0.139175
H91   H     H_    0.014500 0.652844 0.527206 0.085877
C100  C     C_3   0.029514 0.748740 0.560694 -0.413166
H92   H     H_    0.953058 0.783636 0.590701 0.204666
H93   H     H_    0.176085 0.743395 0.575544 0.189606
C101  C     C_3   0.050252 0.769020 0.509144 -0.806726
H94   H     H_    0.129244 0.734985 0.478767 0.239914
H95   H     H_    0.132071 0.811917 0.517043 0.232360
H96   H     H_    0.906251 0.775991 0.493270 0.231450
O32   O     O_3   0.653592 0.751670 0.662057 -0.535619
C102  C     C_3   0.602888 0.804392 0.646685 0.097611
H97   H     H_    0.599322 0.793001 0.602407 0.146861
H98   H     H_    0.707852 0.842287 0.659212 0.081534
C103  C     C_3   0.401443 0.824464 0.667398 -0.301981
H99   H     H_    0.300352 0.786116 0.655932 0.199746
H100  H     H_    0.400936 0.839655 0.711500 0.190139
C104  C     C_3   0.329851 0.875207 0.644625 -0.865642
H101  H     H_    0.426907 0.914795 0.656923 0.238698
H102  H     H_    0.182508 0.887911 0.659785 0.232588
H103  H     H_    0.324546 0.860823 0.600433 0.238138
H104  H     H_    0.672257 0.832133 0.754776 0.136694

loop_
_geom_bond_atom_site_label_1
_geom_bond_atom_site_label_2
_ccdc_geom_bond_type
C9    C14   A    
C103  H100  S    
C80   H42   S    
C10   C17   A    
C70   H15   S    
C46   C47   A    
C83   H50   S    
C33   C34   A    
C50   C65   S    
C43   C48   A    
C7    C8    A    
C4    C19   S    
C1    O6    A    
C73   C74   S    
C72   H23   S    
C52   C55   A    
C74   H29   S    
C96   H84   S    
C77   H34   S    
C87   H60   S    
C97   C98   S    
C32   C33   A    
C31   C32   A    
C92   H73   S    
C14   C15   A    
O29   C93   S    
C101  H94   S    
C88   C89   S    
C43   O24   S    
C39   C40   A    
C16   C17   A    
C21   C22   A    
O21   C69   S    
C57   C62   A    
C95   H81   S    
O5    C3    A    
C23   C24   A    
C75   C76   S    
C35   O22   S    
C45   C66   S    
V2    O10   S    
C1    C40   S    
O15   V3    S    
C93   C94   S    
C35   C36   A    
C88   H63   S    
C6    C7    A    
C46   H8    S    
C78   C79   S    
C90   H69   S    
C21   C26   A    
C84   H53   S    
C22   H12   S    
O17   V3    S    
C3    C31   S    
N3    N4    A    
O13   C68   A    
O8    V2    S    
C49   C54   A    
C97   H85   S    
C71   H18   S    
C91   H70   S    
C85   H56   S    
O12   C65   A    
C30   C31   A    
C78   H38   S    
C8    C11   A    
C44   H7    S    
O1    V2    S    
N1    C28   A    
C79   H41   S    
C86   H59   S    
C45   C46   A    
C43   C44   A    
C25   C26   A    
N7    N8    A    
O27   C87   S    
C38   C39   A    
C80   H43   S    
O26   C84   S    
C9    C10   A    
C82   H49   S    
O19   V4    S    
C76   C77   S    
C90   H68   S    
C100  H93   S    
C5    H11   S    
O7    V1    S    
C96   H83   S    
C77   H35   S    
C86   H58   S    
C52   C53   A    
C38   H37   S    
C69   C70   S    
C92   H74   S    
C20   O31   S    
C102  C103  S    
C41   C48   S    
C104  H102  S    
N5    N6    A    
N8    C42   A    
O13   V3    S    
C17   H104  S    
C81   C82   S    
C55   C56   A    
C79   C80   S    
C93   H76   S    
O11   V4    S    
C95   H82   S    
C62   C63   A    
O4    C2    A    
C70   H16   S    
C49   C50   A    
C51   C52   A    
C87   C88   S    
C74   H28   S    
C24   O21   S    
C37   C38   A    
C56   C57   A    
C29   H20   S    
C54   C61   A    
C12   H2    S    
C89   H64   S    
C62   O27   S    
C39   H6    S    
C100  C101  S    
C90   C91   S    
O2    C1    A    
C47   H9    S    
C89   H65   S    
C22   C23   A    
O32   C102  S    
C33   H22   S    
C56   H10   S    
C102  H98   S    
N4    C28   A    
C94   C95   S    
C18   C19   A    
O19   C68   A    
C85   C86   S    
C29   C34   A    
C8    C9    A    
C97   H86   S    
C5    C6    A    
C101  H96   S    
C30   H5    S    
C12   C13   A    
C47   C48   A    
C84   C85   S    
C51   O25   S    
C79   H40   S    
O3    C4    A    
C32   H21   S    
C49   H45   S    
C61   O29   S    
O16   V4    S    
C37   C42   S    
C25   H4    S    
O14   C66   A    
C94   H79   S    
C53   C54   A    
C80   H44   S    
C98   H88   S    
O9    V2    S    
N1    N2    A    
C7    H1    S    
C82   H48   S    
C83   H52   S    
C35   C40   A    
C70   C71   S    
C64   O28   S    
C16   O32   S    
C55   O26   S    
O2    V1    S    
C72   C73   S    
C104  H103  S    
O30   C96   S    
C77   H36   S    
C104  H101  S    
C57   C58   A    
O25   C81   S    
C83   H51   S    
C13   C18   A    
O12   V3    S    
O18   V4    S    
C59   C64   A    
C102  H97   S    
C15   C20   A    
O1    C2    A    
C23   C28   S    
C85   H55   S    
C19   C20   A    
N2    C27   A    
C98   H87   S    
C82   C83   S    
C103  H99   S    
O28   C90   S    
C73   H26   S    
C73   H25   S    
C72   H24   S    
O5    V1    S    
C27   N3    A    
C69   H14   S    
C75   H30   S    
C71   H19   S    
C69   H13   S    
C74   H27   S    
O6    V2    S    
C98   H89   S    
O18   C67   A    
N5    C42   A    
O15   C67   A    
C5    C10   A    
O24   C78   S    
O17   V4    S    
N6    C41   A    
C101  H95   S    
C13   C14   A    
C89   H66   S    
O4    V1    S    
C41   N7    A    
O3    V1    S    
C65   O16   A    
V4    O20   S    
V3    O20   S    
C75   H31   S    
C36   C37   A    
C60   H75   S    
C6    C67   S    
C91   C92   S    
C2    C63   S    
C63   C64   A    
C93   H77   S    
C36   O23   S    
O14   V3    S    
C99   C100  S    
C76   H33   S    
C78   H39   S    
C95   H80   S    
O7    V2    S    
O31   C99   S    
C84   H54   S    
C81   H46   S    
C87   H61   S    
O23   C75   S    
C99   H91   S    
C11   C12   A    
C50   C51   A    
C24   C25   A    
O11   C66   A    
C53   C58   A    
C44   C45   A    
C59   C60   A    
C27   C34   S    
C58   C59   A    
C91   H71   S    
C29   C30   A    
C100  H92   S    
C103  C104  S    
C11   H67   S    
C99   H90   S    
C76   H32   S    
C71   H17   S    
C88   H62   S    
C81   H47   S    
V1    O10   S    
C21   H3    S    
C92   H72   S    
C60   C61   A    
O9    C4    A    
C26   C68   S    
C96   C97   S    
C86   H57   S    
O22   C72   S    
O8    C3    A    
C94   H78   S    
C18   O30   S    
C15   C16   A    
