data_mof_unit_67677.cif
_audit_creation_date              2013-03-05T16:48:55-0500
_audit_creation_method            fapswitch 2.2
_symmetry_space_group_name_H-M    P1
_symmetry_Int_Tables_number       1
_space_group_crystal_system       triclinic
_cell_length_a                    11.146346
_cell_length_b                    11.268068
_cell_length_c                    13.040861
_cell_angle_alpha                 90.821042
_cell_angle_beta                  85.921818
_cell_angle_gamma                 88.01543
_cell_volume                      1632.54436416

loop_
_atom_site_label
_atom_site_type_symbol
_atom_site_description
_atom_site_fract_x
_atom_site_fract_y
_atom_site_fract_z
_atom_type_partial_charge
O1    O     O_R   0.313000 0.493330 0.412070 -0.509893
O2    O     O_R   0.687000 0.506670 0.587930 -0.563821
O3    O     O_R   0.326280 0.506660 0.587930 -0.563572
O4    O     O_R   0.673720 0.493340 0.412070 -0.611154
C1    C     C_R   0.262618 0.499461 0.506547 0.890541
C2    C     C_R   0.738919 0.499147 0.495971 0.876442
O5    O     O_R   0.493370 0.312980 0.412070 -0.571908
O6    O     O_R   0.506630 0.687020 0.587930 -0.550310
O7    O     O_R   0.506650 0.326310 0.587930 -0.555901
O8    O     O_R   0.493350 0.673690 0.412070 -0.588084
C3    C     C_R   0.502385 0.262315 0.501358 0.827233
C4    C     C_R   0.500665 0.737446 0.497743 0.925758
Cu1   Cu    Cu3+1 0.492140 0.492110 0.395880 1.046181
Cu2   Cu    Cu3+1 0.507860 0.507890 0.604120 1.073084
C5    C     C_R   0.587047 0.210005 0.828326 0.195218
C6    C     C_R   0.390620 0.806849 0.169306 0.131339
C7    C     C_R   0.590176 0.162364 0.729238 0.310596
C8    C     C_R   0.402061 0.843769 0.270948 0.331907
C9    C     C_R   0.485315 0.119852 0.692835 -0.125587
C10   C     C_R   0.513273 0.881010 0.300322 -0.086075
C11   C     C_R   0.378066 0.118780 0.756153 0.195594
C12   C     C_R   0.612637 0.886478 0.226642 0.095880
C13   C     C_R   0.375556 0.160829 0.859121 0.098447
C14   C     C_R   0.590797 0.878555 0.120501 0.132847
C15   C     C_R   0.481733 0.207464 0.894734 0.219082
C16   C     C_R   0.480664 0.832442 0.092488 0.210069
C17   C     C_R   0.495665 0.936230 0.589658 0.446765
C18   C     C_R   0.522940 0.062523 0.406236 0.409986
C19   C     C_R   0.503186 0.871556 0.495489 -0.175694
C20   C     C_R   0.507517 0.127478 0.500803 -0.213672
C21   C     C_R   0.516066 0.937189 0.403348 0.034534
C22   C     C_R   0.494181 0.061450 0.591644 0.000607
H1    H     H_    0.016460 0.692972 0.973772 0.244946
H2    H     H_    0.816184 0.298246 0.072287 0.284191
C23   C     C_R   0.052840 0.544093 0.872502 0.428766
C24   C     C_R   0.823698 0.434701 0.187524 0.471160
C25   C     C_R   0.084214 0.506251 0.768953 0.309058
C26   C     C_R   0.884598 0.467030 0.272392 0.306198
C27   C     C_R   0.091582 0.591997 0.690604 -0.106724
C28   C     C_R   0.916461 0.377081 0.338409 -0.105562
C29   C     C_R   0.088114 0.714255 0.716302 0.260137
C30   C     C_R   0.928955 0.257632 0.302910 0.242427
C31   C     C_R   0.064378 0.751119 0.820401 0.148609
C32   C     C_R   0.916494 0.236543 0.197145 0.147923
C33   C     C_R   0.044281 0.665255 0.895514 -0.196035
C34   C     C_R   0.849557 0.321163 0.144866 -0.393250
C35   C     C_R   0.927468 0.565347 0.574429 0.420038
C36   C     C_R   0.078327 0.408645 0.449139 0.395716
C37   C     C_R   0.875857 0.496958 0.497640 -0.146607
C38   C     C_R   0.129943 0.484715 0.519231 -0.205943
C39   C     C_R   0.953803 0.417914 0.436705 -0.006253
C40   C     C_R   0.052982 0.554083 0.589010 -0.035024
N1    N     N_1   0.480320 0.480250 0.239400 -0.157620
N2    N     N_1   0.519680 0.519750 0.760600 -0.182470
C41   C     C_2   0.455980 0.506806 0.037947 0.221416
C42   C     C_2   0.544501 0.525610 0.959743 0.212871
C43   C     C_1   0.525254 0.522653 0.849537 0.313663
C44   C     C_1   0.474758 0.490630 0.149888 0.298892
O9    O     O_3   0.476032 0.267832 0.987635 -0.573717
C45   C     C_3   0.521706 0.195567 0.063818 -0.081454
H3    H     H_    0.618999 0.209214 0.067481 0.198476
H4    H     H_    0.502772 0.100029 0.053933 0.147652
H5    H     H_    0.476951 0.224709 0.138989 0.208666
O10   O     O_3   0.467068 0.797003 0.992419 -0.538726
C46   C     C_3   0.405562 0.888198 0.942777 -0.037695
H6    H     H_    0.469760 0.955371 0.915623 0.119263
H7    H     H_    0.330613 0.932221 0.991803 0.205936
H8    H     H_    0.366036 0.848931 0.875130 0.237831
N3    N     N_R   0.103155 0.798476 0.635338 0.205544
O11   O     O_R   0.200749 0.791664 0.574309 -0.325127
O12   O     O_R   0.010419 0.859327 0.606640 -0.273594
N4    N     N_R   0.939691 0.160956 0.373906 0.116721
O13   O     O_R   0.917572 0.180486 0.472114 -0.404524
O14   O     O_R   0.943933 0.051166 0.341376 -0.276637
N5    N     N_R   0.048537 0.873954 0.851450 0.213469
O15   O     O_R   0.067849 0.905648 0.945014 -0.210003
O16   O     O_R   0.996497 0.950469 0.793909 -0.272311
N6    N     N_R   0.973904 0.135614 0.142490 0.220056
O17   O     O_R   0.948026 0.111953 0.048934 -0.205411
O18   O     O_R   0.073940 0.090264 0.172938 -0.284718
O19   O     O_3   0.858370 0.657584 0.623482 -0.568031
C47   C     C_3   0.817804 0.628403 0.724993 -0.169216
H9    H     H_    0.845010 0.697109 0.779018 0.190049
H10   H     H_    0.847390 0.539080 0.749871 0.170492
H11   H     H_    0.718814 0.632923 0.732432 0.202139
O20   O     O_3   0.151050 0.340653 0.377928 -0.562559
C48   C     C_3   0.207873 0.245273 0.427008 -0.109694
H12   H     H_    0.144102 0.174889 0.447146 0.215105
H13   H     H_    0.250820 0.272568 0.497275 0.136451
H14   H     H_    0.279881 0.206020 0.372669 0.187160
N7    N     N_R   0.665353 0.550428 0.978280 0.107631
O21   O     O_R   0.746671 0.465456 0.965888 -0.280616
O22   O     O_R   0.700357 0.657526 0.962578 -0.352948
N8    N     N_R   0.333055 0.499612 0.012777 0.147621
O23   O     O_R   0.253979 0.459414 0.080525 -0.321622
O24   O     O_R   0.295673 0.553056 0.932686 -0.387419
N9    N     N_R   0.689604 0.270321 0.856079 0.158106
O25   O     O_R   0.766973 0.214012 0.909226 -0.341364
O26   O     O_R   0.727076 0.353966 0.795534 -0.372732
N10   N     N_R   0.290698 0.736961 0.147051 0.153974
O27   O     O_R   0.228616 0.757898 0.068234 -0.303968
O28   O     O_R   0.258310 0.653975 0.210033 -0.351855
O29   O     O_3   0.691778 0.173150 0.662413 -0.551667
C49   C     C_3   0.777659 0.081912 0.679302 -0.061221
H15   H     H_    0.764553 0.005064 0.627738 0.171730
H16   H     H_    0.777262 0.052961 0.760577 0.186679
H17   H     H_    0.868519 0.114864 0.658864 0.235425
O30   O     O_3   0.307618 0.834134 0.345167 -0.546390
C50   C     C_3   0.217685 0.921535 0.328914 -0.064084
H18   H     H_    0.162985 0.894298 0.265303 0.218943
H19   H     H_    0.255682 0.010029 0.313210 0.128524
H20   H     H_    0.156530 0.930907 0.399654 0.238175
N11   N     N_R   0.274591 0.068612 0.716275 0.212395
O31   O     O_R   0.225406 0.117792 0.639340 -0.377666
O32   O     O_R   0.247366 0.961281 0.741030 -0.266641
N12   N     N_R   0.734214 0.890156 0.260065 0.142397
O33   O     O_R   0.753263 0.881635 0.357039 -0.331853
O34   O     O_R   0.827464 0.878903 0.194340 -0.272421
N13   N     N_R   0.268095 0.153178 0.927717 0.126362
O35   O     O_R   0.270809 0.171679 0.026177 -0.313161
O36   O     O_R   0.166880 0.122326 0.893517 -0.274226
N14   N     N_R   0.676996 0.921687 0.043211 0.193820
O37   O     O_R   0.681759 0.883373 0.948627 -0.319336
O38   O     O_R   0.734983 0.016337 0.062489 -0.306501
O39   O     O_3   0.476299 0.877700 0.681819 -0.550045
C51   C     C_3   0.587114 0.854526 0.724812 -0.240978
H21   H     H_    0.612140 0.931979 0.770033 0.158571
H22   H     H_    0.661320 0.827661 0.666503 0.174607
H23   H     H_    0.575271 0.780680 0.779322 0.229448
O40   O     O_3   0.534177 0.121028 0.313363 -0.610044
C52   C     C_3   0.650988 0.165753 0.297480 -0.198720
H24   H     H_    0.705816 0.109593 0.241059 0.225070
H25   H     H_    0.699918 0.175142 0.368534 0.182115
H26   H     H_    0.643324 0.254998 0.263448 0.169647
O41   O     O_3   0.007373 0.471633 0.950415 -0.589724
C53   C     C_3   0.072693 0.363897 0.958381 0.080038
H27   H     H_    0.165603 0.363963 0.921567 0.218594
H28   H     H_    0.021081 0.290861 0.928261 0.206035
H29   H     H_    0.079210 0.345202 0.040897 0.205534
O42   O     O_3   0.723042 0.496262 0.157802 -0.596855
C54   C     C_3   0.714526 0.617568 0.185795 -0.018081
H30   H     H_    0.793544 0.664657 0.152525 0.227735
H31   H     H_    0.695834 0.631968 0.269553 0.200568
H32   H     H_    0.634655 0.656685 0.152949 0.114934
O43   O     O_3   0.113862 0.388282 0.743302 -0.583202
C55   C     C_3   0.009675 0.325225 0.727439 -0.193076
H33   H     H_    0.979553 0.338970 0.649419 0.165306
H34   H     H_    0.935914 0.348263 0.785724 0.221432
H35   H     H_    0.031252 0.229108 0.734526 0.254766
O44   O     O_3   0.895507 0.584805 0.300893 -0.629503
C56   C     C_3   0.006874 0.622412 0.259018 -0.075454
H36   H     H_    0.014805 0.613303 0.173591 0.192447
H37   H     H_    0.081196 0.572045 0.292927 0.214697
H38   H     H_    0.014768 0.717648 0.279158 0.231491

loop_
_geom_bond_atom_site_label_1
_geom_bond_atom_site_label_2
_geom_bond_distance
_ccdc_geom_bond_type
C20   C22   1.409574 A    
C41   C42   1.391432 D    
C51   H21   1.101261 S    
C36   O20   1.391385 S    
C4    C19   1.513062 S    
C17   C19   1.414811 A    
N4    O14   1.300272 A    
H1    C33   1.083685 S    
C48   H12   1.105293 S    
C52   H26   1.108040 S    
C49   H16   1.113182 S    
N9    O25   1.298603 A    
O41   C53   1.402780 S    
C27   C29   1.411682 A    
C52   H25   1.113685 S    
O30   C50   1.409788 S    
O5    C3    1.312838 A    
C45   H5    1.107948 S    
O1    C1    1.317036 A    
C9    C11   1.404251 A    
C14   C16   1.418782 A    
N11   O31   1.298996 A    
N3    O11   1.300754 A    
C54   H31   1.105897 S    
C13   N13   1.448911 S    
N6    O18   1.300548 A    
C5    C15   1.409692 A    
C42   C43   1.468188 S    
C45   H4    1.111624 S    
C56   H38   1.109087 S    
O4    Cu1   2.050315 S    
N3    O12   1.300755 A    
C16   O10   1.379423 S    
C48   H14   1.107942 S    
C36   C39   1.409312 A    
C3    C20   1.518343 S    
C12   N12   1.454472 S    
C37   C39   1.416875 A    
C41   N8    1.436154 S    
C38   C40   1.413180 A    
C56   H36   1.114237 S    
C24   C34   1.400200 A    
H2    C34   1.072668 S    
C55   H34   1.100796 S    
N4    O13   1.301040 A    
C36   C38   1.409866 A    
C27   C40   1.483415 S    
O9    C45   1.405587 S    
Cu1   Cu2   2.737327 S    
C31   N5    1.437963 S    
C29   C31   1.417955 A    
O2    C2    1.294298 A    
C30   C32   1.413607 A    
C5    N9    1.416073 S    
C53   H29   1.106413 S    
C9    C22   1.461604 S    
C14   N14   1.443574 S    
C49   H15   1.108782 S    
N9    O26   1.299180 A    
C32   C34   1.404408 A    
O43   C55   1.408318 S    
Cu1   N1    2.056951 S    
N13   O36   1.298787 A    
C28   C39   1.449264 S    
C6    C16   1.406897 A    
O42   C54   1.407990 S    
C53   H28   1.103723 S    
C54   H32   1.096728 S    
C23   O41   1.391051 S    
N7    O21   1.295774 A    
O7    Cu2   2.054517 S    
O20   C48   1.412845 S    
C6    N10   1.430052 S    
C35   O19   1.392132 S    
O6    Cu2   2.032144 S    
C51   H23   1.107413 S    
C46   H7    1.113093 S    
O19   C47   1.415151 S    
C45   H3    1.104847 S    
N5    O15   1.301089 A    
N7    O22   1.295698 A    
C55   H35   1.107869 S    
O7    C3    1.335483 A    
C28   C30   1.416094 A    
O6    C4    1.318403 A    
C46   H8    1.107108 S    
N10   O28   1.297121 A    
C30   N4    1.447005 S    
C6    C8    1.399357 A    
N13   O35   1.300514 A    
N8    O24   1.299896 A    
C31   C33   1.398831 A    
C24   O42   1.380519 S    
O3    Cu2   2.050317 S    
O8    C4    1.328535 A    
C11   N11   1.429095 S    
Cu2   N2    2.056951 S    
C10   C12   1.417303 A    
C47   H9    1.103947 S    
C47   H10   1.108431 S    
C11   C13   1.415579 A    
O39   C51   1.410170 S    
C10   C21   1.479783 S    
C12   C14   1.424439 A    
C1    C38   1.491623 S    
C50   H20   1.108886 S    
O4    C2    1.357901 A    
O1    Cu1   1.992450 S    
N14   O38   1.296769 A    
C52   H24   1.100560 S    
C23   C33   1.392220 A    
C29   N3    1.434604 S    
C55   H33   1.105180 S    
C5    C7    1.389808 A    
C51   H22   1.113806 S    
C23   C25   1.426049 A    
C17   C22   1.410356 A    
N6    O17   1.299555 A    
C18   C21   1.417101 A    
C53   H27   1.110094 S    
O3    C1    1.321029 A    
O8    Cu1   2.054517 S    
N1    C44   1.180618 T    
C35   C40   1.426793 A    
C35   C37   1.420593 A    
C47   H11   1.100084 S    
O10   C46   1.406570 S    
C50   H19   1.112833 S    
O40   C52   1.415002 S    
C7    O29   1.388850 S    
C18   C20   1.421745 A    
C19   C21   1.421157 A    
C54   H30   1.109113 S    
C24   C26   1.389542 A    
C26   C28   1.392174 A    
C17   O39   1.386253 S    
C18   O40   1.387144 S    
C41   C44   1.502165 S    
C32   N6    1.439578 S    
N10   O27   1.299144 A    
C7    C9    1.390023 A    
N12   O34   1.300812 A    
N12   O33   1.301474 A    
C8    C10   1.399437 A    
C56   H37   1.109356 S    
C2    C37   1.527420 S    
N8    O23   1.300377 A    
O2    Cu2   1.992449 S    
C8    O30   1.386629 S    
O5    Cu1   2.032144 S    
C13   C15   1.416587 A    
C25   C27   1.416355 A    
C46   H6    1.104306 S    
N5    O16   1.299496 A    
O29   C49   1.410709 S    
C48   H13   1.108123 S    
O44   C56   1.401905 S    
C15   O9    1.377295 S    
C25   O43   1.388962 S    
N14   O37   1.297872 A    
C50   H18   1.109811 S    
C26   O44   1.384765 S    
C49   H17   1.106837 S    
C42   N7    1.421866 S    
N11   O32   1.296788 A    
N2    C43   1.165940 T    
