data_mof_unit_15680.cif
_audit_creation_date              2012-10-26T20:53:57-0400
_audit_creation_method            fapswitch 2.2
_symmetry_space_group_name_H-M    P1
_symmetry_Int_Tables_number       1
_space_group_crystal_system       triclinic
_cell_length_a                    17.839797
_cell_length_b                    16.89353
_cell_length_c                    11.083491
_cell_angle_alpha                 90.056089
_cell_angle_beta                  99.554784
_cell_angle_gamma                 90.666463
_cell_volume                      3293.73470207

loop_
_atom_site_label
_atom_site_type_symbol
_atom_type_description
_atom_site_fract_x
_atom_site_fract_y
_atom_site_fract_z
_atom_type_partial_charge
C1    C     C_R   0.355878 0.500306 0.505190 0.604070
C2    C     C_R   0.446229 0.253371 0.421009 0.280549
C3    C     C_R   0.467620 0.748579 0.401594 0.289539
C4    C     C_R   0.555537 0.257640 0.581360 0.289497
C5    C     C_R   0.501278 0.875648 0.506058 -0.095815
C6    C     C_R   0.501644 0.126979 0.505022 -0.081324
C7    C     C_1   0.501515 0.964582 0.507766 0.250105
C8    C     C_1   0.501800 0.037921 0.507820 0.254439
C9    C     C_R   0.492944 0.499381 0.257609 0.610987
C10   C     C_R   0.501451 0.498656 0.740994 0.617213
C11   C     C_3   0.461604 0.562255 0.018985 0.227796
C12   C     C_R   0.643167 0.500615 0.489432 0.612776
C13   C     C_3   0.520496 0.421777 0.971302 0.209772
C14   C     C_3   0.538771 0.551199 0.975691 0.216232
C15   C     C_3   0.446039 0.433419 0.021373 0.203603
C16   C     C_3   0.424531 0.499149 0.927148 0.165818
C17   C     C_3   0.559606 0.482086 0.065752 0.160214
C18   C     C_3   0.500634 0.491314 0.877190 -0.036748
C19   C     C_3   0.484472 0.496022 0.117741 -0.036457
C20   C     C_R   0.835507 0.572172 0.413519 0.189648
C21   C     C_R   0.147785 0.440420 0.447616 0.201221
C22   C     C_R   0.155942 0.574497 0.531558 0.180601
C23   C     C_1   0.961868 0.509744 0.457092 0.215810
C24   C     C_R   0.846150 0.435618 0.485007 0.195068
C25   C     C_R   0.758696 0.573031 0.432027 0.190102
C26   C     C_R   0.226845 0.434643 0.479868 0.205408
C27   C     C_R   0.236046 0.574027 0.535876 0.189964
C28   C     C_R   0.766704 0.432075 0.475859 0.216991
C29   C     C_R   0.724033 0.502383 0.467444 -0.048843
C30   C     C_R   0.272145 0.502946 0.508201 -0.050294
C31   C     C_R   0.880587 0.505998 0.452163 -0.087415
C32   C     C_R   0.111815 0.509620 0.478007 -0.086291
C33   C     C_3   0.292738 0.505030 0.919179 -0.024672
C34   C     C_1   0.030016 0.510937 0.464714 0.214247
C35   C     C_3   0.218076 0.518580 0.834532 -0.346106
C36   C     C_3   0.687585 0.458215 0.057531 -0.027884
C37   C     C_3   0.768227 0.469895 0.126677 -0.359717
C38   C     C_3   0.395313 0.667075 0.907203 0.047266
C39   C     C_3   0.395808 0.756480 0.919200 -0.242075
C40   C     C_3   0.560553 0.300754 0.059800 -0.003075
C41   C     C_3   0.563890 0.212503 0.031975 -0.300042
C42   C     C_3   0.626830 0.641059 0.083848 0.054208
C43   C     C_3   0.639166 0.729457 0.074103 -0.229272
C44   C     C_3   0.374338 0.322343 0.942741 0.037958
C45   C     C_R   0.523543 0.831196 0.611908 0.103549
C46   C     C_3   0.292783 0.291525 0.937401 -0.331760
C47   C     C_3   0.731594 0.697838 0.490059 0.046381
C48   C     C_3   0.691110 0.773780 0.445730 -0.304107
C49   C     C_3   0.262685 0.331239 0.604670 0.018852
C50   C     C_3   0.297813 0.249389 0.612099 -0.302226
C51   C     C_3   0.275121 0.700405 0.500978 0.061425
C52   C     C_3   0.317634 0.772414 0.561386 -0.346427
C53   C     C_3   0.718124 0.327180 0.358584 0.011382
C54   C     C_3   0.678933 0.246794 0.359522 -0.315987
C55   C     C_R   0.445491 0.167275 0.424004 0.128874
C56   C     C_R   0.482765 0.833237 0.397209 0.165063
C57   C     C_R   0.558593 0.171572 0.580641 0.125519
C58   C     C_R   0.535595 0.746242 0.601075 0.286765
Cu1   Cu    Cu3+1 0.500000 0.580420 0.500000 1.162688
Cu2   Cu    Cu3+1 0.500000 0.419580 0.500000 1.155543
H1    H     H_    0.300533 0.552021 0.990231 0.160801
H2    H     H_    0.777306 0.530902 0.162783 0.198726
H3    H     H_    0.335746 0.650202 0.871499 0.179643
H4    H     H_    0.429337 0.649229 0.837247 0.203072
H5    H     H_    0.450216 0.776404 0.972882 0.268466
H6    H     H_    0.388501 0.784248 0.827441 0.096488
H7    H     H_    0.348785 0.775612 0.966214 0.200760
H8    H     H_    0.515879 0.308834 0.117170 0.197441
H9    H     H_    0.614983 0.317754 0.116808 0.134758
H10   H     H_    0.620778 0.197171 0.011481 0.213083
H11   H     H_    0.554305 0.177632 0.113098 0.130111
H12   H     H_    0.286423 0.448772 0.966284 0.187030
H13   H     H_    0.519891 0.195379 0.953053 0.202897
H14   H     H_    0.683305 0.615535 0.114567 0.193789
H15   H     H_    0.592320 0.629654 0.156648 0.201561
H16   H     H_    0.584294 0.757260 0.040302 0.255406
H17   H     H_    0.662111 0.754565 0.165404 0.147025
H18   H     H_    0.679697 0.742253 0.010553 0.212941
H19   H     H_    0.412251 0.270680 0.955561 0.183678
H20   H     H_    0.379987 0.349517 0.853325 0.145874
H21   H     H_    0.274577 0.295348 0.028233 0.243375
H22   H     H_    0.252784 0.326508 0.871409 0.094555
H23   H     H_    0.208420 0.472077 0.762562 0.138950
H24   H     H_    0.288380 0.228582 0.908123 0.143964
H25   H     H_    0.831021 0.746732 0.215017 0.376842
H26   H     H_    0.121898 0.265958 0.250553 0.377180
H27   H     H_    0.143478 0.754207 0.716505 0.378704
H28   H     H_    0.882741 0.240271 0.624956 0.370588
H29   H     H_    0.793270 0.711474 0.513494 0.191668
H30   H     H_    0.712186 0.678428 0.574850 0.195190
H31   H     H_    0.630615 0.760863 0.408698 0.165652
H32   H     H_    0.694371 0.816569 0.522598 0.160997
H33   H     H_    0.718325 0.800967 0.372522 0.186808
H34   H     H_    0.170374 0.516878 0.887374 0.152659
H35   H     H_    0.204752 0.325783 0.629065 0.161642
H36   H     H_    0.298243 0.370486 0.672415 0.121726
H37   H     H_    0.358435 0.253997 0.601791 0.148699
H38   H     H_    0.294568 0.222130 0.701796 0.087286
H39   H     H_    0.266732 0.210289 0.539560 0.216184
H40   H     H_    0.215768 0.717892 0.466206 0.196413
H41   H     H_    0.301000 0.683415 0.421395 0.194692
H42   H     H_    0.375861 0.755613 0.604070 0.139880
H43   H     H_    0.321205 0.819147 0.492095 0.135223
H44   H     H_    0.287648 0.796396 0.633280 0.183789
H45   H     H_    0.219687 0.577330 0.791407 0.237301
H46   H     H_    0.772574 0.318131 0.324481 0.169019
H47   H     H_    0.680743 0.366475 0.295548 0.150417
H48   H     H_    0.619188 0.254432 0.372478 0.134736
H49   H     H_    0.678905 0.216280 0.270795 0.097666
H50   H     H_    0.709244 0.209326 0.433894 0.218081
H51   H     H_    0.431007 0.934238 0.742658 0.327138
H52   H     H_    0.261025 0.120404 0.278330 0.368164
H53   H     H_    0.552551 0.984682 0.201932 0.391551
H54   H     H_    0.749652 0.140227 0.693951 0.369581
H55   H     H_    0.675588 0.611457 0.785062 0.358045
H56   H     H_    0.681024 0.498173 0.977166 0.171356
H57   H     H_    0.316499 0.399675 0.232311 0.364343
H58   H     H_    0.336181 0.615736 0.200507 0.354612
H59   H     H_    0.680301 0.411251 0.779113 0.340304
H60   H     H_    0.683067 0.396925 0.021670 0.189633
H61   H     H_    0.780011 0.428141 0.203808 0.134706
H62   H     H_    0.809573 0.459045 0.064008 0.158157
N1    N     N_R   0.500000 0.701220 0.500000 -0.306705
N2    N     N_R   0.500000 0.298780 0.500000 -0.330025
O1    O     O_R   0.391260 0.567930 0.500000 -0.455510
O2    O     O_3   0.633251 0.472205 0.135836 -0.598722
O3    O     O_3   0.419252 0.632187 0.023646 -0.505409
O4    O     O_3   0.548196 0.345730 0.949708 -0.512431
O5    O     O_3   0.595534 0.608832 0.967709 -0.519569
O6    O     O_3   0.393673 0.374424 0.043964 -0.530655
O7    O     O_2   0.916467 0.707470 0.430404 -0.214807
O8    O     O_2   0.927865 0.620529 0.257726 -0.258976
O9    O     O_3   0.804877 0.701433 0.247505 -0.539569
O10   O     O_2   0.079547 0.299831 0.464390 -0.218766
O11   O     O_2   0.023520 0.385226 0.294551 -0.248874
O12   O     O_R   0.608740 0.432070 0.500000 -0.423996
O13   O     O_3   0.149575 0.315560 0.278519 -0.449990
O14   O     O_2   0.074939 0.706956 0.493301 -0.218167
O15   O     O_2   0.050262 0.623232 0.662867 -0.263663
O16   O     O_3   0.172992 0.708679 0.694376 -0.532921
O17   O     O_2   0.916124 0.306514 0.422339 -0.229775
O18   O     O_2   0.974506 0.373436 0.611915 -0.255851
O19   O     O_3   0.852893 0.289597 0.615109 -0.431079
O20   O     O_3   0.714709 0.638924 0.398598 -0.519494
O21   O     O_3   0.259616 0.361196 0.485077 -0.443077
O22   O     O_3   0.280070 0.637719 0.586338 -0.513826
O23   O     O_R   0.608740 0.567930 0.500000 -0.444073
O24   O     O_3   0.730919 0.359509 0.477659 -0.443678
O25   O     O_2   0.542349 0.843838 0.867236 -0.245960
O26   O     O_2   0.622486 0.923640 0.758711 -0.117381
O27   O     O_3   0.481009 0.961513 0.749521 -0.492214
O28   O     O_2   0.430740 0.077778 0.223524 -0.196436
O29   O     O_2   0.359960 0.031652 0.380643 -0.306766
O30   O     O_3   0.302294 0.138570 0.234775 -0.404076
O31   O     O_2   0.512953 0.838656 0.162880 -0.277221
O32   O     O_2   0.407538 0.917585 0.208906 -0.141406
O33   O     O_3   0.546463 0.965299 0.284126 -0.522190
O34   O     O_R   0.391260 0.432070 0.500000 -0.437051
O35   O     O_2   0.590662 0.081357 0.779118 -0.165157
O36   O     O_2   0.650986 0.044175 0.605352 -0.286246
O37   O     O_3   0.711759 0.153799 0.746471 -0.400987
O38   O     O_2   0.662484 0.762839 0.764611 -0.278444
O39   O     O_2   0.547857 0.702815 0.819203 -0.254014
O40   O     O_3   0.635481 0.616599 0.712230 -0.511782
O41   O     O_2   0.388788 0.257983 0.189409 -0.247582
O42   O     O_2   0.299982 0.267488 0.332859 -0.215233
O43   O     O_3   0.367113 0.392586 0.283266 -0.462696
O44   O     O_2   0.361449 0.766514 0.203580 -0.264701
O45   O     O_R   0.499980 0.567900 0.316850 -0.426550
O46   O     O_2   0.481101 0.697318 0.198274 -0.238460
O47   O     O_3   0.369920 0.623096 0.280226 -0.535461
O48   O     O_2   0.625456 0.266094 0.812584 -0.227687
O49   O     O_2   0.703225 0.286063 0.656775 -0.188255
O50   O     O_3   0.632587 0.402474 0.720547 -0.480472
O51   O     O_R   0.500020 0.432100 0.683150 -0.457570
O52   O     O_R   0.500020 0.567900 0.683150 -0.434740
O53   O     O_R   0.499980 0.432100 0.316850 -0.468471
O54   O     O_3   0.352844 0.503544 0.849683 -0.585630
S1    S     S_3+6 0.874010 0.651801 0.336785 0.029249
S2    S     S_3+6 0.375593 0.295050 0.306690 0.109681
S3    S     S_3+6 0.417363 0.708424 0.267916 0.064177
S4    S     S_3+6 0.628309 0.305037 0.692296 0.128100
S5    S     S_3+6 0.096481 0.358935 0.371079 0.085016
S6    S     S_3+6 0.110915 0.654601 0.595724 0.020453
S7    S     S_3+6 0.900512 0.350164 0.533482 0.076447
S8    S     S_3+6 0.544331 0.888291 0.751620 0.091810
S9    S     S_3+6 0.383268 0.103766 0.315773 0.088300
S10   S     S_3+6 0.485593 0.887883 0.258379 0.088911
S11   S     S_3+6 0.629190 0.112841 0.678296 0.093497
S12   S     S_3+6 0.597636 0.705996 0.724640 0.053163

loop_
_geom_bond_atom_site_label_1
_geom_bond_atom_site_label_2
_ccdc_geom_bond_type
O27   S8    S    
C21   C26   A    
C52   H43   S    
C58   N1    A    
C12   C29   S    
C39   H5    S    
O35   S11   D    
C5    C56   A    
C9    O45   A    
C54   H48   S    
C14   C17   S    
O33   S10   S    
O11   S5    D    
O10   S5    D    
O50   S4    S    
C38   O3    S    
C7    C8    T    
C53   C54   S    
H57   O43   S    
C43   H18   S    
C15   C19   S    
C11   C19   S    
C50   H39   S    
O16   S6    S    
C22   C32   A    
C13   C18   S    
C12   O23   A    
C28   C29   A    
Cu2   O34   S    
O36   S11   D    
C2    C55   A    
H59   O50   S    
C38   C39   S    
C11   C14   S    
C17   O2    S    
C20   C25   A    
C44   O6    S    
C15   C16   S    
C40   O4    S    
C51   H40   S    
O44   S3    D    
C4    N2    A    
C11   C16   S    
H55   O40   S    
Cu2   N2    S    
C14   C18   S    
C22   S6    S    
H26   O13   S    
C17   C19   S    
C46   H22   S    
C13   O4    S    
C53   H46   S    
C9    C19   S    
C52   H44   S    
C56   S10   S    
C16   O54   S    
C48   H31   S    
Cu2   O51   S    
C4    C57   A    
C58   S12   S    
C36   C37   S    
C48   H32   S    
C55   S9    S    
O39   S12   D    
O14   S6    D    
C6    C55   A    
H28   O19   S    
C33   H12   S    
C41   H11   S    
O43   S2    S    
O25   S8    D    
H52   O30   S    
C27   C30   A    
Cu1   N1    S    
C47   H29   S    
C6    C57   A    
C2    S2    S    
O28   S9    D    
O40   S12   S    
C44   C46   S    
C37   H2    S    
C20   S1    S    
C38   H4    S    
O32   S10   D    
C25   C29   A    
C21   C32   A    
C45   C58   A    
C42   H14   S    
C10   O52   A    
C50   H38   S    
C40   H9    S    
C51   C52   S    
C44   H20   S    
O37   S11   S    
Cu1   O52   S    
C48   H33   S    
C5    C7    S    
O7    S1    D    
O9    S1    S    
H54   O37   S    
C6    C8    S    
O29   S9    D    
C51   O22   S    
C23   C31   S    
Cu2   O53   S    
C5    C45   A    
C47   O20   S    
C53   O24   S    
C54   H49   S    
C24   S7    S    
C54   H50   S    
C32   C34   S    
C26   O21   S    
C11   O3    S    
C57   S11   S    
C35   H45   S    
C46   H21   S    
C3    C56   A    
C53   H47   S    
C47   C48   S    
C23   C34   T    
C52   H42   S    
C42   H15   S    
C49   O21   S    
C49   H35   S    
O17   S7    D    
C3    S3    S    
C46   H24   S    
C16   C18   S    
C40   C41   S    
O49   S4    D    
C26   C30   A    
C22   C27   A    
C13   C15   S    
O46   S3    D    
C40   H8    S    
C39   H6    S    
C37   H61   S    
C25   O20   S    
C51   H41   S    
C42   C43   S    
O19   S7    S    
C36   H56   S    
O38   S12   D    
C9    O53   A    
C38   H3    S    
C35   H34   S    
C10   O51   A    
C21   S5    S    
H27   O16   S    
Cu2   O12   S    
C1    O34   A    
C50   H37   S    
C35   H23   S    
C33   O54   S    
C28   O24   S    
C39   H7    S    
O47   S3    S    
C44   H19   S    
C36   O2    S    
C24   C28   A    
C1    O1    A    
H51   O27   S    
O26   S8    D    
O13   S5    S    
C2    N2    A    
C43   H17   S    
O30   S9    S    
C13   C17   S    
O31   S10   D    
H53   O33   S    
C24   C31   A    
Cu1   O1    S    
C15   O6    S    
H58   O47   S    
C10   C18   S    
C27   O22   S    
C3    N1    A    
C1    C30   S    
C33   C35   S    
C42   O5    S    
C49   H36   S    
C45   S8    S    
C47   H30   S    
O8    S1    D    
C41   H13   S    
C37   H62   S    
O18   S7    D    
O48   S4    D    
Cu1   Cu2   S    
O42   S2    D    
C33   H1    S    
C49   C50   S    
C12   O12   A    
O41   S2    D    
C43   H16   S    
C4    S4    S    
Cu1   O45   S    
C14   O5    S    
C36   H60   S    
O15   S6    D    
H25   O9    S    
C41   H10   S    
C20   C31   A    
Cu1   O23   S    
