data_mof_unit_16145.cif
_audit_creation_date              2012-12-10T16:56:30-0500
_audit_creation_method            fapswitch 2.2
_symmetry_space_group_name_H-M    P1
_symmetry_Int_Tables_number       1
_space_group_crystal_system       triclinic
_cell_length_a                    7.76712
_cell_length_b                    8.633168
_cell_length_c                    15.714027
_cell_angle_alpha                 90.818256
_cell_angle_beta                  86.649079
_cell_angle_gamma                 93.317959
_cell_volume                      1050.07414066

loop_
_atom_site_label
_atom_site_type_symbol
_atom_type_description
_atom_site_fract_x
_atom_site_fract_y
_atom_site_fract_z
_atom_type_partial_charge
C1    C     C_R   0.545492 0.793951 0.498521 0.908480
C2    C     C_3   0.429163 0.361851 0.028625 -0.364017
C3    C     C_1   0.510919 0.499197 0.750299 -0.130320
C4    C     C_1   0.488942 0.500858 0.249641 -0.147562
C5    C     C_3   0.341555 0.476160 0.972041 -0.039610
C6    C     C_3   0.657190 0.524500 0.027919 -0.029529
C7    C     C_3   0.509697 0.498356 0.916355 0.126536
C8    C     C_3   0.489315 0.501979 0.083542 0.099186
C9    C     C_1   0.513786 0.498628 0.825420 0.072179
C10   C     C_1   0.485721 0.501518 0.174511 0.017600
C11   C     C_2   0.293891 0.745544 0.057661 0.482155
C12   C     C_R   0.455556 0.205634 0.503206 0.905644
C13   C     C_2   0.709829 0.257700 0.942646 0.386348
C14   C     C_2   0.831048 0.553298 0.062942 0.440609
C15   C     C_2   0.165956 0.446537 0.938729 0.427364
C16   C     C_3   0.875405 0.029940 0.472685 -0.684799
C17   C     C_3   0.348342 0.974826 0.664426 -0.703582
C18   C     C_R   0.503361 0.499999 0.661825 0.883954
C19   C     C_R   0.496623 0.500011 0.338154 0.894828
C20   C     C_2   0.568710 0.955590 0.488962 -0.025187
C21   C     C_2   0.439644 0.044762 0.519452 -0.033480
C22   C     C_3   0.401075 0.614530 0.027908 -0.017972
C23   C     C_3   0.598254 0.386083 0.972080 -0.016646
C24   C     C_3   0.569791 0.638554 0.971245 -0.228691
H1    H     H_    0.627926 0.750737 0.946441 0.177913
H2    H     H_    0.971498 0.092292 0.428520 0.220502
H3    H     H_    0.924173 0.914894 0.485989 0.236033
H4    H     H_    0.863664 0.097883 0.533137 0.249555
H5    H     H_    0.188018 0.043266 0.573153 0.238648
H6    H     H_    0.236652 0.922952 0.703631 0.248805
H7    H     H_    0.384820 0.091410 0.690992 0.232768
H8    H     H_    0.457969 0.898511 0.668160 0.230323
H9    H     H_    0.370857 0.249625 0.053272 0.165627
H10   H     H_    0.013615 0.383834 0.436043 0.194041
H11   H     H_    0.986580 0.616873 0.563654 0.200770
H12   H     H_    0.241586 0.818777 0.011169 0.098277
H13   H     H_    0.764648 0.186523 0.989304 0.051516
H14   H     H_    0.887272 0.462938 0.097648 0.029033
H15   H     H_    0.088733 0.342391 0.956974 0.053805
H16   H     H_    0.720244 0.953731 0.376080 0.228874
N1    N     N_2   0.950320 0.457950 0.477300 -0.169963
N2    N     N_2   0.049680 0.542050 0.522700 -0.164725
N3    N     N_2   0.710792 0.012752 0.433581 -0.293537
N4    N     N_2   0.301341 0.987932 0.577141 -0.301683
O1    O     O_R   0.389250 0.738570 0.505570 -0.590154
O2    O     O_2   0.739741 0.232570 0.866783 -0.550920
O3    O     O_2   0.908984 0.679044 0.053333 -0.544491
O4    O     O_2   0.109165 0.539216 0.891213 -0.544779
O5    O     O_R   0.610750 0.261430 0.494430 -0.585922
O6    O     O_R   0.678390 0.711630 0.491020 -0.635107
O7    O     O_R   0.321610 0.288370 0.508980 -0.646245
O8    O     O_R   0.355460 0.513480 0.630490 -0.595514
O9    O     O_R   0.644540 0.486520 0.369510 -0.609803
O10   O     O_R   0.644600 0.486540 0.615950 -0.614405
O11   O     O_R   0.355400 0.513460 0.384050 -0.614218
O12   O     O_2   0.265582 0.771173 0.133591 -0.554156
Zn1   Zn    Zn3+2 0.306940 0.517990 0.509710 0.970775
Zn2   Zn    Zn3+2 0.693060 0.482010 0.490290 0.964869

loop_
_geom_bond_atom_site_label_1
_geom_bond_atom_site_label_2
_ccdc_geom_bond_type
C16   H4    S    
C8    C22   S    
O9    Zn2   S    
C14   O3    D    
C3    C9    T    
C6    C14   S    
C21   N4    S    
N1    N2    D    
C11   C22   S    
C13   H13   S    
C15   H15   S    
C19   O9    A    
C16   H3    S    
O10   Zn2   S    
C12   O5    A    
C17   N4    S    
C18   O8    A    
C11   O12   D    
C20   C21   D    
C17   H6    S    
C16   N3    S    
C1    O1    A    
H10   N1    S    
C15   O4    D    
C7    C23   S    
C6    C23   S    
C2    H9    S    
C6    C24   S    
C11   H12   S    
C17   H7    S    
N1    Zn2   S    
O11   Zn1   S    
H5    N4    S    
C16   H2    S    
C13   O2    D    
O1    Zn1   S    
C22   C24   S    
C20   N3    S    
C5    C15   S    
C2    C5    S    
C14   H14   S    
O8    Zn1   S    
O5    Zn2   S    
C4    C10   T    
C7    C24   S    
O6    Zn2   S    
C7    C9    S    
O7    Zn1   S    
C12   O7    A    
C24   H1    S    
C13   C23   S    
C3    C18   S    
C8    C10   S    
C1    O6    A    
C19   O11   A    
C2    C23   S    
C5    C7    S    
H11   N2    S    
C18   O10   A    
C1    C20   S    
C6    C8    S    
C2    C8    S    
C4    C19   S    
C12   C21   S    
H16   N3    S    
N2    Zn1   S    
C5    C22   S    
C17   H8    S    
