data_mof_unit_26747.cif
_audit_creation_date              2012-12-10T19:45:47-0500
_audit_creation_method            fapswitch 2.2
_symmetry_space_group_name_H-M    P1
_symmetry_Int_Tables_number       1
_space_group_crystal_system       triclinic
_cell_length_a                    10.832528
_cell_length_b                    14.680924
_cell_length_c                    14.708353
_cell_angle_alpha                 65.219252
_cell_angle_beta                  103.437749
_cell_angle_gamma                 102.943751
_cell_volume                      2044.22983959

loop_
_atom_site_label
_atom_site_type_symbol
_atom_type_description
_atom_site_fract_x
_atom_site_fract_y
_atom_site_fract_z
_atom_type_partial_charge
C1    C     C_R   0.478972 0.119683 0.312234 0.792399
C2    C     C_R   0.601051 0.784923 0.973011 -0.204334
C3    C     C_R   0.452468 0.149449 0.128807 -0.207312
C4    C     C_R   0.582499 0.851217 0.871735 -0.206517
C5    C     C_R   0.497444 0.292052 0.179382 -0.251406
C6    C     C_R   0.521472 0.708237 0.821124 -0.256578
C7    C     C_R   0.506563 0.360732 0.079413 0.088548
C8    C     C_R   0.544670 0.639957 0.922195 0.089291
C9    C     C_R   0.483119 0.321082 0.003106 0.166632
C10   C     C_R   0.581454 0.679808 0.998814 0.168175
C11   C     C_R   0.535914 0.467419 0.053153 0.064063
C12   C     C_R   0.522564 0.880360 0.687781 0.791897
C13   C     C_R   0.528787 0.533343 0.949086 0.064094
C14   C     C_R   0.508508 0.490620 0.875558 -0.222629
C15   C     C_R   0.574497 0.510336 0.127367 -0.222953
C16   C     C_R   0.262849 0.998925 0.502628 0.793509
C17   C     C_R   0.737185 0.000890 0.497576 0.794028
C18   C     C_R   0.486797 0.386523 0.902453 -0.231822
C19   C     C_R   0.597985 0.614499 0.100335 -0.233215
C20   C     C_R   0.708442 0.282518 0.672457 -0.328127
C21   C     C_R   0.290732 0.717045 0.328184 -0.325121
C22   C     C_R   0.677234 0.201748 0.641311 0.078282
C23   C     C_R   0.870651 0.000930 0.495898 -0.081259
C24   C     C_R   0.322380 0.798049 0.358976 0.078493
C25   C     C_R   0.520016 0.285850 0.507978 0.028545
C26   C     C_R   0.479948 0.714128 0.492102 0.030303
C27   C     C_R   0.547846 0.371236 0.535299 -0.023657
C28   C     C_R   0.451617 0.628479 0.465182 -0.022376
C29   C     C_R   0.643785 0.367154 0.620205 0.162209
C30   C     C_R   0.355338 0.632387 0.380512 0.162070
C31   C     C_R   0.483343 0.458939 0.483042 0.063374
C32   C     C_R   0.515906 0.540666 0.517609 0.066220
C33   C     C_R   0.611306 0.531692 0.603427 -0.249514
C34   C     C_R   0.129396 0.998195 0.504992 -0.081873
C35   C     C_R   0.387607 0.467749 0.397452 -0.244398
C36   C     C_R   0.673855 0.446872 0.653183 -0.208293
C37   C     C_R   0.324843 0.552457 0.347843 -0.202463
C38   C     C_R   0.357424 0.074136 0.769701 -0.119729
C39   C     C_R   0.648929 0.918627 0.230664 -0.123964
C40   C     C_R   0.265504 0.030177 0.710168 -0.095103
C41   C     C_R   0.736914 0.964331 0.290697 -0.096348
C42   C     C_R   0.187155 0.090572 0.625540 0.122212
C43   C     C_R   0.813487 0.905414 0.377787 0.124380
C44   C     C_R   0.199845 0.194849 0.603080 -0.156238
C45   C     C_R   0.906649 0.952993 0.442305 -0.003144
C46   C     C_R   0.802075 0.800691 0.402904 -0.154029
C47   C     C_R   0.291558 0.238360 0.663125 -0.132549
C48   C     C_R   0.713990 0.755408 0.342605 -0.136782
C49   C     C_R   0.370957 0.178195 0.745816 -0.113225
C50   C     C_R   0.637043 0.814241 0.256853 -0.120131
C51   C     C_R   0.964168 0.046951 0.553063 -0.236954
C52   C     C_R   0.035940 0.951918 0.448135 -0.237788
C53   C     C_R   0.093451 0.045243 0.559389 -0.001662
C54   C     C_R   0.474168 0.187334 0.204880 -0.052459
C55   C     C_R   0.541678 0.812944 0.795357 -0.051858
C56   C     C_R   0.456263 0.216009 0.028367 -0.202202
Cu1   Cu    Cu3+1 0.466270 0.918260 0.475690 0.940751
Cu2   Cu    Cu3+1 0.533730 0.081740 0.524310 0.940542
H1    H     H_    0.443333 0.212238 0.791113 0.113743
H2    H     H_    0.445983 0.280820 0.446644 0.121382
H3    H     H_    0.781979 0.278467 0.737584 0.138121
H4    H     H_    0.216858 0.720913 0.263292 0.137845
H5    H     H_    0.639966 0.589032 0.634747 0.132685
H6    H     H_    0.358673 0.410301 0.366282 0.134411
H7    H     H_    0.418569 0.027638 0.834082 0.114166
H8    H     H_    0.590113 0.964084 0.163678 0.113645
H9    H     H_    0.256648 0.949575 0.728912 0.103547
H10   H     H_    0.745029 0.045268 0.269757 0.107046
H11   H     H_    0.140355 0.242563 0.538168 0.129621
H12   H     H_    0.568246 0.778958 0.210696 0.121626
H13   H     H_    0.860442 0.754129 0.469640 0.129749
H14   H     H_    0.302169 0.318941 0.644839 0.138621
H15   H     H_    0.704814 0.674593 0.362684 0.138160
H16   H     H_    0.936473 0.081828 0.595928 0.155665
H17   H     H_    0.063655 0.916945 0.405361 0.156227
H18   H     H_    0.484390 0.681501 0.760858 0.150875
H19   H     H_    0.506051 0.318257 0.239053 0.147404
H20   H     H_    0.599483 0.932082 0.853339 0.146209
H21   H     H_    0.432834 0.068667 0.146885 0.147515
H22   H     H_    0.273666 0.863959 0.317960 0.121153
H23   H     H_    0.438705 0.185272 0.970468 0.127234
H24   H     H_    0.725893 0.135811 0.682345 0.120521
H25   H     H_    0.471610 0.357197 0.843652 0.142017
H26   H     H_    0.627802 0.644058 0.159593 0.140482
H27   H     H_    0.630774 0.815826 0.031228 0.130829
H28   H     H_    0.512548 0.535529 0.796367 0.142109
H29   H     H_    0.591406 0.465681 0.207548 0.144483
H30   H     H_    0.746463 0.443507 0.718732 0.145834
H31   H     H_    0.251808 0.555616 0.282582 0.144037
H32   H     H_    0.554325 0.719314 0.553194 0.121573
N1    N     N_R   0.584450 0.204570 0.560790 -0.173616
N2    N     N_R   0.415550 0.795430 0.439210 -0.174271
O1    O     O_R   0.455540 0.022090 0.338120 -0.588218
O2    O     O_R   0.544460 0.977910 0.661880 -0.588626
O3    O     O_R   0.512510 0.160150 0.379180 -0.592613
O4    O     O_R   0.487490 0.839850 0.620820 -0.592689
O5    O     O_R   0.291160 0.930970 0.479480 -0.588907
O6    O     O_R   0.708840 0.069030 0.520520 -0.588517
O7    O     O_R   0.348130 0.069020 0.520540 -0.571167
O8    O     O_R   0.651870 0.930980 0.479460 -0.571918

loop_
_geom_bond_atom_site_label_1
_geom_bond_atom_site_label_2
_ccdc_geom_bond_type
C8    C13   A    
C23   C45   A    
Cu1   N2    S    
C27   C29   A    
C14   C18   A    
Cu2   O6    S    
C51   H16   S    
C6    C55   A    
C1    C54   S    
C52   H17   S    
C3    H21   S    
C56   H23   S    
C39   C41   A    
C38   C49   A    
C36   H30   S    
C15   C19   A    
C29   C36   A    
C17   C23   S    
C22   H24   S    
C35   C37   A    
C42   C53   S    
C3    C54   A    
C16   O5    A    
C26   N2    A    
C33   C36   A    
C2    H27   S    
C20   H3    S    
C16   C34   S    
C11   C15   A    
C24   H22   S    
C40   H9    S    
C22   N1    A    
C35   H6    S    
C25   H2    S    
Cu2   N1    S    
C44   C47   A    
C33   H5    S    
C40   C42   A    
Cu1   O1    S    
C13   C14   A    
C41   C43   A    
C12   O2    A    
C42   C44   A    
C24   N2    A    
C17   O8    A    
C7    C11   A    
C41   H10   S    
C20   C29   A    
C46   C48   A    
C25   N1    A    
C27   C31   A    
C5    C54   A    
C28   C32   A    
C14   H28   S    
C47   C49   A    
C5    C7    A    
C6    C8    A    
C45   C52   A    
Cu1   O8    S    
Cu1   O4    S    
C30   C37   A    
C51   C53   A    
C2    C4    A    
Cu2   O3    S    
C4    H20   S    
C3    C56   A    
C23   C51   A    
C31   C32   A    
C38   H7    S    
C10   C19   A    
C1    O3    A    
Cu1   O5    S    
C18   H25   S    
C21   H4    S    
C44   H11   S    
C9    C56   A    
C43   C45   S    
C46   H13   S    
C8    C10   A    
C20   C22   A    
C4    C55   A    
C39   H8    S    
C31   C35   A    
C26   H32   S    
C5    H19   S    
C19   H26   S    
C2    C10   A    
C15   H29   S    
C17   O6    A    
C7    C9    A    
C26   C28   A    
C48   H15   S    
Cu2   O7    S    
C16   O7    A    
C6    H18   S    
C25   C27   A    
C21   C30   A    
C34   C52   A    
C49   H1    S    
C37   H31   S    
C32   C33   A    
C28   C30   A    
C50   H12   S    
C38   C40   A    
C11   C13   A    
Cu1   Cu2   S    
C48   C50   A    
Cu2   O2    S    
C43   C46   A    
C47   H14   S    
C12   C55   S    
C9    C18   A    
C39   C50   A    
C34   C53   A    
C1    O1    A    
C21   C24   A    
C12   O4    A    
