data_mof_unit_10914.cif
_audit_creation_date              2012-12-10T18:05:51-0500
_audit_creation_method            fapswitch 2.2
_symmetry_space_group_name_H-M    P1
_symmetry_Int_Tables_number       1
_space_group_crystal_system       triclinic
_cell_length_a                    12.626026
_cell_length_b                    13.228311
_cell_length_c                    14.89784
_cell_angle_alpha                 91.61582
_cell_angle_beta                  100.503058
_cell_angle_gamma                 84.556116
_cell_volume                      2435.37578245

loop_
_atom_site_label
_atom_site_type_symbol
_atom_type_description
_atom_site_fract_x
_atom_site_fract_y
_atom_site_fract_z
_atom_type_partial_charge
C1    C     C_R   0.442121 0.690926 0.486920 0.863177
C2    C     C_R   0.526054 0.404346 0.094355 0.083763
C3    C     C_R   0.447618 0.682879 0.046674 0.169849
C4    C     C_R   0.442151 0.682463 0.952845 -0.268664
C5    C     C_R   0.465828 0.593059 0.904613 0.087438
C6    C     C_R   0.496621 0.499939 0.952463 -0.018449
C7    C     C_R   0.524979 0.409308 0.905731 0.074913
C8    C     C_R   0.553123 0.315706 0.952230 0.117687
C9    C     C_R   0.551681 0.313470 0.046597 0.060911
C10   C     C_R   0.460746 0.594701 0.809455 0.112425
C11   C     C_R   0.494841 0.504983 0.766747 -0.090059
C12   C     C_R   0.498559 0.501945 0.671996 0.896208
C13   C     C_R   0.525366 0.414853 0.812801 -0.291832
C14   C     C_R   0.662824 0.088072 0.378080 0.121871
C15   C     C_R   0.585919 0.205447 0.481996 -0.062146
C16   C     C_R   0.311511 0.832845 0.509825 -0.198644
C17   C     C_R   0.275728 0.935027 0.510964 -0.151468
C18   C     C_R   0.338800 0.006409 0.487156 -0.186855
C19   C     C_R   0.438405 0.975927 0.459901 0.071957
C20   C     C_R   0.473966 0.871757 0.453015 0.082662
C21   C     C_R   0.508842 0.046811 0.444483 0.033359
C22   C     C_R   0.586988 0.019691 0.388924 0.160489
C23   C     C_R   0.558478 0.309772 0.505909 0.861441
C24   C     C_R   0.597741 0.919002 0.358897 -0.304330
C25   C     C_R   0.572485 0.847636 0.417514 0.096971
C26   C     C_R   0.511516 0.138080 0.492173 -0.259723
C27   C     C_R   0.663117 0.180256 0.426625 -0.266737
C28   C     C_R   0.410099 0.799789 0.482349 -0.113947
C29   C     C_R   0.078956 0.389311 0.338403 0.012363
C30   C     C_R   0.806207 0.616594 0.619950 0.003737
C31   C     C_R   0.911363 0.644572 0.641438 -0.252907
C32   C     C_R   0.988131 0.603226 0.591380 -0.218833
C33   C     C_R   0.961554 0.528652 0.523621 0.025767
C34   C     C_R   0.500885 0.499244 0.327869 0.868215
C35   C     C_R   0.851894 0.509016 0.499404 0.239882
C36   C     C_R   0.039482 0.475898 0.476995 -0.077822
C37   C     C_R   0.003872 0.424348 0.394130 0.143573
C38   C     C_R   0.895054 0.405001 0.371473 -0.265673
C39   C     C_R   0.822218 0.441343 0.427121 -0.223318
C40   C     C_R   0.151728 0.466869 0.511697 0.222396
C41   C     C_R   0.187783 0.406205 0.367627 -0.071717
C42   C     C_R   0.526853 0.405157 0.189117 0.055913
C43   C     C_R   0.502899 0.496868 0.232839 -0.101578
C44   C     C_R   0.478455 0.587451 0.187235 -0.284599
C45   C     C_R   0.474848 0.590161 0.093828 0.115445
C46   C     C_R   0.499127 0.497975 0.046767 -0.058114
H1    H     H_    0.659714 0.896090 0.318792 0.170261
H2    H     H_    0.456056 0.158150 0.538767 0.148159
H3    H     H_    0.261926 0.779196 0.531781 0.151468
H4    H     H_    0.307727 0.085462 0.488136 0.138582
H5    H     H_    0.199339 0.959127 0.531706 0.141747
H6    H     H_    0.245886 0.385788 0.323668 0.152254
H7    H     H_    0.866500 0.358249 0.312799 0.172310
H8    H     H_    0.461051 0.655056 0.226482 0.152700
H9    H     H_    0.746478 0.646808 0.659516 0.142585
H10   H     H_    0.068309 0.629022 0.606708 0.138031
H11   H     H_    0.933124 0.698269 0.696345 0.146531
H12   H     H_    0.743480 0.415330 0.412173 0.202025
H13   H     H_    0.420236 0.754189 0.918585 0.160670
H14   H     H_    0.548112 0.349291 0.773271 0.154459
H15   H     H_    0.720036 0.233675 0.417571 0.144172
N1    N     N_R   0.222190 0.444670 0.452360 -0.114594
N2    N     N_R   0.776970 0.554790 0.547140 -0.142794
O1    O     O_R   0.366740 0.627160 0.477250 -0.616287
O2    O     O_R   0.544830 0.662520 0.507680 -0.622283
O3    O     O_R   0.410940 0.482340 0.616930 -0.628518
O4    O     O_R   0.589030 0.517700 0.647360 -0.613075
O5    O     O_R   0.455170 0.337480 0.492320 -0.626770
O6    O     O_R   0.633260 0.372840 0.522750 -0.629596
O7    O     O_R   0.410970 0.482300 0.352640 -0.623788
O8    O     O_R   0.589060 0.517660 0.383070 -0.645010
Zn1   Zn    Zn3+2 0.381090 0.476390 0.479680 0.923666
Zn2   Zn    Zn3+2 0.618910 0.523610 0.520320 0.916634
N3    N     N_3   0.554203 0.314299 0.242030 -0.432889
H16   H     H_    0.490250 0.302096 0.275018 0.193767
H17   H     H_    0.622925 0.324846 0.290863 0.163837
N4    N     N_3   0.741525 0.062941 0.320927 -0.484246
H18   H     H_    0.818364 0.064599 0.361240 0.186188
H19   H     H_    0.732622 0.119545 0.271824 0.195101
C47   C     C_3   0.677020 0.804772 0.478687 -0.304298
C48   C     C_3   0.684383 0.842573 0.577648 -0.860038
H20   H     H_    0.668176 0.926522 0.579812 0.259470
H21   H     H_    0.625215 0.808284 0.610887 0.263923
H22   H     H_    0.766888 0.823501 0.616879 0.234830
H23   H     H_    0.691431 0.721990 0.471266 0.235639
H24   H     H_    0.749929 0.830312 0.456672 0.185621
N5    N     N_3   0.044399 0.340506 0.251978 -0.469664
H25   H     H_    0.999203 0.395607 0.208279 0.187193
H26   H     H_    0.111182 0.314440 0.222525 0.180179
C49   C     C_3   0.190476 0.453971 0.613769 -0.372113
C50   C     C_3   0.248464 0.348243 0.636125 -0.806311
H27   H     H_    0.189540 0.290031 0.621157 0.230769
H28   H     H_    0.312979 0.328607 0.595659 0.289728
H29   H     H_    0.284878 0.345044 0.709792 0.238078
H30   H     H_    0.238671 0.516548 0.642545 0.212759
H31   H     H_    0.122197 0.457873 0.651426 0.196021
C51   C     C_3   0.423765 0.784186 0.093273 -0.422474
C52   C     C_3   0.308387 0.796282 0.112388 -0.852344
H32   H     H_    0.249536 0.794668 0.047216 0.257739
H33   H     H_    0.294217 0.734843 0.156764 0.260550
H34   H     H_    0.294121 0.870310 0.147244 0.251677
H35   H     H_    0.483364 0.793533 0.156964 0.202644
H36   H     H_    0.432875 0.848310 0.049404 0.201516
C53   C     C_3   0.420397 0.689968 0.752959 -0.432861
C54   C     C_3   0.510955 0.758846 0.754089 -0.872493
H37   H     H_    0.540479 0.787160 0.824103 0.255777
H38   H     H_    0.579679 0.716256 0.728543 0.261637
H39   H     H_    0.480627 0.825026 0.709357 0.252834
H40   H     H_    0.388124 0.670608 0.680855 0.199767
H41   H     H_    0.350019 0.731888 0.776591 0.195758
C55   C     C_3   0.582800 0.217536 0.901754 -0.413550
C56   C     C_3   0.482080 0.172575 0.849247 -0.875625
H42   H     H_    0.429394 0.153343 0.897197 0.257016
H43   H     H_    0.434933 0.226481 0.798069 0.258178
H44   H     H_    0.506527 0.102103 0.813027 0.249212
H45   H     H_    0.639903 0.230162 0.855622 0.198821
H46   H     H_    0.628492 0.158276 0.948099 0.197573
N6    N     N_3   0.575189 0.218685 0.094223 -0.434604
H47   H     H_    0.655919 0.191742 0.095174 0.174143
H48   H     H_    0.523310 0.166001 0.062567 0.197027

loop_
_geom_bond_atom_site_label_1
_geom_bond_atom_site_label_2
_ccdc_geom_bond_type
C16   C28   A    
N5    H25   S    
C25   C47   S    
C23   O6    A    
C19   C20   A    
C21   C26   A    
C17   H5    S    
C56   H43   S    
C51   C52   S    
C40   N1    A    
C49   H30   S    
C13   H14   S    
N4    H18   S    
C2    C46   A    
C54   H38   S    
C47   H23   S    
N3    H17   S    
C36   C37   A    
C19   C21   A    
C30   C31   A    
C20   C25   A    
C33   C36   A    
O2    Zn2   S    
C18   C19   A    
C14   N4    S    
N6    H47   S    
C53   C54   S    
C47   H24   S    
C27   H15   S    
C48   H21   S    
O3    Zn1   S    
C55   C56   S    
C8    C9    A    
C1    C28   S    
C1    O2    A    
O6    Zn2   S    
C55   H45   S    
O4    Zn2   S    
C14   C27   A    
C34   O7    A    
C41   H6    S    
C51   H35   S    
C26   H2    S    
C15   C23   S    
C21   C22   A    
C9    N6    S    
C41   N1    A    
C56   H42   S    
C54   H39   S    
C48   H20   S    
N4    H19   S    
C38   C39   A    
C12   O4    A    
C42   N3    S    
N3    H16   S    
C36   C40   A    
C24   C25   A    
C8    C55   S    
C50   H27   S    
O8    Zn2   S    
C16   C17   A    
C15   C26   A    
C20   C28   A    
C45   C46   A    
C39   H12   S    
C12   O3    A    
C3    C45   A    
C23   O5    A    
C35   C39   A    
C43   C44   A    
C37   C38   A    
C50   H28   S    
C3    C51   S    
C15   C27   A    
C31   C32   A    
C7    C13   A    
O5    Zn1   S    
C17   C18   A    
N1    Zn1   S    
C16   H3    S    
C51   H36   S    
C52   H33   S    
N5    H26   S    
C22   C24   A    
C42   C43   A    
C3    C4    A    
C1    O1    A    
C48   H22   S    
C44   C45   A    
C18   H4    S    
C30   H9    S    
C6    C46   A    
C29   C41   A    
C24   H1    S    
C34   C43   S    
C47   C48   S    
O7    Zn1   S    
C11   C12   S    
C49   H31   S    
C6    C7    A    
C52   H34   S    
N2    Zn2   S    
C54   H37   S    
C55   H46   S    
C32   C33   A    
C14   C22   A    
C10   C53   S    
C5    C10   A    
C50   H29   S    
C53   H41   S    
C11   C13   A    
C31   H11   S    
C49   C50   S    
C5    C6    A    
C38   H7    S    
C2    C42   A    
C4    H13   S    
C33   C35   A    
O1    Zn1   S    
N6    H48   S    
C29   N5    S    
C7    C8    A    
C10   C11   A    
C44   H8    S    
C4    C5    A    
C52   H32   S    
C29   C37   A    
C53   H40   S    
C35   N2    A    
C40   C49   S    
C30   N2    A    
C2    C9    A    
C34   O8    A    
C32   H10   S    
C56   H44   S    
