data_mof_unit_29877.cif
_audit_creation_date              2013-03-05T15:49:46-0500
_audit_creation_method            fapswitch 2.2
_symmetry_space_group_name_H-M    P1
_symmetry_Int_Tables_number       1
_space_group_crystal_system       triclinic
_cell_length_a                    6.93903
_cell_length_b                    19.691969
_cell_length_c                    22.922802
_cell_angle_alpha                 89.999989
_cell_angle_beta                  89.999983
_cell_angle_gamma                 90.000013
_cell_volume                      3132.244185

loop_
_atom_site_label
_atom_site_type_symbol
_atom_site_description
_atom_site_fract_x
_atom_site_fract_y
_atom_site_fract_z
_atom_type_partial_charge
O1    O     O_R   0.620180 0.810610 0.187990 -0.589485
O2    O     O_R   0.379820 0.189390 0.812010 -0.587517
O3    O     O_R   0.379820 0.189390 0.687990 -0.589485
O4    O     O_R   0.620180 0.810610 0.312010 -0.587515
O5    O     O_R   0.120180 0.689390 0.312010 -0.589485
O6    O     O_R   0.879820 0.310610 0.687990 -0.587517
O7    O     O_R   0.879820 0.310610 0.812010 -0.589485
O8    O     O_R   0.120180 0.689390 0.187990 -0.587513
O9    O     O_R   0.290420 0.818570 0.311590 -0.575138
O10   O     O_R   0.709580 0.181430 0.688410 -0.575321
O11   O     O_R   0.709580 0.181430 0.811590 -0.575140
O12   O     O_R   0.290420 0.818570 0.188410 -0.575323
O13   O     O_R   0.790420 0.681430 0.188410 -0.575135
O14   O     O_R   0.209580 0.318570 0.811590 -0.575321
O15   O     O_R   0.209580 0.318570 0.688410 -0.575140
O16   O     O_R   0.790420 0.681430 0.311590 -0.575323
C1    C     C_R   0.458578 0.835537 0.331669 0.990314
C2    C     C_R   0.541392 0.164048 0.668676 0.987684
C3    C     C_R   0.541422 0.164462 0.831669 0.990316
C4    C     C_R   0.458608 0.835951 0.168676 0.987686
C5    C     C_R   0.958578 0.664463 0.168331 0.990314
C6    C     C_R   0.041392 0.335952 0.831323 0.987685
C7    C     C_R   0.041422 0.335538 0.668331 0.990316
C8    C     C_R   0.958608 0.664048 0.331323 0.987684
H1    H     H_    0.359289 0.630820 0.509471 0.164104
H2    H     H_    0.620198 0.376737 0.496586 0.166872
H3    H     H_    0.640692 0.369187 0.009466 0.164098
H4    H     H_    0.379803 0.623264 0.996586 0.166871
H5    H     H_    0.859291 0.869181 0.990529 0.164104
H6    H     H_    0.120198 0.123263 0.003414 0.166872
H7    H     H_    0.140702 0.130816 0.490532 0.164101
H8    H     H_    0.879802 0.876736 0.503414 0.166872
H9    H     H_    0.781886 0.339605 0.582672 0.147119
H10   H     H_    0.203993 0.665770 0.421135 0.132029
H11   H     H_    0.218114 0.660396 0.082671 0.147127
H12   H     H_    0.796000 0.334233 0.921133 0.132030
H13   H     H_    0.281886 0.160395 0.917328 0.147119
H14   H     H_    0.703995 0.834231 0.078865 0.132029
H15   H     H_    0.718113 0.839605 0.417328 0.147123
H16   H     H_    0.296003 0.165768 0.578866 0.132029
O17   O     O_3   0.453640 0.707610 0.250000 -0.236254
O18   O     O_3   0.546360 0.292390 0.750000 -0.236257
O19   O     O_3   0.953640 0.792390 0.250000 -0.236257
O20   O     O_3   0.046360 0.207610 0.750000 -0.236257
V1    V     V_3+5 0.178800 0.757860 0.250000 1.309221
V2    V     V_3+5 0.821200 0.242140 0.750000 1.309216
V3    V     V_3+5 0.678800 0.742140 0.250000 1.309222
V4    V     V_3+5 0.321200 0.257860 0.750000 1.309216
C9    C     C_R   0.885351 0.380658 0.578723 -0.112835
C10   C     C_R   0.103601 0.623705 0.424422 -0.145332
C11   C     C_R   0.114648 0.619343 0.078722 -0.112841
C12   C     C_R   0.896395 0.376296 0.924421 -0.145329
C13   C     C_R   0.385351 0.119342 0.921277 -0.112835
C14   C     C_R   0.603603 0.876295 0.075578 -0.145329
C15   C     C_R   0.614648 0.880657 0.421277 -0.112836
C16   C     C_R   0.396396 0.123704 0.575578 -0.145330
C17   C     C_R   0.033471 0.386252 0.619750 -0.309214
C18   C     C_R   0.964662 0.614680 0.380875 -0.298892
C19   C     C_R   0.966528 0.613749 0.119749 -0.309205
C20   C     C_R   0.035337 0.385320 0.880875 -0.298893
C21   C     C_R   0.533470 0.113748 0.880250 -0.309214
C22   C     C_R   0.464662 0.885320 0.119124 -0.298893
C23   C     C_R   0.466529 0.886251 0.380250 -0.309211
C24   C     C_R   0.535338 0.114680 0.619124 -0.298892
C25   C     C_R   0.173690 0.438271 0.612623 0.320029
C26   C     C_R   0.834510 0.559123 0.385208 0.305650
C27   C     C_R   0.826306 0.561731 0.112621 0.320030
C28   C     C_R   0.165491 0.440877 0.885208 0.305646
C29   C     C_R   0.673691 0.061729 0.887377 0.320030
C30   C     C_R   0.334510 0.940877 0.114792 0.305649
C31   C     C_R   0.326308 0.938270 0.387378 0.320031
C32   C     C_R   0.665491 0.059123 0.614792 0.305648
C33   C     C_R   0.154497 0.487443 0.567059 -0.156137
C34   C     C_R   0.838618 0.515286 0.434966 -0.150681
C35   C     C_R   0.845495 0.512561 0.067057 -0.156155
C36   C     C_R   0.161382 0.484715 0.934966 -0.150679
C37   C     C_R   0.654498 0.012558 0.932941 -0.156138
C38   C     C_R   0.338618 0.984714 0.065033 -0.150682
C39   C     C_R   0.345499 0.987441 0.432942 -0.156144
C40   C     C_R   0.661382 0.015285 0.565034 -0.150680
C41   C     C_R   0.003540 0.479496 0.525622 0.043431
C42   C     C_R   0.985222 0.524876 0.477611 0.055462
C43   C     C_R   0.996457 0.520505 0.025621 0.043452
C44   C     C_R   0.014775 0.475126 0.977610 0.055470
C45   C     C_R   0.503540 0.020504 0.974378 0.043432
C46   C     C_R   0.485222 0.975124 0.022389 0.055463
C47   C     C_R   0.496459 0.979495 0.474379 0.043440
C48   C     C_R   0.514777 0.024875 0.522390 0.055466
C49   C     C_R   0.871449 0.425674 0.531709 0.157120
C50   C     C_R   0.116533 0.579034 0.471791 0.180468
C51   C     C_R   0.128550 0.574327 0.031708 0.157127
C52   C     C_R   0.883462 0.420969 0.971790 0.180463
C53   C     C_R   0.371449 0.074326 0.968291 0.157119
C54   C     C_R   0.616534 0.920967 0.028209 0.180466
C55   C     C_R   0.628551 0.925673 0.468291 0.157123
C56   C     C_R   0.383464 0.079032 0.528209 0.180465
C57   C     C_R   0.280637 0.544194 0.560917 0.351872
C58   C     C_R   0.704927 0.461019 0.443316 0.359981
C59   C     C_R   0.719346 0.455812 0.060912 0.351869
C60   C     C_R   0.295073 0.538981 0.943315 0.359981
C61   C     C_R   0.780638 0.955806 0.939083 0.351871
C62   C     C_R   0.204928 0.038981 0.056684 0.359981
C63   C     C_R   0.219355 0.044191 0.439086 0.351871
C64   C     C_R   0.795073 0.961019 0.556684 0.359981
C65   C     C_R   0.261181 0.588176 0.513369 -0.259749
C66   C     C_R   0.724226 0.417344 0.490980 -0.265205
C67   C     C_R   0.738806 0.411829 0.013365 -0.259733
C68   C     C_R   0.275774 0.582656 0.990980 -0.265201
C69   C     C_R   0.761183 0.911825 0.986632 -0.259748
C70   C     C_R   0.224227 0.082656 0.009020 -0.265206
C71   C     C_R   0.238812 0.088174 0.486633 -0.259742
C72   C     C_R   0.775774 0.917344 0.509020 -0.265201
N1    N     N_R   0.421669 0.561457 0.604046 0.266690
O21   O     O_R   0.599614 0.571520 0.588346 -0.353937
O22   O     O_R   0.365053 0.582728 0.654971 -0.243768
N2    N     N_R   0.542519 0.450310 0.405909 0.265829
O23   O     O_R   0.514020 0.390582 0.383220 -0.282582
O24   O     O_R   0.401084 0.493519 0.406671 -0.367951
N3    N     N_R   0.578290 0.438556 0.104035 0.266682
O25   O     O_R   0.400343 0.428513 0.088330 -0.353970
O26   O     O_R   0.634878 0.417270 0.154959 -0.243773
N4    N     N_R   0.457480 0.549691 0.905908 0.265828
O27   O     O_R   0.485974 0.609420 0.883219 -0.282581
O28   O     O_R   0.598917 0.506483 0.906670 -0.367951
N5    N     N_R   0.921671 0.938544 0.895955 0.266690
O29   O     O_R   0.099616 0.928481 0.911655 -0.353938
O30   O     O_R   0.865055 0.917272 0.845029 -0.243768
N6    N     N_R   0.042520 0.049690 0.094092 0.265829
O31   O     O_R   0.014026 0.109419 0.116781 -0.282581
O32   O     O_R   0.901083 0.006483 0.093328 -0.367950
N7    N     N_R   0.078311 0.061450 0.395959 0.266686
O33   O     O_R   0.900365 0.071504 0.411662 -0.353953
O34   O     O_R   0.134914 0.082729 0.345035 -0.243771
N8    N     N_R   0.957480 0.950309 0.594091 0.265828
O35   O     O_R   0.985975 0.890581 0.616780 -0.282580
O36   O     O_R   0.098917 0.993517 0.593329 -0.367950
N9    N     N_R   0.339486 0.438664 0.649627 0.254823
O37   O     O_R   0.320973 0.449741 0.705144 -0.260002
O38   O     O_R   0.506675 0.421627 0.628756 -0.395874
N10   N     N_R   0.720018 0.541661 0.335525 0.254602
O39   O     O_R   0.562568 0.574959 0.324012 -0.296866
O40   O     O_R   0.760452 0.486782 0.306374 -0.250559
N11   N     N_R   0.660515 0.561338 0.149627 0.254826
O41   O     O_R   0.679032 0.550250 0.205142 -0.259996
O42   O     O_R   0.493335 0.578395 0.128762 -0.395874
N12   N     N_R   0.279988 0.458337 0.835526 0.254604
O43   O     O_R   0.437438 0.425038 0.824015 -0.296869
O44   O     O_R   0.239558 0.513216 0.806373 -0.250554
N13   N     N_R   0.839486 0.061336 0.850373 0.254823
O45   O     O_R   0.820973 0.050259 0.794856 -0.260002
O46   O     O_R   0.006675 0.078374 0.871243 -0.395875
N14   N     N_R   0.220015 0.958338 0.164474 0.254602
O47   O     O_R   0.062564 0.925039 0.175986 -0.296869
O48   O     O_R   0.260449 0.013216 0.193627 -0.250557
N15   N     N_R   0.160513 0.938663 0.350373 0.254823
O49   O     O_R   0.179025 0.949744 0.294857 -0.259999
O50   O     O_R   0.993329 0.921616 0.371242 -0.395877
N16   N     N_R   0.779987 0.041662 0.664474 0.254603
O51   O     O_R   0.937438 0.074961 0.675985 -0.296868
O52   O     O_R   0.739555 0.986784 0.693627 -0.250554

loop_
_geom_bond_atom_site_label_1
_geom_bond_atom_site_label_2
_geom_bond_distance
_ccdc_geom_bond_type
C47   C48   1.423342 A    
C48   C56   1.409043 A    
O9    V1    2.005577 S    
C30   C38   1.430733 A    
C29   C37   1.430449 A    
C59   C67   1.398675 A    
C27   N11   1.429380 S    
N6    O31   1.301142 A    
C36   C44   1.423410 A    
C31   C39   1.430448 A    
C41   C42   1.423341 A    
H1    C65   1.084708 S    
C34   C58   1.427993 A    
C45   C46   1.423343 A    
C33   C57   1.426488 A    
N9    O38   1.298981 A    
O11   C3    1.298084 A    
C64   N8    1.431696 S    
H6    C70   1.084899 S    
H5    C69   1.084708 S    
N10   O40   1.301205 A    
N12   O43   1.301261 A    
C62   N6    1.431696 S    
C55   C72   1.393621 A    
N13   O46   1.298980 A    
C6    C20   1.495684 S    
C25   N9    1.429384 S    
N15   O50   1.298978 A    
C61   C69   1.398677 A    
N11   O41   1.297524 A    
C26   C34   1.430731 A    
O3    V4    2.000974 S    
C9    C17   1.397487 A    
N2    O23   1.301144 A    
C22   C30   1.422113 A    
O3    C2    1.304611 A    
N11   O42   1.298975 A    
O18   V2    2.148552 S    
C33   C41   1.422665 A    
O8    V1    2.000974 S    
C46   C54   1.409043 A    
C19   C27   1.422219 A    
C45   C53   1.408165 A    
C18   C26   1.422114 A    
H15   C15   1.084968 S    
O20   V2    1.703942 S    
H16   C16   1.084943 S    
C47   C55   1.408163 A    
C49   C66   1.393620 A    
O10   V2    2.005579 S    
C61   N5    1.432016 S    
C16   C24   1.399111 A    
C58   C66   1.396932 A    
C12   C20   1.399112 A    
H12   C12   1.084943 S    
O6    V2    2.000973 S    
C53   C70   1.393620 A    
C41   C49   1.408164 A    
C38   C46   1.423408 A    
O15   C7    1.298084 A    
C37   C45   1.422664 A    
O16   C8    1.297616 A    
N16   O52   1.301205 A    
C39   C63   1.426487 A    
C13   C21   1.397487 A    
O15   V4    2.005579 S    
C34   C42   1.423409 A    
O16   V3    2.005577 S    
C39   C47   1.422666 A    
C10   C50   1.400321 A    
N12   O44   1.301205 A    
N3    O26   1.300959 A    
O10   C2    1.297616 A    
C56   C71   1.395782 A    
C60   C68   1.396931 A    
H10   C10   1.084941 S    
C13   C53   1.398756 A    
C10   C18   1.399114 A    
O7    V2    2.000972 S    
C30   N14   1.430525 S    
N10   O39   1.301261 A    
C15   C55   1.398758 A    
C25   C33   1.430447 A    
C17   C25   1.422221 A    
O13   V3    2.005579 S    
O1    V3    2.000974 S    
O14   V4    2.005577 S    
C14   C22   1.399113 A    
O2    V4    2.000972 S    
O5    V1    2.000972 S    
C32   C40   1.430731 A    
C15   C23   1.397486 A    
H13   C13   1.084969 S    
C4    C22   1.495681 S    
H2    C66   1.084900 S    
C52   C67   1.395783 A    
C58   N2    1.431698 S    
C43   C44   1.423342 A    
H14   C14   1.084942 S    
H3    C67   1.084707 S    
C31   N15   1.429382 S    
O12   C4    1.297616 A    
C35   C59   1.426486 A    
O8    C5    1.304407 A    
O17   V3    1.703943 S    
O13   C5    1.298084 A    
O18   V4    1.703942 S    
C28   C36   1.430732 A    
N5    O30   1.300964 A    
C2    C24   1.495683 S    
O19   V1    1.703943 S    
O4    C1    1.304407 A    
O9    C1    1.298083 A    
C26   N10   1.430525 S    
C23   C31   1.422221 A    
H11   C11   1.084968 S    
N5    O29   1.301319 A    
C12   C52   1.400321 A    
C11   C19   1.397487 A    
C57   N1    1.432015 S    
N7    O33   1.301315 A    
N4    O28   1.299027 A    
C28   N12   1.430525 S    
C64   C72   1.396931 A    
N1    O21   1.301319 A    
N14   O48   1.301204 A    
C32   N16   1.430526 S    
C21   C29   1.422220 A    
C7    C17   1.496835 S    
O1    C4    1.304611 A    
H7    C71   1.084709 S    
H8    C72   1.084901 S    
O2    C3    1.304407 A    
C51   C68   1.393621 A    
C50   C65   1.395783 A    
C9    C49   1.398758 A    
O12   V1    2.005578 S    
N7    O34   1.300963 A    
N6    O32   1.299027 A    
N8    O36   1.299027 A    
N3    O25   1.301312 A    
C5    C19   1.496833 S    
N8    O35   1.301144 A    
C63   C71   1.398675 A    
C36   C60   1.427995 A    
O7    C6    1.304611 A    
C43   C51   1.408164 A    
N9    O37   1.297528 A    
C54   C69   1.395783 A    
C42   C50   1.409043 A    
C29   N13   1.429383 S    
O14   C6    1.297616 A    
C63   N7    1.432014 S    
C57   C65   1.398677 A    
C40   C48   1.423409 A    
N13   O45   1.297528 A    
C1    C23   1.496835 S    
C35   C43   1.422666 A    
N16   O51   1.301260 A    
O5    C8    1.304611 A    
O19   V3    2.148551 S    
C3    C21   1.496835 S    
C40   C64   1.427995 A    
O6    C7    1.304407 A    
N2    O24   1.299025 A    
C37   C61   1.426488 A    
C60   N4    1.431696 S    
C24   C32   1.422115 A    
C16   C56   1.400322 A    
H4    C68   1.084901 S    
C14   C54   1.400320 A    
C62   C70   1.396932 A    
C59   N3    1.432009 S    
C27   C35   1.430446 A    
N14   O47   1.301260 A    
C20   C28   1.422116 A    
C8    C18   1.495680 S    
N15   O49   1.297529 A    
C11   C51   1.398759 A    
O17   V1    2.148551 S    
O11   V2    2.005577 S    
C38   C62   1.427993 A    
C44   C52   1.409043 A    
N4    O27   1.301144 A    
H9    C9    1.084969 S    
O20   V4    2.148552 S    
N1    O22   1.300965 A    
O4    V3    2.000972 S    
