data_mof_unit_51427.cif
_audit_creation_date              2012-12-10T18:59:19-0500
_audit_creation_method            fapswitch 2.2
_symmetry_space_group_name_H-M    P1
_symmetry_Int_Tables_number       1
_space_group_crystal_system       triclinic
_cell_length_a                    9.844873
_cell_length_b                    10.657994
_cell_length_c                    16.714643
_cell_angle_alpha                 89.493071
_cell_angle_beta                  94.10469
_cell_angle_gamma                 89.381565
_cell_volume                      1749.12869473

loop_
_atom_site_label
_atom_site_type_symbol
_atom_type_description
_atom_site_fract_x
_atom_site_fract_y
_atom_site_fract_z
_atom_type_partial_charge
C1    C     C_R   0.500370 0.260323 0.496926 0.892231
C2    C     C_R   0.079685 0.421275 0.549649 -0.126443
C3    C     C_R   0.516657 0.504928 0.653822 0.911073
C4    C     C_R   0.482802 0.501744 0.346266 0.919269
C5    C     C_R   0.525788 0.536069 0.739351 -0.177500
C6    C     C_R   0.476243 0.509486 0.259105 -0.142505
C7    C     C_R   0.413588 0.588457 0.777296 0.325572
C8    C     C_R   0.370240 0.455866 0.209780 0.340870
C9    C     C_R   0.433293 0.631942 0.856411 0.107395
C10   C     C_R   0.374728 0.463255 0.125726 0.072174
C11   C     C_R   0.559466 0.607080 0.899626 0.226808
C12   C     C_R   0.499677 0.739707 0.502126 0.864811
C13   C     C_R   0.485653 0.523119 0.092934 0.223378
C14   C     C_R   0.669510 0.558814 0.861666 -0.203264
C15   C     C_R   0.589569 0.575692 0.143261 -0.183074
C16   C     C_R   0.653565 0.525436 0.781829 -0.238198
C17   C     C_R   0.584102 0.569549 0.225092 -0.274035
C18   C     C_R   0.427354 0.068409 0.553006 -0.218475
C19   C     C_R   0.573146 0.931380 0.445503 -0.217599
C20   C     C_3   0.262921 0.406607 0.070522 -0.361256
C21   C     C_3   0.296873 0.270460 0.051829 -0.784289
C22   C     C_3   0.320066 0.702038 0.895649 -0.359185
C23   C     C_R   0.425632 0.939370 0.557644 0.149358
C24   C     C_3   0.299792 0.834557 0.860927 -0.824514
C25   C     C_3   0.350510 0.878658 0.623550 -0.420734
C26   C     C_3   0.197137 0.879427 0.601984 -0.701025
C27   C     C_3   0.648256 0.121827 0.373950 -0.423031
C28   C     C_3   0.547445 0.171312 0.307200 -0.793922
C29   C     C_R   0.574721 0.060587 0.440632 0.168883
C30   C     C_R   0.499145 0.872083 0.502740 -0.059659
C31   C     C_R   0.501331 0.127861 0.495882 -0.049585
C32   C     C_R   0.063905 0.578927 0.450074 0.455402
C33   C     C_R   0.936112 0.420886 0.549795 0.435752
C34   C     C_R   0.920328 0.578704 0.450323 -0.199332
Cl1   Cl    Cl    0.236875 0.373676 0.252259 -0.613271
Cl2   Cl    Cl    0.245984 0.594736 0.730216 -0.660352
Cl3   Cl    Cl    0.138260 0.682314 0.384176 -0.576459
Cl4   Cl    Cl    0.861775 0.316496 0.615055 -0.603886
H1    H     H_    0.766001 0.540890 0.895362 0.172061
H2    H     H_    0.307834 0.213429 0.107914 0.281146
H3    H     H_    0.213718 0.230806 0.011688 0.248666
H4    H     H_    0.163100 0.411527 0.097325 0.250325
H5    H     H_    0.248108 0.460888 0.013447 0.201959
H6    H     H_    0.396476 0.887363 0.868462 0.251856
H7    H     H_    0.265418 0.832380 0.796406 0.288833
H8    H     H_    0.221065 0.884910 0.893072 0.252657
H9    H     H_    0.223365 0.649270 0.888531 0.241041
H10   H     H_    0.342849 0.712790 0.961124 0.215620
H11   H     H_    0.158411 0.977119 0.592645 0.247137
H12   H     H_    0.676237 0.620956 0.119487 0.179930
H13   H     H_    0.173168 0.825082 0.546518 0.287461
H14   H     H_    0.143989 0.836160 0.651474 0.267038
H15   H     H_    0.386524 0.781190 0.636305 0.229291
H16   H     H_    0.371829 0.930808 0.680290 0.200136
H17   H     H_    0.489638 0.092438 0.278843 0.271127
H18   H     H_    0.474564 0.238559 0.331283 0.265085
H19   H     H_    0.603182 0.219925 0.260721 0.252144
H20   H     H_    0.715094 0.198197 0.397246 0.244759
H21   H     H_    0.716991 0.053033 0.347018 0.215347
H22   H     H_    0.740854 0.487205 0.754021 0.228640
H23   H     H_    0.665848 0.611832 0.262128 0.189117
H24   H     H_    0.373161 0.123103 0.595321 0.157521
H25   H     H_    0.626589 0.876115 0.403158 0.148306
H26   H     H_    0.859411 0.641383 0.410701 0.176546
H27   H     H_    0.140605 0.358527 0.589218 0.187937
H28   H     H_    0.393230 0.264937 0.021211 0.257640
N1    N     N_2   0.568740 0.607171 0.983591 -0.192877
N2    N     N_2   0.490095 0.527560 0.008847 -0.183169
N3    N     N_R   0.857210 0.499970 0.500020 -0.134703
N4    N     N_R   0.142790 0.500030 0.499980 -0.126171
O1    O     O_R   0.614620 0.316750 0.500010 -0.578072
O2    O     O_R   0.385380 0.683250 0.499990 -0.569018
O3    O     O_R   0.385290 0.316780 0.500000 -0.621753
O4    O     O_R   0.614710 0.683220 0.500000 -0.633121
O5    O     O_R   0.627460 0.498830 0.616130 -0.576318
O6    O     O_R   0.372540 0.501170 0.383870 -0.516238
O7    O     O_R   0.398130 0.498850 0.616130 -0.571510
O8    O     O_R   0.601870 0.501150 0.383870 -0.639570
Zn1   Zn    Zn3+2 0.653130 0.499980 0.500000 0.998251
Zn2   Zn    Zn3+2 0.346870 0.500020 0.500000 1.053559

loop_
_geom_bond_atom_site_label_1
_geom_bond_atom_site_label_2
_ccdc_geom_bond_type
C22   H10   S    
C12   O4    A    
C21   H28   S    
C27   C29   S    
C7    Cl2   S    
C2    H27   S    
O1    Zn1   S    
C28   H18   S    
C28   H19   S    
C1    O1    A    
C24   H7    S    
C25   H15   S    
C11   C14   A    
C9    C22   S    
C1    C31   S    
C15   C17   A    
C16   H22   S    
C15   H12   S    
C5    C16   A    
C17   H23   S    
C14   H1    S    
C10   C20   S    
C3    O5    A    
C33   N3    A    
C22   H9    S    
C12   O2    A    
C28   H17   S    
C11   N1    S    
N4    Zn2   S    
N1    N2    D    
C23   C30   A    
C25   H16   S    
C4    C6    S    
C26   H11   S    
C19   H25   S    
C5    C7    A    
C32   N4    A    
O8    Zn1   S    
C18   H24   S    
C6    C8    A    
C25   C26   S    
C10   C13   A    
C18   C23   A    
C8    Cl1   S    
C32   C34   A    
C4    O8    A    
C26   H14   S    
C34   H26   S    
C32   Cl3   S    
C9    C11   A    
C34   N3    A    
C21   H3    S    
C2    C33   A    
C8    C10   A    
O4    Zn1   S    
C13   C15   A    
C24   H6    S    
C14   C16   A    
N3    Zn1   S    
C3    O7    A    
C20   H5    S    
O7    Zn2   S    
C7    C9    A    
C6    C17   A    
C12   C30   S    
O6    Zn2   S    
C3    C5    S    
C27   H20   S    
C20   H4    S    
C33   Cl4   S    
C1    O3    A    
C24   H8    S    
O2    Zn2   S    
C27   H21   S    
C26   H13   S    
C21   H2    S    
O3    Zn2   S    
C22   C24   S    
C23   C25   S    
C4    O6    A    
C20   C21   S    
C29   C31   A    
C27   C28   S    
C18   C31   A    
C2    N4    A    
C19   C30   A    
O5    Zn1   S    
C13   N2    S    
C19   C29   A    
