data_mof_unit_64884.cif
_audit_creation_date              2012-12-10T20:49:58-0500
_audit_creation_method            fapswitch 2.2
_symmetry_space_group_name_H-M    P1
_symmetry_Int_Tables_number       1
_space_group_crystal_system       triclinic
_cell_length_a                    19.166472
_cell_length_b                    19.239642
_cell_length_c                    19.219024
_cell_angle_alpha                 95.05553
_cell_angle_beta                  89.977412
_cell_angle_gamma                 85.624114
_cell_volume                      7038.8012074

loop_
_atom_site_label
_atom_site_type_symbol
_atom_type_description
_atom_site_fract_x
_atom_site_fract_y
_atom_site_fract_z
_atom_type_partial_charge
C1    C     C_R   0.492743 0.492266 0.310726 0.799487
C2    C     C_R   0.128609 0.474553 0.563710 -0.194506
C3    C     C_R   0.506511 0.513543 0.766342 -0.001531
C4    C     C_R   0.506772 0.507958 0.689419 0.812257
C5    C     C_R   0.484407 0.457582 0.800675 -0.264143
C6    C     C_R   0.480941 0.461700 0.873196 -0.165925
C7    C     C_R   0.499382 0.522407 0.913199 0.305391
C8    C     C_R   0.520676 0.578558 0.879231 -0.243219
C9    C     C_R   0.524899 0.574660 0.806166 0.075601
C10   C     C_R   0.462575 0.539903 0.126364 -0.163321
C11   C     C_R   0.461404 0.543818 0.199199 -0.216510
C12   C     C_R   0.911310 0.498223 0.463027 0.246720
C13   C     C_R   0.492334 0.479152 0.087631 0.319119
C14   C     C_R   0.490479 0.487621 0.234151 -0.001636
C15   C     C_R   0.518799 0.426745 0.195335 -0.206166
C16   C     C_R   0.493201 0.689541 0.507577 0.872240
C17   C     C_R   0.518867 0.422406 0.122670 -0.188780
C18   C     C_R   0.514334 0.233702 0.492566 -0.084848
C19   C     C_R   0.452949 0.198088 0.495895 0.051692
C20   C     C_R   0.457683 0.125337 0.495911 -0.207540
C21   C     C_R   0.523305 0.087011 0.492194 0.285112
C22   C     C_R   0.583846 0.122192 0.487311 -0.231025
C23   C     C_R   0.875776 0.442713 0.432733 -0.190855
C24   C     C_R   0.580709 0.195319 0.488796 -0.103034
C25   C     C_R   0.548635 0.872985 0.498767 -0.200004
C26   C     C_R   0.553132 0.799880 0.497052 -0.109289
C27   C     C_R   0.484044 0.912522 0.510101 0.270575
C28   C     C_R   0.508090 0.310279 0.492716 0.889419
C29   C     C_R   0.491588 0.765920 0.508988 -0.097947
C30   C     C_R   0.427049 0.805600 0.521696 0.078589
C31   C     C_R   0.424112 0.878501 0.521900 -0.217156
C32   C     C_R   0.310708 0.507526 0.507795 0.787421
C33   C     C_R   0.689606 0.493137 0.491358 0.852759
C34   C     C_R   0.804119 0.441124 0.443039 -0.251504
C35   C     C_R   0.766238 0.495528 0.483520 -0.026858
C36   C     C_R   0.801419 0.553231 0.513145 0.001888
C37   C     C_R   0.874358 0.554972 0.502384 -0.069115
C38   C     C_2   0.622215 0.761534 0.479044 0.929886
C39   C     C_2   0.647773 0.229553 0.490324 0.940439
C40   C     C_2   0.911847 0.616926 0.528781 0.914354
C41   C     C_R   0.121454 0.527871 0.454031 -0.141430
C42   C     C_R   0.193757 0.532447 0.454489 -0.231764
C43   C     C_R   0.088465 0.498072 0.508605 0.328054
C44   C     C_R   0.234090 0.506988 0.509005 0.001962
C45   C     C_R   0.200897 0.478184 0.563693 -0.207728
H1    H     H_    0.218167 0.554894 0.411754 0.171095
H2    H     H_    0.091434 0.548306 0.411623 0.174117
H3    H     H_    0.409782 0.099189 0.498444 0.153755
H4    H     H_    0.374701 0.909277 0.531069 0.141601
H5    H     H_    0.904194 0.399664 0.402161 0.163629
H6    H     H_    0.778278 0.396851 0.419421 0.187184
H7    H     H_    0.230792 0.458593 0.606617 0.168683
H8    H     H_    0.103722 0.452771 0.606584 0.151093
H9    H     H_    0.439018 0.591144 0.228124 0.169138
H10   H     H_    0.511229 0.676761 0.788624 0.179676
H11   H     H_    0.595649 0.644463 0.790884 0.198302
H12   H     H_    0.440211 0.584067 0.100479 0.153322
H13   H     H_    0.727279 0.764669 0.476608 0.344095
H14   H     H_    0.702101 0.310683 0.527223 0.337746
H15   H     H_    0.321075 0.807640 0.539313 0.186715
H16   H     H_    0.370608 0.750811 0.583127 0.165865
H17   H     H_    0.359461 0.225046 0.543258 0.197168
H18   H     H_    0.356893 0.216587 0.455008 0.181164
H19   H     H_    0.984187 0.684055 0.510102 0.348866
H20   H     H_    0.771441 0.657211 0.528406 0.206604
H21   H     H_    0.778251 0.614840 0.602791 0.234574
H22   H     H_    0.534249 0.625621 0.909766 0.146887
H23   H     H_    0.540819 0.382365 0.221158 0.168637
H24   H     H_    0.463107 0.417652 0.897750 0.159181
H25   H     H_    0.541021 0.375145 0.093452 0.148010
H26   H     H_    0.469699 0.410315 0.771308 0.177758
H27   H     H_    0.595440 0.898915 0.489092 0.200319
H28   H     H_    0.634133 0.092140 0.485060 0.183876
N1    N     N_2   0.984811 0.495510 0.454931 -0.165818
N2    N     N_3   0.762148 0.611185 0.550764 -0.387693
N3    N     N_2   0.014914 0.495198 0.512426 -0.176572
N4    N     N_2   0.496032 0.529454 0.987298 -0.192336
N5    N     N_2   0.495682 0.472554 0.013691 -0.199702
N6    N     N_2   0.531071 0.013184 0.493540 -0.178369
N7    N     N_2   0.476538 0.986430 0.509024 -0.185260
N8    N     N_3   0.545835 0.633574 0.772873 -0.425652
N9    N     N_3   0.364733 0.771424 0.534732 -0.428624
N10   N     N_3   0.385378 0.235748 0.497977 -0.441815
O1    O     O_3   0.500000 0.500000 0.500000 -0.493438
O2    O     O_R   0.340900 0.545940 0.467290 -0.642879
O3    O     O_R   0.655960 0.450920 0.450930 -0.640958
O4    O     O_R   0.347180 0.467040 0.545670 -0.646907
O5    O     O_R   0.655970 0.536100 0.536110 -0.601681
O6    O     O_2   0.625727 0.702240 0.449883 -0.638705
O7    O     O_R   0.683729 0.794799 0.493157 -0.800386
O8    O     O_2   0.698674 0.200960 0.458059 -0.621044
O9    O     O_R   0.653805 0.293017 0.530538 -0.813578
O10   O     O_2   0.900015 0.645227 0.587504 -0.636954
O11   O     O_R   0.961650 0.642336 0.486346 -0.791033
O12   O     O_R   0.536480 0.656330 0.545680 -0.625104
O13   O     O_R   0.545300 0.340270 0.450920 -0.633105
O14   O     O_R   0.451550 0.536740 0.347440 -0.641677
O15   O     O_R   0.466670 0.466660 0.655960 -0.652645
O16   O     O_R   0.536460 0.451300 0.340640 -0.645654
O17   O     O_R   0.545320 0.545300 0.655970 -0.618791
O18   O     O_R   0.451560 0.656600 0.467300 -0.617990
O19   O     O_R   0.466660 0.346810 0.536100 -0.620409
Zn1   Zn    Zn3+2 0.558430 0.558420 0.558430 1.030721
Zn2   Zn    Zn3+2 0.437090 0.558800 0.446440 0.994128
Zn3   Zn    Zn3+2 0.446060 0.446060 0.558420 0.984675
Zn4   Zn    Zn3+2 0.558420 0.436720 0.436720 1.009064

loop_
_geom_bond_atom_site_label_1
_geom_bond_atom_site_label_2
_ccdc_geom_bond_type
C6    H24   S    
H17   N10   S    
C12   N1    S    
C41   C42   A    
C35   C36   A    
C40   O10   D    
C1    O16   A    
H11   N8    S    
N4    N5    D    
C12   C23   A    
C34   H6    S    
O15   Zn3   S    
N1    N3    D    
C18   C24   A    
C36   C37   A    
C33   O5    A    
C18   C19   A    
C37   C40   S    
C4    O15   A    
H16   N9    S    
C30   C31   A    
C11   C14   A    
C15   H23   S    
C24   C39   S    
O19   Zn3   S    
C34   C35   A    
C42   H1    S    
C12   C37   A    
H15   N9    S    
C19   C20   A    
C8    C9    A    
O1    Zn4   S    
H10   N8    S    
C7    N4    S    
C17   H25   S    
C21   C22   A    
C41   C43   A    
O3    Zn4   S    
C42   C44   A    
C31   H4    S    
C19   N10   S    
C39   O8    D    
O12   Zn1   S    
C2    C45   A    
C41   H2    S    
C27   C31   A    
C7    C8    A    
C10   H12   S    
C18   C28   S    
C27   N7    S    
C1    O14   A    
H21   N2    S    
C26   C38   S    
C23   H5    S    
C45   H7    S    
C16   C29   S    
C32   O4    A    
C2    H8    S    
O17   Zn1   S    
H18   N10   S    
C30   N9    S    
C33   O3    A    
C29   C30   A    
C3    C9    A    
C36   N2    S    
O4    Zn3   S    
C2    C43   A    
C23   C34   A    
C21   N6    S    
O1    Zn3   S    
C32   C44   S    
C25   H27   S    
H13   O7    S    
C20   H3    S    
O2    Zn2   S    
C26   C29   A    
C11   H9    S    
O18   Zn2   S    
C4    O17   A    
O1    Zn2   S    
C22   C24   A    
C3    C4    S    
C39   O9    S    
O5    Zn1   S    
C44   C45   A    
C43   N3    S    
C15   C17   A    
O16   Zn4   S    
O13   Zn4   S    
C13   N5    S    
C16   O12   A    
C40   O11   S    
C3    C5    A    
C10   C13   A    
C6    C7    A    
C25   C27   A    
C38   O7    S    
H20   N2    S    
C13   C17   A    
C28   O13   A    
C38   O6    D    
C25   C26   A    
H19   O11   S    
C5    H26   S    
C5    C6    A    
C32   O2    A    
C33   C35   S    
H14   O9    S    
O14   Zn2   S    
C10   C11   A    
N6    N7    D    
C28   O19   A    
C16   O18   A    
C20   C21   A    
C8    H22   S    
O1    Zn1   S    
C14   C15   A    
C1    C14   S    
C22   H28   S    
C9    N8    S    
