data_mof_unit_51054.cif
_audit_creation_date              2012-10-26T20:01:53-0400
_audit_creation_method            fapswitch 2.2
_symmetry_space_group_name_H-M    P1
_symmetry_Int_Tables_number       1
_space_group_crystal_system       triclinic
_cell_length_a                    11.67004
_cell_length_b                    10.981289
_cell_length_c                    9.633854
_cell_angle_alpha                 91.017413
_cell_angle_beta                  88.528283
_cell_angle_gamma                 91.242884
_cell_volume                      1233.71809251

loop_
_atom_site_label
_atom_site_type_symbol
_atom_type_description
_atom_site_fract_x
_atom_site_fract_y
_atom_site_fract_z
_atom_type_partial_charge
Br1   Br    Br    0.666327 0.145074 0.278103 -0.278916
Br2   Br    Br    0.853582 0.816188 0.844367 -0.367402
Br3   Br    Br    0.241268 0.240802 0.632530 -0.450242
Br4   Br    Br    0.263572 0.742471 0.695816 -0.447031
Br5   Br    Br    0.682113 0.852897 0.304167 -0.402580
Br6   Br    Br    0.310285 0.326457 0.158382 -0.406580
Br7   Br    Br    0.786499 0.421942 0.144289 -0.369449
C1    C     C_R   0.497125 0.262557 0.499204 0.605395
C2    C     C_R   0.492462 0.871415 0.506615 -0.010908
C3    C     C_R   0.702186 0.568504 0.120645 0.177475
C4    C     C_R   0.284302 0.501907 0.500905 0.616375
C5    C     C_R   0.774184 0.657989 0.062297 -0.033895
C6    C     C_R   0.749533 0.703567 0.933031 0.134944
C7    C     C_R   0.657806 0.652803 0.860345 -0.062972
C8    C     C_R   0.580289 0.569471 0.924926 0.100139
C9    C     C_R   0.590538 0.552456 0.070234 0.137826
C10   C     C_R   0.419731 0.436144 0.073261 0.269212
C11   C     C_R   0.421903 0.434572 0.925867 0.060535
C12   C     C_R   0.316426 0.075464 0.821245 -0.075375
C13   C     C_R   0.496241 0.737371 0.502004 0.584530
C14   C     C_R   0.715724 0.500931 0.498740 0.571125
C15   C     C_1   0.162371 0.503629 0.501994 0.110108
C16   C     C_1   0.059830 0.504155 0.500520 0.063757
C17   C     C_1   0.940076 0.503703 0.497956 0.048983
C18   C     C_1   0.837506 0.502614 0.496860 0.070783
C19   C     C_R   0.348826 0.128185 0.696026 0.169673
C20   C     C_R   0.324923 0.951056 0.834036 -0.068461
C21   C     C_R   0.360906 0.881558 0.719155 0.183051
C22   C     C_R   0.425730 0.937038 0.608421 -0.015845
C23   C     C_R   0.422668 0.065982 0.600946 -0.011329
C24   C     C_R   0.489910 0.128429 0.498479 -0.004326
C25   C     C_R   0.561707 0.062635 0.406115 0.168617
C26   C     C_R   0.564451 0.935747 0.412041 0.157074
Cu1   Cu    Cu3+1 0.499990 0.499990 0.640660 1.036915
Cu2   Cu    Cu3+1 0.500010 0.500010 0.359340 1.123380
H1    H     H_    0.651907 0.679605 0.755157 0.197155
H2    H     H_    0.359482 0.379589 0.870589 0.168971
H3    H     H_    0.265099 0.125394 0.897241 0.185815
H4    H     H_    0.280827 0.908010 0.921162 0.176842
H5    H     H_    0.857454 0.677407 0.105649 0.191566
N1    N     N_R   0.501070 0.501210 0.147910 -0.229278
N2    N     N_R   0.501110 0.501290 0.852040 -0.257644
O1    O     O_R   0.499990 0.319640 0.618810 -0.495076
O2    O     O_R   0.500000 0.319660 0.381240 -0.427065
O3    O     O_R   0.337190 0.500000 0.618790 -0.455155
O4    O     O_R   0.337200 0.500030 0.381210 -0.469638
O5    O     O_R   0.500000 0.680340 0.618760 -0.514369
O6    O     O_R   0.500010 0.680360 0.381190 -0.473312
O7    O     O_R   0.662800 0.499970 0.618790 -0.520132
O8    O     O_R   0.662810 0.500000 0.381210 -0.463268

loop_
_geom_bond_atom_site_label_1
_geom_bond_atom_site_label_2
_ccdc_geom_bond_type
C5    H5    S    
Br7   C3    S    
C16   C17   S    
C22   C23   A    
C12   H3    S    
C12   C20   A    
C2    C13   S    
C24   C25   A    
Cu1   N2    S    
C1    O1    A    
C2    C22   A    
C25   C26   A    
Cu2   O8    S    
C14   O7    A    
C10   C11   A    
Cu1   O3    S    
C3    C9    A    
C6    C7    A    
C17   C18   T    
C2    C26   A    
Cu2   O2    S    
Cu2   O4    S    
C13   O6    A    
C3    C5    A    
Cu2   O6    S    
C14   O8    A    
Br4   C21   S    
C11   H2    S    
C19   C23   A    
C11   N2    A    
C7    H1    S    
C23   C24   A    
Cu2   N1    S    
C10   N1    A    
C4    O3    A    
C13   O5    A    
Br1   C25   S    
C8    C9    A    
Br6   C10   S    
C5    C6    A    
Cu1   Cu2   S    
C20   C21   A    
C12   C19   A    
Br2   C6    S    
C14   C18   S    
C15   C16   T    
C21   C22   A    
C4    O4    A    
Cu1   O5    S    
C4    C15   S    
C7    C8    A    
C1    C24   S    
C9    N1    A    
Br3   C19   S    
Cu1   O1    S    
C1    O2    A    
C8    N2    A    
C20   H4    S    
Cu1   O7    S    
Br5   C26   S    
