data_mof_unit_10305.cif
_audit_creation_date              2012-12-11T17:01:27-0500
_audit_creation_method            fapswitch 2.2
_symmetry_space_group_name_H-M    P1
_symmetry_Int_Tables_number       1
_space_group_crystal_system       triclinic
_cell_length_a                    15.241576
_cell_length_b                    15.10076
_cell_length_c                    15.06342
_cell_angle_alpha                 108.960326
_cell_angle_beta                  108.094291
_cell_angle_gamma                 110.925824
_cell_volume                      2681.7643445

loop_
_atom_site_label
_atom_site_type_symbol
_atom_type_description
_atom_site_fract_x
_atom_site_fract_y
_atom_site_fract_z
_atom_type_partial_charge
C1    C     C_R   0.996691 0.798438 0.088927 -0.171160
C2    C     C_R   0.216413 0.798582 0.304251 0.462103
C3    C     C_R   0.954993 0.407965 0.223184 -0.133926
C4    C     C_R   0.782083 0.247219 0.688264 -0.122940
C5    C     C_R   0.303942 0.592896 0.007152 -0.164471
C6    C     C_R   0.033093 0.496632 0.322426 0.082946
C7    C     C_R   0.309755 0.504381 0.953886 0.078013
C8    C     C_R   0.314908 0.849192 0.310706 -0.079745
C9    C     C_R   0.031969 0.210655 0.035882 0.067742
C10   C     C_3   0.487236 0.402665 0.888704 -0.622107
C11   C     C_3   0.386582 0.411283 0.865008 0.467911
C12   C     C_R   0.680479 0.210909 0.676888 0.073150
C13   C     C_3   0.566722 0.504485 0.093007 0.689215
C14   C     C_3   0.591529 0.606133 0.984852 -0.433800
C15   C     C_3   0.583717 0.503944 0.994822 0.173899
C16   C     C_R   0.091363 0.590888 0.788667 0.162817
C17   C     C_3   0.409920 0.507849 0.966849 0.105612
C18   C     C_3   0.454200 0.493440 0.066025 -0.634077
C19   C     C_3   0.495568 0.617207 0.984173 0.072603
C20   C     C_R   0.596582 0.057689 0.501964 -0.106761
C21   C     C_R   0.586743 0.133148 0.575366 -0.050740
C22   C     C_R   0.485705 0.124172 0.550980 0.172915
C23   C     C_R   0.066207 0.502936 0.697755 0.015246
C24   C     C_R   0.396417 0.035572 0.455329 -0.229558
C25   C     C_R   0.406279 0.950386 0.396042 0.124969
C26   C     C_R   0.506803 0.964436 0.417521 0.057832
C27   C     C_3   0.549976 0.891607 0.428523 -0.626036
C28   C     C_R   0.688222 0.409166 0.970129 -0.173333
C29   C     C_3   0.652497 0.995155 0.520309 0.486023
C30   C     C_R   0.149860 0.590967 0.517995 0.049098
C31   C     C_R   0.077703 0.494851 0.421531 0.091970
C32   C     C_R   0.040735 0.397477 0.425363 -0.210164
C33   C     C_R   0.051282 0.400925 0.522088 -0.175422
C34   C     C_R   0.681050 0.502051 0.005896 0.071399
C35   C     C_R   0.099943 0.501777 0.615516 0.023074
C36   C     C_R   0.166311 0.595081 0.614839 -0.012119
C37   C     C_3   0.204599 0.715935 0.663099 0.515839
C38   C     C_3   0.178347 0.706349 0.554329 -0.688087
C39   C     C_R   0.997086 0.990224 0.098646 0.035210
C40   C     C_R   0.006142 0.411519 0.701880 -0.181103
C41   C     C_R   0.073791 0.968258 0.081890 -0.019287
C42   C     C_R   0.156746 0.047390 0.078901 0.162629
C43   C     C_R   0.149237 0.136386 0.076073 -0.251372
C44   C     C_R   0.058835 0.142816 0.071531 0.033044
C45   C     C_R   0.060672 0.588083 0.310749 -0.192834
C46   C     C_R   0.989481 0.075137 0.093455 -0.033623
C47   C     C_3   0.870629 0.020724 0.057231 -0.042238
C48   C     C_3   0.878716 0.924227 0.061876 -0.035724
C49   C     C_R   0.781794 0.593026 0.062819 -0.117831
C50   C     C_R   0.687164 0.238841 0.777019 -0.118964
C51   C     C_R   0.091385 0.803424 0.002694 -0.181625
C52   C     C_R   0.056488 0.861492 0.058632 0.111596
C53   C     C_3   0.394569 0.935023 0.176500 -0.966338
C54   C     C_3   0.089211 0.825939 0.348053 0.176992
C55   C     C_3   0.097423 0.935757 0.370162 -0.298534
C56   C     C_R   0.214288 0.411275 0.915478 -0.144560
C57   C     C_3   0.992444 0.931760 0.356720 -1.058101
C58   C     C_3   0.280724 0.333636 0.679937 0.173260
C59   C     C_3   0.275333 0.355036 0.586538 -0.233396
C60   C     C_3   0.190372 0.252834 0.478877 -1.048692
C61   C     C_3   0.505876 0.348812 0.136095 -1.052358
C62   C     C_3   0.570440 0.815717 0.084918 -1.059190
C63   C     C_3   0.659268 0.616238 0.283995 0.154046
C64   C     C_3   0.730027 0.736462 0.369462 -0.269486
C65   C     C_3   0.739443 0.753695 0.478339 -0.990392
C66   C     C_3   0.407613 0.136797 0.666908 -0.952371
C67   C     C_R   0.307557 0.792203 0.214280 0.101532
C68   C     C_3   0.266242 0.750027 0.910997 -0.880124
C69   C     C_3   0.739385 0.049685 0.423650 0.225115
C70   C     C_3   0.833884 0.058160 0.404210 -0.267134
C71   C     C_3   0.837892 0.098541 0.324025 -1.102904
C72   C     C_3   0.389012 0.764630 0.712934 0.240657
C73   C     C_3   0.432008 0.711879 0.771982 -0.328188
C74   C     C_3   0.505532 0.681673 0.736367 -0.993687
C75   C     C_3   0.249837 0.022189 0.977301 -0.946903
C76   C     C_3   0.703904 0.994965 0.931140 -0.908687
C77   C     C_3   0.839003 0.811278 0.870935 -0.802598
C78   C     C_R   0.962185 0.240909 0.054702 -0.131307
C79   C     C_R   0.056878 0.242613 0.966349 -0.139497
H1    H     H_    0.966647 0.822502 0.142615 0.108055
H2    H     H_    0.323062 0.332779 0.848325 -0.005015
H3    H     H_    0.763102 0.768652 0.794887 0.234928
H4    H     H_    0.393727 0.413014 0.047661 0.179066
H5    H     H_    0.665927 0.682685 0.050586 0.179664
H6    H     H_    0.593563 0.597862 0.909579 0.162919
H7    H     H_    0.459284 0.628416 0.915327 0.164625
H8    H     H_    0.458092 0.553907 0.135377 0.184204
H9    H     H_    0.318978 0.028841 0.433875 0.157856
H10   H     H_    0.508422 0.837588 0.455460 0.173839
H11   H     H_    0.558087 0.849055 0.358820 0.191709
H12   H     H_    0.671036 0.997513 0.598829 0.065038
H13   H     H_    0.187539 0.327569 0.864221 0.076856
H14   H     H_    0.993185 0.319189 0.353160 0.132221
H15   H     H_    0.009780 0.324284 0.518784 0.136519
H16   H     H_    0.152507 0.741152 0.687825 0.059047
H17   H     H_    0.106696 0.713810 0.521254 0.179967
H18   H     H_    0.626847 0.325856 0.936140 0.114944
H19   H     H_    0.247049 0.756126 0.547212 0.220955
H20   H     H_    0.208839 0.194836 0.068546 0.138383
H21   H     H_    0.852783 0.062897 0.118939 0.118216
H22   H     H_    0.863395 0.911825 0.125684 0.080338
H23   H     H_    0.984659 0.328908 0.653271 0.104985
H24   H     H_    0.920997 0.218904 0.096708 0.103363
H25   H     H_    0.808264 0.677093 0.112303 0.098991
H26   H     H_    0.622727 0.214474 0.795397 0.126499
H27   H     H_    0.153703 0.836506 0.984654 0.158345
H28   H     H_    0.122590 0.668676 0.369295 0.174052
H29   H     H_    0.447190 0.832647 0.204610 0.181305
H30   H     H_    0.424828 0.943853 0.119991 0.260848
H31   H     H_    0.455625 0.005998 0.256966 0.252010
H32   H     H_    0.318609 0.935732 0.152292 0.269882
H33   H     H_    0.054178 0.796567 0.394453 0.132052
H34   H     H_    0.032686 0.764992 0.262842 0.092638
H35   H     H_    0.105719 0.226903 0.931915 0.099233
H36   H     H_    0.160478 0.998487 0.453685 0.206101
H37   H     H_    0.120608 0.960892 0.315534 0.185228
H38   H     H_    0.923408 0.862094 0.278914 0.262014
H39   H     H_    0.998001 0.008228 0.360388 0.284299
H40   H     H_    0.978200 0.924367 0.422591 0.270840
H41   H     H_    0.201292 0.306371 0.677244 0.101138
H42   H     H_    0.300573 0.268195 0.671280 0.104514
H43   H     H_    0.256510 0.420862 0.594139 0.215525
H44   H     H_    0.354785 0.382716 0.589495 0.193928
H45   H     H_    0.211537 0.188304 0.467521 0.267443
H46   H     H_    0.905618 0.326782 0.206436 0.084803
H47   H     H_    0.185800 0.271975 0.412933 0.277897
H48   H     H_    0.110500 0.222285 0.474824 0.272019
H49   H     H_    0.651969 0.429145 0.140892 0.169617
H50   H     H_    0.541500 0.305045 0.166130 0.268677
H51   H     H_    0.426706 0.286073 0.064319 0.264412
H52   H     H_    0.495731 0.399291 0.199822 0.256511
H53   H     H_    0.575841 0.717617 0.154267 0.228748
H54   H     H_    0.598927 0.881465 0.165227 0.262195
H55   H     H_    0.504161 0.815268 0.027003 0.268779
H56   H     H_    0.637566 0.833182 0.066040 0.273634
H57   H     H_    0.358212 0.676435 0.037637 0.154190
H58   H     H_    0.697988 0.571559 0.307234 0.127251
H59   H     H_    0.580468 0.584984 0.281996 0.105877
H60   H     H_    0.811306 0.767963 0.376767 0.201301
H61   H     H_    0.695477 0.783485 0.344915 0.206690
H62   H     H_    0.659189 0.725384 0.473452 0.263757
H63   H     H_    0.791910 0.841721 0.538200 0.287085
H64   H     H_    0.775111 0.708595 0.505499 0.257720
H65   H     H_    0.441595 0.236802 0.600635 0.164448
H66   H     H_    0.410056 0.195798 0.735117 0.238618
H67   H     H_    0.439267 0.089129 0.694059 0.264724
H68   H     H_    0.471769 0.328820 0.896920 0.150398
H69   H     H_    0.322612 0.080965 0.603859 0.255588
H70   H     H_    0.124565 0.746343 0.828768 0.142733
H71   H     H_    0.315466 0.834362 0.928776 0.270220
H72   H     H_    0.305385 0.703679 0.888551 0.250854
H73   H     H_    0.259733 0.751677 0.982075 0.266090
H74   H     H_    0.745822 0.130555 0.450922 0.092905
H75   H     H_    0.664033 0.989884 0.346739 0.099259
H76   H     H_    0.909990 0.115540 0.481304 0.195759
H77   H     H_    0.826325 0.976802 0.372919 0.213750
H78   H     H_    0.767310 0.038064 0.243639 0.283586
H79   H     H_    0.504873 0.393271 0.820805 0.218420
H80   H     H_    0.911531 0.111281 0.317584 0.271896
H81   H     H_    0.838952 0.176803 0.350506 0.273512
H82   H     H_    0.457211 0.843512 0.736955 0.111796
H83   H     H_    0.357196 0.713002 0.626120 0.092921
H84   H     H_    0.477827 0.769960 0.859039 0.205551
H85   H     H_    0.364299 0.637114 0.755929 0.214325
H86   H     H_    0.460412 0.621159 0.649545 0.260107
H87   H     H_    0.537033 0.645191 0.781468 0.278002
H88   H     H_    0.574346 0.755083 0.751847 0.276319
H89   H     H_    0.316837 0.099046 0.142299 0.179345
H90   H     H_    0.805257 0.236485 0.626668 0.117201
H91   H     H_    0.314529 0.004340 0.977940 0.261798
H92   H     H_    0.268062 0.096986 0.970499 0.246627
H93   H     H_    0.172632 0.953017 0.906223 0.255315
H94   H     H_    0.839746 0.026375 0.911002 0.190893
H95   H     H_    0.654116 0.964199 0.844603 0.237597
H96   H     H_    0.721169 0.078873 0.977273 0.237154
H97   H     H_    0.658270 0.941110 0.955708 0.263695
H98   H     H_    0.781956 0.752951 0.962478 0.159998
H99   H     H_    0.877208 0.760958 0.863907 0.232953
H100  H     H_    0.892747 0.890591 0.881261 0.241747
N1    N     N_R   0.995640 0.706130 0.053910 -0.046835
N2    N     N_R   0.054010 0.556790 0.847890 -0.057850
N3    N     N_R   0.789940 0.443190 0.997130 -0.036795
N4    N     N_R   0.997630 0.443170 0.791110 -0.049264
N5    N     N_R   0.846320 0.556810 0.053910 -0.046745
N6    N     N_R   0.791080 0.293860 0.847890 -0.048072
N7    N     N_R   0.052880 0.706130 0.997130 -0.040957
N8    N     N_R   0.002370 0.556830 0.208890 -0.049913
N9    N     N_2   0.377285 0.833801 0.175300 -0.112435
N10   N     N_2   0.574737 0.414677 0.106938 -0.129986
N11   N     N_2   0.531733 0.712526 0.083627 -0.116796
N12   N     N_R   0.153680 0.443190 0.946090 -0.033398
N13   N     N_2   0.470767 0.193218 0.627405 -0.112266
N14   N     N_2   0.160692 0.700404 0.824116 -0.124480
N15   N     N_2   0.244791 0.037157 0.075267 -0.124800
N16   N     N_2   0.802800 0.995210 0.949309 -0.073061
N17   N     N_2   0.814690 0.823372 0.958624 -0.080523
N18   N     N_R   0.208920 0.706140 0.152110 -0.088256
N19   N     N_R   0.947120 0.293870 0.002870 -0.042208
N20   N     N_R   0.004360 0.293870 0.946090 -0.039891
N21   N     N_R   0.151690 0.706140 0.208890 -0.118578
N22   N     N_R   0.945990 0.443210 0.152110 -0.036566
N23   N     N_R   0.210060 0.556810 0.002870 -0.037386
N24   N     N_R   0.848310 0.293860 0.791110 -0.043566
Ni1   Ni    Ni4+2 0.999010 0.630300 0.130220 0.194631
Ni2   Ni    Ni4+2 0.000990 0.369700 0.869780 0.217021
Ni3   Ni    Ni4+2 0.130280 0.630280 0.000000 0.205337
Ni4   Ni    Ni4+2 0.869720 0.369720 0.000000 0.208362
O1    O     O_3   0.192981 0.839632 0.385287 -0.689845
O2    O     O_3   0.359337 0.431080 0.777026 -0.666552
O3    O     O_3   0.650577 0.607290 0.184724 -0.698270
O4    O     O_3   0.743271 0.017702 0.502950 -0.659175
O5    O     O_3   0.315538 0.786841 0.741945 -0.642687

loop_
_geom_bond_atom_site_label_1
_geom_bond_atom_site_label_2
_ccdc_geom_bond_type
C53   H31   S    
C28   H18   S    
C5    H57   S    
C18   H4    S    
N5    Ni1   S    
H98   N17   S    
C27   C29   S    
C41   C42   A    
N6    Ni4   S    
C35   C36   A    
C14   H5    S    
C38   H19   S    
C3    C6    A    
C33   H15   S    
C49   H25   S    
C62   N11   S    
C11   H2    S    
C71   H81   S    
N24   Ni2   S    
C37   H16   S    
C26   C27   S    
C77   H100  S    
C20   C26   A    
C13   C18   S    
C70   H77   S    
C62   H54   S    
C47   N16   S    
C36   C37   S    
C6    C45   A    
C77   N17   S    
C43   H20   S    
H49   N10   S    
C73   H85   S    
C10   C15   S    
N12   Ni2   S    
C30   C31   A    
C65   H64   S    
C1    N1    A    
C55   H37   S    
C23   C40   A    
C54   H34   S    
N20   Ni2   S    
C13   N10   S    
C30   C38   S    
C27   H11   S    
C42   N15   S    
N3    Ni4   S    
C9    C79   A    
C60   H47   S    
C60   H45   S    
C28   N3    A    
C66   H66   S    
C6    C31   S    
C16   N14   S    
H70   N14   S    
C46   C47   S    
C47   C48   S    
C7    C17   S    
C66   N13   S    
H94   N16   S    
C50   H26   S    
C72   H82   S    
N19   N20   A    
C69   O4    S    
N12   N23   A    
C4    C12   A    
C10   H79   S    
C41   C52   S    
C66   H69   S    
C61   H50   S    
C10   H68   S    
C57   H40   S    
C40   N4    A    
C53   H32   S    
C59   H43   S    
C32   H14   S    
N19   Ni4   S    
C56   N12   A    
C28   C34   A    
C59   C60   S    
H89   N15   S    
C21   C22   A    
C48   N17   S    
C61   N10   S    
C8    C25   S    
C63   H58   S    
N18   Ni3   S    
C7    C56   A    
C14   C19   S    
C74   H88   S    
C44   C46   A    
C29   O4    S    
C20   C29   S    
N2    N4    A    
C73   C74   S    
C59   H44   S    
C71   H78   S    
C79   N20   A    
C4    H90   S    
N7    Ni3   S    
C51   C52   A    
C76   H97   S    
C24   C25   A    
C39   C41   A    
C5    N23   A    
C5    C7    A    
C16   N2    A    
C45   N8    A    
C4    N24   A    
H65   N13   S    
C67   N18   A    
C25   C26   A    
N8    Ni1   S    
C69   H74   S    
C47   H21   S    
C70   H76   S    
C62   H56   S    
N18   N21   A    
C43   C44   A    
C37   O5    S    
C37   C38   S    
C68   H73   S    
C76   N16   S    
C49   N5    A    
C65   H62   S    
C31   C32   A    
N21   Ni1   S    
C58   H42   S    
C75   H91   S    
C58   H41   S    
C17   C18   S    
N22   Ni4   S    
C54   H33   S    
C24   H9    S    
C68   N14   S    
N1    N7    A    
C61   H51   S    
C39   C46   A    
C16   C23   A    
C23   C35   S    
C55   C57   S    
C75   H92   S    
N4    Ni2   S    
C63   H59   S    
C2    N21   A    
C2    O1    S    
C42   C43   A    
C63   O3    S    
C22   N13   S    
H53   N11   S    
C74   H87   S    
C70   C71   S    
C67   N9    S    
C57   H38   S    
C64   H61   S    
C58   O2    S    
C53   H30   S    
C76   H96   S    
C54   C55   S    
C11   C17   S    
C34   C49   A    
C15   C34   S    
C78   H24   S    
C13   O3    S    
H29   N9    S    
C60   H48   S    
C2    C8    A    
C77   H99   S    
C14   H6    S    
C72   C73   S    
N1    Ni1   S    
C12   C50   A    
C3    H46   S    
C71   H80   S    
N8    N22   A    
C54   O1    S    
C18   H8    S    
C30   C36   A    
C32   C33   A    
C62   H55   S    
C13   C15   S    
N2    Ni3   S    
C58   C59   S    
C73   H84   S    
C51   N7    A    
C64   C65   S    
C53   N9    S    
C65   H63   S    
C33   C35   A    
N6    N24   A    
C72   O5    S    
C55   H36   S    
C77   H3    S    
C51   H27   S    
C3    N22   A    
C48   H22   S    
C12   C21   S    
C76   H95   S    
C17   C19   S    
C27   H10   S    
C22   C24   A    
C9    C78   A    
C69   C70   S    
C1    C52   A    
N3    N5    A    
C19   H7    S    
C66   H67   S    
C68   H71   S    
C10   C11   S    
C61   H52   S    
C19   N11   S    
C40   H23   S    
C63   C64   S    
C75   N15   S    
C56   H13   S    
C20   C21   A    
C8    C67   A    
N23   Ni3   S    
C79   H35   S    
C38   H17   S    
C75   H93   S    
C68   H72   S    
C1    H1    S    
C72   H83   S    
C14   C15   S    
C57   H39   S    
C69   H75   S    
C78   N19   A    
C50   N6    A    
C64   H60   S    
C74   H86   S    
C11   O2    S    
C9    C44   S    
C45   H28   S    
C39   C48   S    
C29   H12   S    
