data_mof_unit_17533.cif
_audit_creation_date              2012-12-10T19:53:45-0500
_audit_creation_method            fapswitch 2.2
_symmetry_space_group_name_H-M    P1
_symmetry_Int_Tables_number       1
_space_group_crystal_system       triclinic
_cell_length_a                    15.005279
_cell_length_b                    14.213837
_cell_length_c                    10.488525
_cell_angle_alpha                 90.096693
_cell_angle_beta                  90.379362
_cell_angle_gamma                 90.064155
_cell_volume                      2236.9661253

loop_
_atom_site_label
_atom_site_type_symbol
_atom_type_description
_atom_site_fract_x
_atom_site_fract_y
_atom_site_fract_z
_atom_type_partial_charge
C1    C     C_R   0.327775 0.499913 0.500157 0.837862
C2    C     C_R   0.435089 0.795899 0.435390 0.534587
C3    C     C_R   0.500832 0.053205 0.501526 0.078614
C4    C     C_R   0.500432 0.946687 0.502314 0.086034
C5    C     C_R   0.500669 0.499725 0.257259 0.853173
C6    C     C_R   0.499908 0.500144 0.742738 0.855850
C7    C     C_3   0.421673 0.530341 0.042174 -0.198271
C8    C     C_3   0.579888 0.468507 0.957656 -0.188975
C9    C     C_3   0.486606 0.588083 0.959930 -0.168575
C10   C     C_3   0.514884 0.410915 0.040174 -0.107821
C11   C     C_3   0.435211 0.442844 0.957335 -0.148498
C12   C     C_R   0.672071 0.499974 0.500509 0.843806
C13   C     C_3   0.566381 0.556125 0.042609 -0.194113
C14   C     C_3   0.500179 0.500439 0.877679 0.037145
C15   C     C_3   0.501285 0.498720 0.122295 0.030207
C16   C     C_R   0.093259 0.580698 0.469531 -0.189836
C17   C     C_R   0.905285 0.422085 0.452803 -0.179570
C18   C     C_R   0.905769 0.575090 0.557441 -0.191370
C19   C     C_R   0.094462 0.417303 0.538320 -0.178124
C20   C     C_R   0.185189 0.581283 0.469054 -0.202363
C21   C     C_R   0.813313 0.422294 0.452096 -0.215351
C22   C     C_R   0.813808 0.575947 0.554860 -0.191781
C23   C     C_R   0.463705 0.104179 0.399384 -0.368134
C24   C     C_R   0.186416 0.417458 0.535980 -0.210627
C25   C     C_R   0.231866 0.499533 0.501513 -0.030894
C26   C     C_R   0.767703 0.499573 0.502219 -0.027862
C27   C     C_R   0.047831 0.498843 0.504695 0.122327
C28   C     C_R   0.951575 0.498487 0.505495 0.120181
C29   C     C_3   0.332692 0.260149 0.312334 0.139536
C30   C     C_3   0.284290 0.198820 0.213907 -0.395293
C31   C     C_3   0.183788 0.214969 0.217845 -0.959105
C32   C     C_3   0.628798 0.758836 0.760221 0.077709
C33   C     C_3   0.716687 0.801971 0.806527 -0.367716
C34   C     C_R   0.567628 0.894705 0.564070 -0.384027
C35   C     C_3   0.717919 0.813432 0.951226 -0.959223
C36   C     C_3   0.668950 0.241873 0.708470 0.088074
C37   C     C_3   0.692727 0.209843 0.843519 -0.356287
C38   C     C_3   0.793335 0.200649 0.861371 -0.968707
C39   C     C_3   0.364910 0.763982 0.244698 0.068619
C40   C     C_3   0.275670 0.730225 0.190364 -0.339730
C41   C     C_3   0.268060 0.749742 0.047636 -0.973580
C42   C     C_R   0.538366 0.105570 0.602311 -0.389895
C43   C     C_R   0.432472 0.895389 0.440972 -0.396464
C44   C     C_R   0.461724 0.203371 0.401332 0.527542
C45   C     C_R   0.564923 0.795168 0.565876 0.547287
C46   C     C_R   0.539936 0.205085 0.598467 0.541291
H1    H     H_    0.381823 0.396908 0.917873 0.137115
H2    H     H_    0.059828 0.354038 0.567399 0.128603
H3    H     H_    0.219470 0.645201 0.442340 0.193112
H4    H     H_    0.777955 0.363078 0.410571 0.150065
H5    H     H_    0.778884 0.635375 0.595350 0.187099
H6    H     H_    0.221764 0.354029 0.562801 0.146281
H7    H     H_    0.437123 0.067698 0.316934 0.159155
H8    H     H_    0.622679 0.930584 0.610025 0.159244
H9    H     H_    0.565803 0.070171 0.684900 0.161921
H10   H     H_    0.376411 0.932024 0.398857 0.160244
H11   H     H_    0.315379 0.334761 0.292905 0.173744
H12   H     H_    0.619672 0.602013 0.082349 0.135230
H13   H     H_    0.307599 0.243718 0.409986 0.110240
H14   H     H_    0.309002 0.215872 0.116943 0.234019
H15   H     H_    0.298026 0.123447 0.233377 0.212348
H16   H     H_    0.157442 0.197235 0.313600 0.262593
H17   H     H_    0.150405 0.169410 0.145866 0.267332
H18   H     H_    0.168031 0.289580 0.195852 0.265680
H19   H     H_    0.621503 0.688726 0.805458 0.174532
H20   H     H_    0.571718 0.802639 0.793896 0.111374
H21   H     H_    0.772923 0.755850 0.777980 0.222987
H22   H     H_    0.726398 0.871958 0.761845 0.215773
H23   H     H_    0.356972 0.553597 0.081326 0.139311
H24   H     H_    0.662961 0.860426 0.981970 0.262235
H25   H     H_    0.782308 0.845039 0.981833 0.268323
H26   H     H_    0.710552 0.743920 0.998229 0.259774
H27   H     H_    0.701782 0.310643 0.690415 0.172200
H28   H     H_    0.696900 0.190748 0.638217 0.108937
H29   H     H_    0.666811 0.261639 0.913571 0.228046
H30   H     H_    0.660885 0.140692 0.862505 0.217268
H31   H     H_    0.820455 0.147674 0.794033 0.263704
H32   H     H_    0.808300 0.177538 0.960287 0.267579
H33   H     H_    0.826436 0.269473 0.844845 0.265134
H34   H     H_    0.644132 0.443677 0.917951 0.134639
H35   H     H_    0.419947 0.724700 0.198155 0.164272
H36   H     H_    0.371912 0.839937 0.220994 0.119755
H37   H     H_    0.268139 0.653573 0.207699 0.214553
H38   H     H_    0.220594 0.767122 0.240106 0.222620
H39   H     H_    0.270924 0.826646 0.029427 0.264990
H40   H     H_    0.203468 0.722288 0.011039 0.269261
H41   H     H_    0.322819 0.714712 0.995285 0.262521
H42   H     H_    0.474935 0.660316 0.923446 0.129236
H43   H     H_    0.526472 0.338713 0.076934 0.168537
H44   H     H_    0.057685 0.643721 0.441490 0.133619
H45   H     H_    0.940199 0.363132 0.410770 0.131158
H46   H     H_    0.941072 0.633784 0.600346 0.132536
N1    N     N_R   0.500000 0.252470 0.500000 -0.170320
N2    N     N_R   0.500000 0.747530 0.500000 -0.161318
O1    O     O_R   0.369060 0.579480 0.500010 -0.569241
O2    O     O_3   0.631629 0.744931 0.626483 -0.627920
O3    O     O_3   0.575617 0.255379 0.699417 -0.613736
O4    O     O_3   0.366436 0.746535 0.377464 -0.625031
O5    O     O_R   0.630940 0.420520 0.499990 -0.632275
O6    O     O_R   0.630940 0.579480 0.499990 -0.573199
O7    O     O_R   0.369060 0.420520 0.500010 -0.647832
O8    O     O_R   0.499980 0.579460 0.313950 -0.622911
O9    O     O_R   0.500020 0.420540 0.686050 -0.566266
O10   O     O_R   0.500020 0.579460 0.686050 -0.631782
O11   O     O_R   0.499980 0.420540 0.313950 -0.584099
O12   O     O_3   0.426072 0.250937 0.298415 -0.634452
Zn1   Zn    Zn3+2 0.500000 0.606140 0.500000 0.999289
Zn2   Zn    Zn3+2 0.500000 0.393860 0.500000 0.984541

loop_
_geom_bond_atom_site_label_1
_geom_bond_atom_site_label_2
_ccdc_geom_bond_type
C24   H6    S    
C21   C26   A    
C3    C42   A    
C16   H44   S    
C8    C13   S    
C40   H38   S    
C3    C23   A    
C17   H45   S    
C5    O11   A    
C7    C11   S    
O5    Zn2   S    
C29   C30   S    
C36   C37   S    
C37   C38   S    
C10   C15   S    
N1    Zn2   S    
C30   C31   S    
C11   C14   S    
C38   H33   S    
C42   C46   A    
C10   H43   S    
C9    C13   S    
C12   O5    A    
C44   N1    A    
C11   H1    S    
C29   H13   S    
C35   H24   S    
C30   H14   S    
C36   O3    S    
C6    O10   A    
C19   C27   A    
C16   C20   A    
C16   C27   A    
C7    C15   S    
C37   H29   S    
C35   H25   S    
C1    C25   S    
C40   H37   S    
C45   N2    A    
C21   H4    S    
C23   H7    S    
C41   H41   S    
O11   Zn2   S    
C4    C34   A    
N2    Zn1   S    
C5    C15   S    
C31   H17   S    
C2    N2    A    
C18   C28   A    
C24   C25   A    
C39   H35   S    
C36   H27   S    
C39   C40   S    
C19   H2    S    
C39   O4    S    
C13   H12   S    
C38   H32   S    
C17   C21   A    
C23   C44   A    
C12   C26   S    
C9    C14   S    
C20   H3    S    
C41   H40   S    
C42   H9    S    
C6    C14   S    
C2    C43   A    
C1    O1    A    
O8    Zn1   S    
C34   C45   A    
C6    O9    A    
C31   H16   S    
O9    Zn2   S    
O1    Zn1   S    
C40   C41   S    
C32   O2    S    
C46   O3    S    
C29   H11   S    
C35   H26   S    
C34   H8    S    
C13   C15   S    
C22   C26   A    
C29   O12   S    
C3    C4    S    
C1    O7    A    
C33   H21   S    
C32   H20   S    
C7    C9    S    
C5    O8    A    
C36   H28   S    
O6    Zn1   S    
C8    C14   S    
C18   C22   A    
C17   C28   A    
C31   H18   S    
C37   H30   S    
C39   H36   S    
C7    H23   S    
C38   H31   S    
C44   O12   S    
C41   H39   S    
C18   H46   S    
C32   C33   S    
C19   C24   A    
C9    H42   S    
C46   N1    A    
O7    Zn2   S    
C33   C35   S    
C4    C43   A    
C12   O6    A    
C10   C11   S    
C43   H10   S    
C2    O4    S    
C8    C10   S    
C20   C25   A    
C30   H15   S    
C27   C28   S    
C8    H34   S    
C22   H5    S    
C45   O2    S    
O10   Zn1   S    
C33   H22   S    
C32   H19   S    
