data_mof_unit_28463.cif
_audit_creation_date              2012-10-26T21:20:12-0400
_audit_creation_method            fapswitch 2.2
_symmetry_space_group_name_H-M    P1
_symmetry_Int_Tables_number       1
_space_group_crystal_system       triclinic
_cell_length_a                    13.016998
_cell_length_b                    10.832438
_cell_length_c                    9.519497
_cell_angle_alpha                 90.178797
_cell_angle_beta                  97.119409
_cell_angle_gamma                 90.419013
_cell_volume                      1331.90877678

loop_
_atom_site_label
_atom_site_type_symbol
_atom_type_description
_atom_site_fract_x
_atom_site_fract_y
_atom_site_fract_z
_atom_type_partial_charge
C1    C     C_R   0.499910 0.262077 0.499821 0.549220
C2    C     C_R   0.699715 0.497226 0.527778 0.544181
C3    C     C_R   0.813146 0.491471 0.546047 -0.046694
C4    C     C_R   0.186854 0.508530 0.453953 -0.046692
C5    C     C_R   0.020433 0.560606 0.321553 0.084171
C6    C     C_R   0.979569 0.439405 0.678453 0.084174
C7    C     C_R   0.128880 0.554115 0.329536 -0.015860
C8    C     C_R   0.871122 0.445896 0.670470 -0.015859
C9    C     C_R   0.136297 0.470267 0.567673 -0.125701
C10   C     C_R   0.863703 0.529731 0.432325 -0.125700
C11   C     C_R   0.029123 0.477275 0.561980 0.046573
C12   C     C_R   0.500090 0.737923 0.500179 0.549221
C13   C     C_R   0.970878 0.522726 0.438019 0.046577
C14   C     C_R   0.501455 0.063469 0.372520 -0.132177
C15   C     C_R   0.498544 0.936531 0.627480 -0.132177
C16   C     C_R   0.501533 0.935758 0.372698 -0.134516
C17   C     C_R   0.498466 0.064242 0.627302 -0.134518
C18   C     C_1   0.821240 0.401554 0.788768 0.212707
C19   C     C_1   0.178763 0.598472 0.211247 0.212700
C20   C     C_R   0.500078 0.871774 0.500187 0.021802
C21   C     C_R   0.499922 0.128226 0.499813 0.021802
C22   C     C_R   0.433385 0.425021 0.062640 0.222676
C23   C     C_R   0.566615 0.574979 0.937360 0.222680
C24   C     C_R   0.433728 0.425365 0.913588 0.006355
C25   C     C_R   0.566272 0.574636 0.086412 0.006357
C26   C     C_R   0.300285 0.502774 0.472222 0.544182
Cu1   Cu    Cu3+1 0.500000 0.500020 0.640660 0.998912
Cu2   Cu    Cu3+1 0.500000 0.499980 0.359340 0.998913
H1    H     H_    0.818488 0.565506 0.338220 0.174939
H2    H     H_    0.973759 0.550832 0.110285 0.238968
H3    H     H_    0.026250 0.449224 0.889719 0.238970
H4    H     H_    0.015837 0.303657 0.822409 0.241240
H5    H     H_    0.377744 0.254856 0.095218 0.192726
H6    H     H_    0.288012 0.367395 0.080170 0.222435
H7    H     H_    0.711987 0.632612 0.919835 0.222435
H8    H     H_    0.622251 0.745146 0.904777 0.192726
H9    H     H_    0.181511 0.434487 0.661775 0.174935
H10   H     H_    0.502716 0.111180 0.272918 0.134847
H11   H     H_    0.497284 0.888820 0.727082 0.134846
H12   H     H_    0.502801 0.887426 0.273137 0.132482
H13   H     H_    0.497198 0.112574 0.726862 0.132481
H14   H     H_    0.380890 0.365586 0.847562 0.108542
H15   H     H_    0.619109 0.634415 0.152438 0.108542
H16   H     H_    0.984167 0.696382 0.177640 0.241239
N1    N     N_R   0.500030 0.500030 0.852080 -0.204864
N2    N     N_R   0.499970 0.499970 0.147920 -0.204864
N3    N     N_1   0.781679 0.366013 0.883442 -0.296818
N4    N     N_1   0.218327 0.634024 0.116580 -0.296815
N5    N     N_3   0.960002 0.606240 0.195988 -0.653151
N6    N     N_3   0.040002 0.393794 0.804031 -0.653152
N7    N     N_3   0.363255 0.345635 0.124266 -0.553818
N8    N     N_3   0.636744 0.654366 0.875734 -0.553815
O1    O     O_R   0.499990 0.319660 0.618740 -0.515773
O2    O     O_R   0.500010 0.680340 0.381260 -0.515772
O3    O     O_R   0.499990 0.319630 0.381170 -0.479288
O4    O     O_R   0.500010 0.680370 0.618830 -0.479289
O5    O     O_R   0.349000 0.499990 0.599490 -0.519291
O6    O     O_R   0.651000 0.500010 0.400510 -0.519292
O7    O     O_R   0.348990 0.499960 0.361920 -0.454832
O8    O     O_R   0.651010 0.500040 0.638080 -0.454832

loop_
_geom_bond_atom_site_label_1
_geom_bond_atom_site_label_2
_ccdc_geom_bond_type
H16   N5    S    
C23   N8    S    
C4    C26   S    
Cu1   O1    S    
C1    C21   S    
C23   N1    A    
C2    O6    A    
Cu2   O6    S    
C14   H10   S    
C11   C13   A    
C26   O7    A    
C5    C13   A    
H8    N8    S    
C16   C20   A    
C15   H11   S    
C18   N3    T    
C12   C20   S    
C9    H9    S    
C2    C3    S    
C1    O3    A    
C3    C10   A    
C6    N6    S    
C9    C11   A    
C10   H1    S    
Cu2   N2    S    
H6    N7    S    
C12   O4    A    
C2    O8    A    
C16   H12   S    
C4    C7    A    
C6    C8    A    
C24   N1    A    
C14   C21   A    
C25   H15   S    
C22   N2    A    
Cu2   O3    S    
H4    N6    S    
C22   C24   A    
Cu1   O8    S    
C23   C25   A    
C15   C20   A    
C26   O5    A    
C14   C16   A    
C5    N5    S    
C17   H13   S    
H5    N7    S    
Cu1   N1    S    
C8    C18   S    
H3    N6    S    
C6    C11   A    
C24   H14   S    
C15   C17   A    
C3    C8    A    
Cu1   O5    S    
Cu2   O7    S    
H7    N8    S    
C5    C7    A    
Cu2   O2    S    
C19   N4    T    
C7    C19   S    
C1    O1    A    
C4    C9    A    
Cu1   O4    S    
C25   N2    A    
H2    N5    S    
C12   O2    A    
C22   N7    S    
Cu1   Cu2   S    
C10   C13   A    
C17   C21   A    
