data_mof_unit_25600.cif
_audit_creation_date              2012-12-11T14:21:21-0500
_audit_creation_method            fapswitch 2.2
_symmetry_space_group_name_H-M    P1
_symmetry_Int_Tables_number       1
_space_group_crystal_system       triclinic
_cell_length_a                    11.51284
_cell_length_b                    11.514432
_cell_length_c                    19.539892
_cell_angle_alpha                 90.260309
_cell_angle_beta                  90.204714
_cell_angle_gamma                 60.265637
_cell_volume                      2249.20517564

loop_
_atom_site_label
_atom_site_type_symbol
_atom_type_description
_atom_site_fract_x
_atom_site_fract_y
_atom_site_fract_z
_atom_type_partial_charge
C1    C     C_R   0.640689 0.116985 0.599252 0.541292
C2    C     C_1   0.653687 0.148971 0.668613 0.002788
C3    C     C_R   0.657311 0.697696 0.185050 -0.003245
C4    C     C_R   0.613836 0.743220 0.597927 0.551091
C5    C     C_R   0.523400 0.777123 0.205624 0.008249
C6    C     C_R   0.494946 0.796558 0.276110 0.014434
C7    C     C_R   0.730962 0.718584 0.297569 -0.162906
C8    C     C_R   0.762429 0.669581 0.231912 -0.017873
C9    C     C_R   0.417232 0.820553 0.157996 -0.082168
C10   C     C_R   0.291637 0.848350 0.179555 -0.108463
C11   C     C_R   0.268680 0.844753 0.248801 -0.141056
C12   C     C_1   0.651569 0.683135 0.664116 0.000901
C13   C     C_R   0.364613 0.829590 0.296846 -0.101854
C14   C     C_R   0.600431 0.773600 0.322017 -0.013135
C15   C     C_R   0.139043 0.197930 0.193134 0.000664
C16   C     C_R   0.296600 0.120719 0.605549 0.559168
C17   C     C_R   0.208732 0.257690 0.221367 0.023698
C18   C     C_R   0.205317 0.273627 0.292505 0.029060
C19   C     C_R   0.111949 0.125580 0.305594 -0.171560
C20   C     C_R   0.084477 0.139084 0.236039 -0.144810
C21   C     C_R   0.264938 0.317847 0.180130 -0.053112
C22   C     C_R   0.285812 0.418019 0.206691 -0.085284
C23   C     C_1   0.145092 0.190160 0.863021 0.001070
C24   C     C_R   0.259392 0.452944 0.275203 -0.136133
C25   C     C_R   0.220443 0.381718 0.317964 -0.089822
C26   C     C_R   0.179611 0.185387 0.333997 0.001942
C27   C     C_R   0.673830 0.181338 0.194436 -0.010329
C28   C     C_R   0.648154 0.113798 0.403624 0.537227
C29   C     C_R   0.757725 0.053963 0.223978 0.022413
C30   C     C_R   0.777999 0.046552 0.295001 0.032616
C31   C     C_R   0.589004 0.271594 0.307152 -0.146003
C32   C     C_R   0.593375 0.290067 0.237176 -0.149329
C33   C     C_R   0.834561 0.937486 0.184221 -0.075534
C34   C     C_1   0.224734 0.146216 0.735467 -0.030346
C35   C     C_R   0.948717 0.829990 0.211364 -0.098954
C36   C     C_R   0.977591 0.827882 0.280331 -0.157953
C37   C     C_R   0.895669 0.936327 0.321545 -0.102690
C38   C     C_R   0.678849 0.148897 0.336625 -0.002933
C39   C     C_R   0.083872 0.230312 0.929208 0.532730
C40   C     C_R   0.580505 0.802902 0.395138 0.566711
C41   C     C_R   0.708758 0.546275 0.922693 0.554167
C42   C     C_R   0.708058 0.206848 0.930149 0.537546
C43   C     C_R   0.083980 0.234881 0.124811 0.528853
C44   C     C_R   0.683102 0.614949 0.124274 0.546922
C45   C     C_1   0.185480 0.166073 0.804918 -0.028589
C46   C     C_R   0.706835 0.209255 0.126235 0.531193
C47   C     C_R   0.240785 0.145013 0.402020 0.546959
C48   C     C_1   0.698466 0.581040 0.851829 0.001799
C49   C     C_1   0.672885 0.644510 0.722361 -0.029189
C50   C     C_1   0.688906 0.608648 0.791985 -0.031062
C51   C     C_2   0.905601 0.571814 0.220928 0.241847
C52   C     C_1   0.256225 0.133572 0.675919 0.001363
C53   C     C_1   0.677875 0.191848 0.860761 0.001953
C54   C     C_1   0.658882 0.166889 0.728989 -0.031605
C55   C     C_1   0.665286 0.181208 0.800289 -0.031538
Cr1   Cr    Cr6+3 0.404720 0.198220 0.499960 1.013163
Cr2   Cr    Cr6+3 0.698290 0.897110 0.500380 1.017277
Cr3   Cr    Cr6+3 0.396970 0.904720 0.499610 1.010467
Cr4   Cr    Cr6+3 0.926180 0.151990 0.028120 1.009237
Cr5   Cr    Cr6+3 0.921330 0.451820 0.027470 1.069846
Cr6   Cr    Cr6+3 0.626260 0.446870 0.028710 1.013306
H1    H     H_    0.813033 0.699065 0.331803 0.142939
H2    H     H_    0.929683 0.935122 0.373292 0.139336
H3    H     H_    0.433908 0.822393 0.103584 0.129481
H4    H     H_    0.212585 0.871609 0.142766 0.121136
H5    H     H_    0.171825 0.866277 0.265864 0.113820
H6    H     H_    0.333137 0.840499 0.349121 0.164750
H7    H     H_    0.081100 0.068402 0.337007 0.113502
H8    H     H_    0.283907 0.294516 0.126175 0.121411
H9    H     H_    0.022556 0.100546 0.215607 0.153793
H10   H     H_    0.959496 0.497599 0.259946 0.100107
H11   H     H_    0.318103 0.471573 0.173523 0.113656
H12   H     H_    0.270865 0.534269 0.295521 0.097214
H13   H     H_    0.192957 0.420586 0.369298 0.143081
H14   H     H_    0.517066 0.353388 0.338472 0.135166
H15   H     H_    0.812176 0.932251 0.130825 0.142167
H16   H     H_    0.536091 0.390108 0.216790 0.140862
H17   H     H_    0.018123 0.751074 0.178166 0.171653
H18   H     H_    0.066547 0.744452 0.301531 0.104081
O1    O     O_R   0.267740 0.231960 0.575440 -0.499145
O2    O     O_R   0.596130 0.579390 0.952730 -0.506988
O3    O     O_R   0.639060 0.321160 0.958670 -0.510355
O4    O     O_R   0.527280 0.186640 0.570530 -0.508305
O5    O     O_R   0.821240 0.124200 0.104370 -0.528603
O6    O     O_R   0.036890 0.167040 0.097840 -0.514142
O7    O     O_R   0.056180 0.349610 0.102880 -0.468481
O8    O     O_R   0.797660 0.564870 0.097950 -0.440118
O9    O     O_R   0.595880 0.584250 0.104270 -0.527062
O10   O     O_R   0.638830 0.325670 0.099150 -0.500759
O11   O     O_3   0.824590 0.350230 0.028100 -0.274123
O12   O     O_R   0.685970 0.784660 0.430010 -0.500449
O13   O     O_R   0.728090 0.003450 0.576380 -0.503196
O14   O     O_R   0.682970 0.789190 0.570490 -0.488655
O15   O     O_R   0.499290 0.771880 0.575530 -0.506623
O16   O     O_R   0.285330 0.030870 0.569730 -0.487912
O17   O     O_R   0.270980 0.227080 0.423890 -0.526653
O18   O     O_R   0.530280 0.182120 0.430050 -0.496988
O19   O     O_R   0.731330 0.998570 0.424830 -0.533328
O20   O     O_2   0.966501 0.578131 0.171630 -0.492593
O21   O     O_R   0.502530 0.767000 0.423990 -0.530375
O22   O     O_R   0.288330 0.026350 0.429250 -0.524039
O23   O     O_3   0.499990 0.000020 0.499980 -0.287152
O24   O     O_R   0.821500 0.119340 0.952830 -0.503142
O25   O     O_R   0.037130 0.162530 0.957360 -0.496601
O26   O     O_R   0.056440 0.344740 0.951340 -0.514784
O27   O     O_R   0.797900 0.560360 0.957470 -0.492064

loop_
_geom_bond_atom_site_label_1
_geom_bond_atom_site_label_2
_ccdc_geom_bond_type
C28   O18   A    
C47   O22   A    
Cr2   O13   S    
C27   C29   A    
C9    H3    S    
C19   C20   A    
C42   O3    A    
C42   O24   A    
C12   C49   T    
C39   O25   A    
C46   O10   A    
Cr2   O23   S    
Cr1   O23   S    
C23   C45   T    
Cr4   O25   S    
C36   C37   A    
C25   H13   S    
Cr6   O3    S    
C42   C53   S    
C5    C6    A    
C24   H12   S    
C29   C33   A    
C30   C38   A    
C15   C17   A    
C1    C2    S    
C19   C26   A    
C32   H16   S    
C7    C14   A    
C35   C36   A    
C18   C26   A    
C47   O17   A    
Cr3   O23   S    
C4    C12   S    
C44   O8    A    
C9    C10   A    
C11   H5    S    
C48   C50   T    
Cr2   O14   S    
C21   C22   A    
C20   H9    S    
C18   C25   A    
C51   H10   S    
Cr1   O18   S    
C22   H11   S    
C37   H2    S    
Cr5   O8    S    
Cr6   O10   S    
C53   C55   T    
C51   O20   D    
C15   C20   A    
C3    C44   S    
C41   O27   A    
C43   O6    A    
C7    C8    A    
Cr3   O21   S    
Cr4   O5    S    
C3    C8    A    
C2    C54   T    
Cr3   O22   S    
Cr5   O7    S    
C17   C21   A    
C30   C37   A    
C21   H8    S    
C16   O1    A    
Cr4   O11   S    
Cr3   O16   S    
Cr4   O6    S    
C7    H1    S    
C5    C9    A    
C29   C30   A    
Cr6   O9    S    
C6    C14   A    
C33   H15   S    
C31   H14   S    
C31   C32   A    
C28   C38   S    
C41   O2    A    
C17   C18   A    
C19   H7    S    
C34   C45   S    
C24   C25   A    
C8    C51   S    
C26   C47   S    
C46   O5    A    
C27   C46   S    
C1    O13   A    
C4    O15   A    
Cr5   O27   S    
Cr6   O11   S    
Cr1   O4    S    
C13   H6    S    
C10   H4    S    
C28   O19   A    
C39   O26   A    
C54   C55   S    
C16   O16   A    
Cr2   O12   S    
C27   C32   A    
C43   O7    A    
C16   C52   S    
C3    C5    A    
C36   H18   S    
C40   O21   A    
Cr5   O11   S    
C1    O4    A    
C35   H17   S    
C34   C52   T    
Cr1   O1    S    
C31   C38   A    
Cr4   O24   S    
Cr3   O15   S    
C15   C43   S    
Cr6   O2    S    
C6    C13   A    
C11   C13   A    
C23   C39   S    
Cr2   O19   S    
C33   C35   A    
C41   C48   S    
C22   C24   A    
C40   O12   A    
Cr1   O17   S    
C10   C11   A    
C14   C40   S    
C4    O14   A    
C49   C50   S    
C44   O9    A    
Cr5   O26   S    
