data_mof_unit_62614.cif
_audit_creation_date              2012-10-26T21:26:24-0400
_audit_creation_method            fapswitch 2.2
_symmetry_space_group_name_H-M    P1
_symmetry_Int_Tables_number       1
_space_group_crystal_system       triclinic
_cell_length_a                    15.893859
_cell_length_b                    17.962098
_cell_length_c                    29.292588
_cell_angle_alpha                 90.096085
_cell_angle_beta                  90.252442
_cell_angle_gamma                 89.848131
_cell_volume                      8362.53247947

loop_
_atom_site_label
_atom_site_type_symbol
_atom_type_description
_atom_site_fract_x
_atom_site_fract_y
_atom_site_fract_z
_atom_type_partial_charge
C1    C     C_R   0.500184 0.389998 0.058900 0.565530
C2    C     C_1   0.370804 0.000287 0.767342 0.019357
C3    C     C_1   0.481190 0.876421 0.833042 0.014337
C4    C     C_1   0.483218 0.124080 0.831909 0.005567
C5    C     C_1   0.299395 0.000458 0.753257 0.070846
C6    C     C_1   0.555607 0.994847 0.709486 0.068960
C7    C     C_R   0.592449 0.024173 0.297361 0.391436
C8    C     C_R   0.412771 0.902386 0.320058 0.386957
C9    C     C_R   0.375772 0.018771 0.282919 0.466703
C10   C     C_R   0.625865 0.892254 0.300326 0.465556
C11   C     C_R   0.654277 0.038111 0.330340 0.390403
C12   C     C_R   0.500031 0.610215 0.058765 0.540764
C13   C     C_R   0.352178 0.915930 0.353292 0.390384
C14   C     C_R   0.314901 0.031510 0.316488 0.396999
C15   C     C_R   0.687721 0.907144 0.333035 0.393880
C16   C     C_R   0.568895 0.026299 0.189064 0.461865
C17   C     C_R   0.424591 0.810087 0.228923 0.458383
C18   C     C_R   0.423194 0.989962 0.178277 0.386049
C19   C     C_R   0.567703 0.830232 0.203436 0.385195
C20   C     C_R   0.563812 0.069403 0.149439 -0.045544
C21   C     C_R   0.428500 0.737176 0.212327 -0.039865
C22   C     C_R   0.419268 0.033139 0.138699 -0.047824
C23   C     C_R   0.603369 0.990622 0.667850 0.048066
C24   C     C_R   0.570541 0.757250 0.186877 -0.041518
C25   C     C_R   0.499693 0.610600 0.941488 0.580619
C26   C     C_R   0.499872 0.389379 0.941451 0.578633
C27   C     C_3   0.498920 0.937057 0.249090 0.043504
C28   C     C_R   0.577049 0.950873 0.280641 -0.023359
C29   C     C_R   0.424774 0.952066 0.282831 -0.024857
C30   C     C_R   0.701542 0.979620 0.348390 -0.075950
C31   C     C_R   0.302966 0.980143 0.351547 -0.074248
C32   C     C_R   0.497000 0.987925 0.205919 0.102512
C33   C     C_R   0.496832 0.857000 0.228087 0.098475
C34   C     C_R   0.214616 0.000173 0.735503 0.048708
C35   C     C_R   0.489075 0.073584 0.124506 -0.088235
C36   C     C_R   0.501987 0.709975 0.192529 -0.086972
C37   C     C_1   0.240216 0.992244 0.386022 0.109806
C38   C     C_1   0.761957 0.992342 0.384246 0.108489
C39   C     C_1   0.187453 0.998139 0.415174 0.065098
C40   C     C_1   0.813276 0.998444 0.414358 0.063154
C41   C     C_1   0.484646 0.118118 0.083712 0.014986
C42   C     C_1   0.507149 0.633262 0.178457 0.008698
C43   C     C_1   0.480978 0.155446 0.049578 0.058513
C44   C     C_1   0.511533 0.568761 0.167232 0.065875
C45   C     C_R   0.688924 0.975337 0.584929 -0.057698
C46   C     C_R   0.123632 0.999784 0.449486 0.563290
C47   C     C_R   0.876100 0.999910 0.449501 0.561560
C48   C     C_R   0.562090 0.790814 0.882524 -0.081728
C49   C     C_R   0.422215 0.241938 0.858379 -0.080500
C50   C     C_R   0.420183 0.759191 0.859765 -0.081885
C51   C     C_R   0.563261 0.208985 0.882264 -0.088824
C52   C     C_R   0.893154 0.000118 0.569371 0.510714
C53   C     C_R   0.107194 0.999969 0.569364 0.501288
C54   C     C_R   0.567245 0.725480 0.908480 0.335844
C55   C     C_R   0.426087 0.306915 0.884609 0.338790
C56   C     C_R   0.049810 0.999820 0.700964 -0.088766
C57   C     C_R   0.424630 0.693948 0.885589 0.339177
C58   C     C_R   0.567849 0.274080 0.908604 0.332670
C59   C     C_R   0.674246 0.943704 0.665110 0.248430
C60   C     C_R   0.189252 0.054623 0.703725 0.245151
C61   C     C_R   0.157991 0.944181 0.748846 0.253217
C62   C     C_R   0.577622 0.032209 0.629504 0.242382
C63   C     C_R   0.715840 0.935470 0.623169 -0.109976
C64   C     C_R   0.106297 0.054532 0.687047 -0.105094
C65   C     C_R   0.075318 0.944962 0.731773 -0.098741
C66   C     C_R   0.620372 0.023663 0.588024 -0.092309
C67   C     C_1   0.472294 0.932822 0.811158 0.016638
C68   C     C_3   0.458242 0.999692 0.783413 -0.012988
C69   C     C_R   0.488300 0.808152 0.858558 -0.081113
C70   C     C_R   0.490189 0.192448 0.857495 -0.086211
C71   C     C_R   0.497956 0.676562 0.910869 0.027350
C72   C     C_R   0.498685 0.323526 0.910611 0.025870
C73   C     C_3   0.773206 0.931874 0.720724 -0.106766
C74   C     C_3   0.278793 0.092782 0.648620 -0.088049
C75   C     C_3   0.205460 0.826100 0.757596 -0.100559
C76   C     C_3   0.533419 0.150910 0.639508 -0.114142
C77   C     C_1   0.473849 0.067373 0.810277 0.010510
C78   C     C_1   0.513251 0.997642 0.743479 0.008683
Cu1   Cu    Cu3+1 0.415470 0.500000 0.000080 1.137906
Cu2   Cu    Cu3+1 0.584530 0.500000 0.000080 1.138110
Cu3   Cu    Cu3+1 1.000000 0.072960 0.508900 1.025190
Cu4   Cu    Cu3+1 1.000000 0.927040 0.508900 1.050947
F1    F     F_    0.638882 0.711862 0.932469 -0.585253
F2    F     F_    0.459358 0.839449 0.324346 -0.520710
F3    F     F_    0.388544 0.074491 0.252605 -0.508755
F4    F     F_    0.611136 0.819381 0.291418 -0.509334
F5    F     F_    0.645839 0.020404 0.208895 -0.552922
F6    F     F_    0.348900 0.833718 0.244534 -0.555504
F7    F     F_    0.353396 0.951413 0.190047 -0.564288
F8    F     F_    0.636903 0.873108 0.197732 -0.566969
F9    F     F_    0.358546 0.353339 0.884425 -0.577253
F10   F     F_    0.356912 0.648047 0.885720 -0.580979
F11   F     F_    0.638728 0.286922 0.933367 -0.588120
F12   F     F_    0.666512 0.108775 0.345482 -0.531963
F13   F     F_    0.341896 0.866041 0.387617 -0.537033
F14   F     F_    0.268743 0.095225 0.315308 -0.525779
F15   F     F_    0.732100 0.849639 0.351339 -0.528190
F16   F     F_    0.546663 0.083003 0.282189 -0.517289
H1    H     H_    0.768555 0.897594 0.620058 0.140580
H2    H     H_    0.373653 0.701748 0.214982 0.176879
H3    H     H_    0.361417 0.034775 0.119004 0.175778
H4    H     H_    0.627107 0.737252 0.170314 0.176981
H5    H     H_    0.764942 0.991570 0.730112 0.116061
H6    H     H_    0.826741 0.925172 0.696711 0.111205
H7    H     H_    0.789489 0.901158 0.752387 0.164548
H8    H     H_    0.229782 0.091578 0.621411 0.108517
H9    H     H_    0.313367 0.038792 0.649877 0.139855
H10   H     H_    0.324724 0.136542 0.639389 0.177617
H11   H     H_    0.259211 0.836422 0.734194 0.114220
H12   H     H_    0.085491 0.097071 0.663412 0.144111
H13   H     H_    0.151468 0.801757 0.738452 0.127479
H14   H     H_    0.226432 0.784370 0.783126 0.170184
H15   H     H_    0.571833 0.172110 0.610653 0.131079
H16   H     H_    0.568989 0.155731 0.672221 0.123426
H17   H     H_    0.476930 0.186989 0.642261 0.155308
H18   H     H_    0.030693 0.903194 0.742539 0.139153
H19   H     H_    0.599899 0.053934 0.558045 0.152748
H20   H     H_    0.615273 0.828394 0.881681 0.167385
H21   H     H_    0.365530 0.229815 0.839085 0.174928
H22   H     H_    0.363020 0.771875 0.840989 0.161355
H23   H     H_    0.616252 0.170925 0.881795 0.165646
H24   H     H_    0.619179 0.098705 0.137737 0.176236
O1    O     O_R   0.429360 0.416280 0.044700 -0.516246
O2    O     O_R   0.906590 0.940530 0.464300 -0.482966
O3    O     O_R   0.906590 0.059470 0.464300 -0.492479
O4    O     O_R   0.093410 0.940530 0.464300 -0.484215
O5    O     O_R   0.920740 0.061400 0.553530 -0.489215
O6    O     O_R   0.079260 0.938600 0.553530 -0.483053
O7    O     O_R   0.079260 0.061400 0.553530 -0.497149
O8    O     O_R   0.920740 0.938600 0.553530 -0.492260
O9    O     O_3   0.698460 0.901674 0.702462 -0.547318
O10   O     O_3   0.243790 0.110834 0.691366 -0.552108
O11   O     O_3   0.181689 0.891582 0.780826 -0.547594
O12   O     O_R   0.570640 0.583720 0.044700 -0.501328
O13   O     O_3   0.507032 0.077137 0.631616 -0.575676
O14   O     O_R   0.570640 0.416280 0.044700 -0.499858
O15   O     O_R   0.429360 0.583720 0.044700 -0.515735
O16   O     O_R   0.427420 0.583550 0.955440 -0.448555
O17   O     O_R   0.572580 0.416450 0.955440 -0.458689
O18   O     O_R   0.572580 0.583550 0.955440 -0.457196
O19   O     O_R   0.427420 0.416450 0.955440 -0.450720
O20   O     O_R   0.093410 0.059470 0.464300 -0.492886

loop_
_geom_bond_atom_site_label_1
_geom_bond_atom_site_label_2
_ccdc_geom_bond_type
C40   C47   S    
C73   O9    S    
C8    C13   A    
C7    F16   S    
C74   O10   S    
C27   C29   S    
C17   F6    S    
C26   C72   S    
C36   C42   S    
C14   C31   A    
C60   O10   S    
C4    C70   S    
Cu3   Cu4   S    
C61   O11   S    
C46   O20   A    
C21   C36   A    
C49   H21   S    
C27   C33   S    
C23   C59   A    
C22   C35   A    
C59   O9    S    
C75   H14   S    
C24   C36   A    
C22   H3    S    
C17   C33   A    
C13   F13   S    
C50   H22   S    
C8    C29   A    
C3    C69   S    
C50   C69   A    
C2    C68   S    
C10   C15   A    
C6    C78   T    
C56   C65   A    
C76   H17   S    
Cu2   O12   S    
C30   C38   S    
C55   F9    S    
C14   F14   S    
Cu4   O4    S    
C7    C11   A    
C63   H1    S    
C9    F3    S    
C74   H9    S    
C20   C35   A    
C73   H7    S    
C52   O5    A    
C23   C62   A    
C54   C71   A    
C11   C30   A    
C66   H19   S    
C16   F5    S    
C76   H16   S    
C56   C64   A    
C25   C71   S    
C51   C70   A    
Cu4   O8    S    
C1    O14   A    
C48   C69   A    
C20   H24   S    
C55   C72   A    
C9    C29   A    
C12   O12   A    
Cu3   O5    S    
C34   C60   A    
C41   C43   T    
C42   C44   T    
C15   F15   S    
Cu4   O2    S    
C54   F1    S    
C76   O13   S    
C46   O4    A    
C47   O3    A    
C73   H6    S    
C68   C78   S    
C75   H11   S    
C62   C66   A    
C67   C68   S    
C25   O18   A    
C26   O17   A    
C19   C33   A    
C21   H2    S    
C48   H20   S    
Cu2   O18   S    
Cu1   O1    S    
C45   C63   A    
C34   C61   A    
C17   C21   A    
C7    C28   A    
C31   C37   S    
C62   O13   S    
C48   C54   A    
C9    C14   A    
C1    O1    A    
C53   O6    A    
C74   H8    S    
C64   H12   S    
C16   C20   A    
C5    C34   S    
C76   H15   S    
C51   C58   A    
C57   C71   A    
Cu4   O6    S    
C39   C46   S    
C11   F12   S    
Cu3   O20   S    
Cu1   O15   S    
C49   C70   A    
Cu3   O7    S    
C51   H23   S    
C65   H18   S    
C2    C5    T    
C53   O7    A    
C26   O19   A    
C27   C28   S    
C15   C30   A    
C10   C28   A    
C68   C77   S    
C10   F4    S    
Cu3   O3    S    
C27   C32   S    
C8    F2    S    
C18   F7    S    
C75   H13   S    
C13   C31   A    
C3    C67   T    
C75   O11   S    
C16   C32   A    
Cu2   O17   S    
C59   C63   A    
Cu2   O14   S    
C60   C64   A    
C52   O8    A    
C18   C22   A    
C25   O16   A    
C4    C77   T    
C37   C39   T    
C19   F8    S    
C49   C55   A    
C38   C40   T    
C50   C57   A    
C58   C72   A    
C47   O2    A    
Cu1   O19   S    
C6    C23   S    
C19   C24   A    
C57   F10   S    
C24   H4    S    
C35   C41   S    
C74   H10   S    
Cu1   Cu2   S    
C61   C65   A    
C73   H5    S    
Cu1   O16   S    
C18   C32   A    
C45   C66   A    
C12   O15   A    
C58   F11   S    
