data_mof_unit_67199.cif
_audit_creation_date              2013-03-05T16:01:22-0500
_audit_creation_method            fapswitch 2.2
_symmetry_space_group_name_H-M    P1
_symmetry_Int_Tables_number       1
_space_group_crystal_system       triclinic
_cell_length_a                    20.200063
_cell_length_b                    20.131979
_cell_length_c                    8.438664
_cell_angle_alpha                 89.932641
_cell_angle_beta                  92.031091
_cell_angle_gamma                 90.248127
_cell_volume                      3429.53826862

loop_
_atom_site_label
_atom_site_type_symbol
_atom_site_description
_atom_site_fract_x
_atom_site_fract_y
_atom_site_fract_z
_atom_type_partial_charge
P1    P     P_3+3 0.136530 0.426510 0.931350 0.508724
P2    P     P_3+3 0.136530 0.573490 0.431350 0.479492
P3    P     P_3+3 0.636530 0.926510 0.931350 0.507011
P4    P     P_3+3 0.636530 0.073490 0.431350 0.507219
O1    O     O_2   0.130070 0.404060 0.104920 -0.342036
O2    O     O_2   0.130070 0.595940 0.604920 -0.427782
O3    O     O_2   0.630070 0.904060 0.104920 -0.395661
O4    O     O_2   0.630070 0.095940 0.604920 -0.351960
O5    O     O_3   0.075780 0.466370 0.861070 -0.368880
O6    O     O_3   0.075780 0.533630 0.361070 -0.335202
O7    O     O_3   0.575780 0.966370 0.861070 -0.342196
O8    O     O_3   0.575780 0.033630 0.361070 -0.351796
O9    O     O_3   0.022320 0.344950 0.359800 -0.399936
O10   O     O_3   0.022320 0.655050 0.859800 -0.412280
O11   O     O_3   0.522320 0.844950 0.359800 -0.406940
O12   O     O_3   0.522320 0.155050 0.859800 -0.395811
O13   O     O_2   0.129615 0.292252 0.242960 -0.302744
O14   O     O_2   0.128339 0.712354 0.753888 -0.294353
O15   O     O_2   0.627079 0.790092 0.238662 -0.307366
O16   O     O_2   0.628967 0.208027 0.741024 -0.292286
O17   O     O_3   0.213752 0.468978 0.930506 -0.613078
O18   O     O_3   0.202738 0.516385 0.428551 -0.592686
O19   O     O_3   0.699619 0.986894 0.923039 -0.567192
O20   O     O_3   0.699505 0.013539 0.421845 -0.616386
O21   O     O_3   0.043548 0.206845 0.342933 -0.421636
O22   O     O_3   0.037504 0.794623 0.840628 -0.420520
O23   O     O_3   0.541400 0.706343 0.347229 -0.426323
O24   O     O_3   0.543505 0.293336 0.840506 -0.424843
H1    H     H_    0.950114 0.246711 0.300967 0.140863
H2    H     H_    0.945186 0.750739 0.806216 0.137543
H3    H     H_    0.448222 0.747122 0.306135 0.134899
H4    H     H_    0.448661 0.253769 0.814051 0.135293
C1    C     C_3   0.943772 0.144149 0.363559 -0.777129
C2    C     C_3   0.936302 0.853994 0.859441 -0.763451
C3    C     C_3   0.441000 0.645003 0.373338 -0.879691
C4    C     C_3   0.445553 0.357419 0.869209 -0.727258
H5    H     H_    0.948674 0.125620 0.240720 0.292328
H6    H     H_    0.883180 0.847138 0.883182 0.199197
H7    H     H_    0.443848 0.626058 0.250254 0.282927
H8    H     H_    0.443209 0.371994 0.742229 0.277216
H9    H     H_    0.966788 0.108017 0.448001 0.266466
H10   H     H_    0.940908 0.871608 0.735611 0.311365
H11   H     H_    0.465381 0.609100 0.456082 0.269063
H12   H     H_    0.474855 0.395195 0.937139 0.287850
P5    P     P_3+3 0.863410 0.426100 0.379280 0.455739
P6    P     P_3+3 0.863410 0.573900 0.879280 0.457823
P7    P     P_3+3 0.363410 0.926100 0.379280 0.454513
P8    P     P_3+3 0.363410 0.073900 0.879280 0.456111
P9    P     P_3+3 0.916285 0.283770 0.930617 0.483959
P10   P     P_3+3 0.916181 0.715853 0.430590 0.503614
P11   P     P_3+3 0.416612 0.783383 0.931512 0.489678
P12   P     P_3+3 0.417160 0.216571 0.430150 0.489079
O25   O     O_2   0.869860 0.403670 0.205810 -0.365678
O26   O     O_2   0.869860 0.596330 0.705810 -0.368802
O27   O     O_2   0.369860 0.903670 0.205810 -0.365607
O28   O     O_2   0.369860 0.096330 0.705810 -0.365507
O29   O     O_3   0.977590 0.344880 0.951200 -0.353567
O30   O     O_3   0.977590 0.655120 0.451200 -0.359661
O31   O     O_3   0.477590 0.844880 0.951200 -0.352583
O32   O     O_3   0.477590 0.155120 0.451200 -0.352064
O33   O     O_2   0.868330 0.293696 0.066949 -0.377765
O34   O     O_2   0.868104 0.705371 0.566572 -0.366294
O35   O     O_2   0.368226 0.793860 0.066769 -0.369904
O36   O     O_2   0.368117 0.205759 0.564114 -0.371050
O37   O     O_3   0.793503 0.476971 0.372658 -0.575475
O38   O     O_3   0.793517 0.522395 0.872977 -0.574292
O39   O     O_3   0.293610 0.977109 0.372576 -0.575398
O40   O     O_3   0.293349 0.022616 0.872925 -0.574058
O41   O     O_3   0.954086 0.207730 0.975869 -0.498045
O42   O     O_3   0.953549 0.792332 0.476699 -0.479033
O43   O     O_3   0.454433 0.707555 0.979111 -0.496475
O44   O     O_3   0.455896 0.291800 0.480654 -0.492187
C5    C     C_3   0.987382 0.185440 0.842513 0.213475
C6    C     C_3   0.984350 0.816966 0.341740 0.256429
C7    C     C_3   0.483861 0.682327 0.843309 0.229260
C8    C     C_3   0.487972 0.316646 0.347738 0.225675
H13   H     H_    0.020237 0.224863 0.795398 0.094784
H14   H     H_    0.016218 0.778595 0.288338 0.066907
H15   H     H_    0.515424 0.720568 0.786837 0.080448
H16   H     H_    0.517550 0.277565 0.289582 0.074635
H17   H     H_    0.950511 0.170363 0.748361 0.018380
H18   H     H_    0.945910 0.833191 0.252719 0.043995
H19   H     H_    0.444473 0.665212 0.757115 0.010370
H20   H     H_    0.450140 0.336638 0.261499 0.059488
C9    C     C_3   0.029714 0.125091 0.890338 -0.096301
C10   C     C_3   0.027651 0.876900 0.389947 -0.099585
C11   C     C_3   0.527309 0.622899 0.891279 -0.075094
C12   C     C_3   0.534804 0.372941 0.401479 -0.083113
H21   H     H_    0.999907 0.090499 0.961897 0.131286
H22   H     H_    0.998215 0.911581 0.461552 0.188379
H23   H     H_    0.498259 0.588285 0.964383 0.140094
H24   H     H_    0.509525 0.404652 0.486994 0.137962
C13   C     C_3   0.801827 0.467559 0.774493 0.361118
C14   C     C_3   0.802101 0.532321 0.275487 0.359651
C15   C     C_3   0.301756 0.967490 0.775348 0.358668
C16   C     C_3   0.302727 0.032767 0.276677 0.358103
H25   H     H_    0.839147 0.475739 0.683577 0.119467
H26   H     H_    0.838948 0.524410 0.183564 0.120913
H27   H     H_    0.338893 0.975582 0.683944 0.119826
H28   H     H_    0.339437 0.024822 0.184434 0.119791
H29   H     H_    0.817089 0.424309 0.848708 0.109880
H30   H     H_    0.818126 0.575129 0.350531 0.109160
H31   H     H_    0.317311 0.924521 0.850191 0.110228
H32   H     H_    0.319209 0.075162 0.352576 0.111591
C17   C     C_3   0.735206 0.452992 0.691809 -0.735625
C18   C     C_3   0.735345 0.547491 0.194588 -0.738072
C19   C     C_3   0.235099 0.952388 0.693358 -0.734494
C20   C     C_3   0.236135 0.048862 0.196185 -0.739616
H33   H     H_    0.720987 0.494676 0.611529 0.265613
H34   H     H_    0.720490 0.506414 0.112995 0.268863
H35   H     H_    0.220727 0.993646 0.611966 0.265920
H36   H     H_    0.220834 0.008209 0.113815 0.265531
H37   H     H_    0.737857 0.406456 0.622606 0.239884
H38   H     H_    0.738016 0.594554 0.127052 0.239129
H39   H     H_    0.237696 0.905499 0.625423 0.238736
H40   H     H_    0.239309 0.096117 0.129580 0.238959
H41   H     H_    0.696124 0.447883 0.780158 0.290689
H42   H     H_    0.696658 0.551898 0.284029 0.288939
H43   H     H_    0.196125 0.947665 0.782103 0.290198
H44   H     H_    0.197522 0.053347 0.285782 0.292872
Ba1   Ba    Ba6+2 0.999980 0.452130 0.155200 1.608719
Ba2   Ba    Ba6+2 0.999980 0.547870 0.655200 1.620302
Ba3   Ba    Ba6+2 0.499980 0.952130 0.155200 1.612236
Ba4   Ba    Ba6+2 0.499980 0.047870 0.655200 1.619141
C21   C     C_3   0.224090 0.514795 0.053641 0.333416
C22   C     C_3   0.233995 0.503103 0.576850 0.341617
C23   C     C_3   0.743120 0.992181 0.056409 0.310047
C24   C     C_3   0.742897 0.006666 0.554876 0.109330
H45   H     H_    0.202886 0.496604 0.163240 0.157259
H46   H     H_    0.199158 0.509401 0.672830 0.094237
H47   H     H_    0.721494 0.972770 0.165064 0.105174
H48   H     H_    0.722249 0.027273 0.663501 0.169393
C25   C     C_3   0.299040 0.528033 0.083023 -0.823169
C26   C     C_3   0.293907 0.550999 0.603680 -0.797253
C27   C     C_3   0.807811 0.955499 0.023092 -0.845232
C28   C     C_3   0.808729 0.041778 0.520129 -0.628446
H49   H     H_    0.306219 0.567587 0.174039 0.170334
H50   H     H_    0.294971 0.586996 0.504618 0.178519
H51   H     H_    0.834212 0.981044 0.928628 0.228813
H52   H     H_    0.833484 0.015677 0.424301 0.246859
H53   H     H_    0.320456 0.546362 0.971998 0.222378
H54   H     H_    0.287081 0.579426 0.714308 0.186254
H55   H     H_    0.796526 0.905795 0.977032 0.221253
H56   H     H_    0.799277 0.092280 0.476550 0.191127
O45   O     O_3   0.924190 0.533610 0.949240 -0.383639
O46   O     O_3   0.924190 0.466390 0.449240 -0.393736
O47   O     O_3   0.424190 0.033610 0.949240 -0.394017
O48   O     O_3   0.424190 0.966390 0.449240 -0.394426
P13   P     P_3+3 0.078250 0.720289 0.886894 0.572851
P14   P     P_3+3 0.082038 0.283540 0.380777 0.589025
P15   P     P_3+3 0.581945 0.216925 0.879492 0.595494
P16   P     P_3+3 0.581223 0.782817 0.380121 0.567847
C29   C     C_3   0.976763 0.211679 0.382277 0.487526
C30   C     C_3   0.971233 0.788004 0.883049 0.490273
C31   C     C_3   0.474850 0.712340 0.388117 0.543706
C32   C     C_3   0.477707 0.289642 0.888842 0.454072
H57   H     H_    0.972147 0.228418 0.506846 -0.043829
H58   H     H_    0.967800 0.773126 0.009362 -0.052597
H59   H     H_    0.471111 0.729980 0.512179 -0.053895
H60   H     H_    0.475822 0.274700 0.015360 -0.039424
H61   H     H_    0.890499 0.149026 0.387771 0.197140
H62   H     H_    0.958012 0.891763 0.941944 0.251087
H63   H     H_    0.388144 0.649786 0.402841 0.183113
H64   H     H_    0.394448 0.355710 0.913489 0.215304
C33   C     C_R   0.238201 0.302144 0.008760 -0.013433
C34   C     C_R   0.235412 0.700785 0.513649 -0.117715
C35   C     C_R   0.734906 0.798903 0.013158 -0.098038
C36   C     C_R   0.736485 0.199466 0.510462 -0.089557
C37   C     C_R   0.148340 0.345458 0.824368 0.275737
C38   C     C_R   0.147657 0.656190 0.326889 0.239736
C39   C     C_R   0.651474 0.847355 0.818829 0.243977
C40   C     C_R   0.651741 0.152253 0.317846 0.240130
C41   C     C_R   0.112333 0.336999 0.680944 -0.530682
C42   C     C_R   0.105028 0.670965 0.196672 -0.446606
C43   C     C_R   0.615325 0.838970 0.675540 -0.497915
C44   C     C_R   0.615214 0.160873 0.175258 -0.469391
C45   C     C_R   0.127349 0.286335 0.574875 0.177406
C46   C     C_R   0.121548 0.719876 0.085470 0.183682
C47   C     C_R   0.628639 0.786989 0.571620 0.183786
C48   C     C_R   0.628355 0.213362 0.072067 0.169873
C49   C     C_R   0.177300 0.240237 0.614329 0.247033
C50   C     C_R   0.174940 0.763066 0.119381 0.307764
C51   C     C_R   0.678175 0.740537 0.611695 0.304294
C52   C     C_R   0.677917 0.260112 0.112364 0.229437
C53   C     C_R   0.211435 0.243828 0.763293 -0.030133
C54   C     C_R   0.210629 0.758064 0.265961 -0.027773
C55   C     C_R   0.712119 0.743953 0.761148 -0.006564
C56   C     C_R   0.712717 0.255818 0.260471 -0.018758
C57   C     C_R   0.198945 0.297745 0.867229 -0.010399
C58   C     C_R   0.198323 0.703759 0.369273 -0.037760
C59   C     C_R   0.699439 0.797646 0.865716 -0.002895
C60   C     C_R   0.700373 0.201535 0.364007 -0.013139
H65   H     H_    0.074861 0.372969 0.646356 0.183060
H66   H     H_    0.062666 0.639125 0.171630 0.197491
H67   H     H_    0.578320 0.875341 0.640457 0.177848
H68   H     H_    0.578062 0.124364 0.140176 0.180442
C61   C     C_R   0.797543 0.698986 0.948378 -0.048122
C62   C     C_R   0.798432 0.300466 0.447584 -0.050272
C63   C     C_R   0.298840 0.200297 0.947243 -0.053000
C64   C     C_R   0.298378 0.800798 0.449566 -0.042177
C65   C     C_R   0.783988 0.751538 0.053547 0.078439
C66   C     C_R   0.785335 0.247234 0.551549 0.089441
C67   C     C_R   0.287446 0.254692 0.049104 0.073384
C68   C     C_R   0.285623 0.747191 0.552907 0.094155
C69   C     C_R   0.848799 0.652369 0.990272 0.220840
C70   C     C_R   0.849245 0.347606 0.490370 0.221548
C71   C     C_R   0.349429 0.152935 0.989814 0.222321
C72   C     C_R   0.349386 0.847675 0.491571 0.217227
C73   C     C_R   0.885860 0.661336 0.131803 -0.522131
C74   C     C_R   0.886173 0.338925 0.632173 -0.516782
C75   C     C_R   0.386668 0.161890 0.131195 -0.508968
C76   C     C_R   0.386346 0.838849 0.633383 -0.516149
C77   C     C_R   0.870326 0.711402 0.238056 0.206863
C78   C     C_R   0.870905 0.288213 0.737549 0.223854
C79   C     C_R   0.372941 0.213496 0.234979 0.205714
C80   C     C_R   0.371688 0.787454 0.737892 0.229022
C81   C     C_R   0.819068 0.755660 0.200209 -0.222721
C82   C     C_R   0.820352 0.243069 0.698103 -0.241242
C83   C     C_R   0.324123 0.259942 0.193512 -0.232037
C84   C     C_R   0.321836 0.741593 0.697628 -0.258693
C85   C     C_R   0.758976 0.694610 0.806697 -0.034004
C86   C     C_R   0.759716 0.305169 0.306313 -0.019650
C87   C     C_R   0.258982 0.194988 0.807809 -0.025532
C88   C     C_R   0.258807 0.806407 0.309907 -0.037227
H69   H     H_    0.806218 0.792693 0.286300 0.224937
H70   H     H_    0.807968 0.205354 0.782871 0.199258
H71   H     H_    0.314445 0.299507 0.275455 0.191304
H72   H     H_    0.311189 0.701892 0.779802 0.180979
H73   H     H_    0.924707 0.626524 0.164308 0.171478
H74   H     H_    0.924662 0.374317 0.665469 0.170956
H75   H     H_    0.424269 0.126012 0.165531 0.168275
H76   H     H_    0.424547 0.874482 0.667093 0.170703
H77   H     H_    0.230384 0.341946 0.090386 0.204187
H78   H     H_    0.224745 0.663553 0.599936 0.183185
H79   H     H_    0.726294 0.837587 0.097798 0.164669
H80   H     H_    0.728139 0.160264 0.594342 0.175319
H81   H     H_    0.765377 0.652424 0.731106 0.197534
H82   H     H_    0.765598 0.347905 0.231897 0.200365
H83   H     H_    0.264612 0.152213 0.733554 0.200046
H84   H     H_    0.264612 0.849246 0.235706 0.197202
C89   C     C_2   0.190499 0.576617 0.002026 0.839642
O49   O     O_2   0.220992 0.626254 0.962568 -0.666158
O50   O     O_R   0.122685 0.573395 0.981604 -0.762352
H85   H     H_    0.110291 0.586087 0.870201 0.386850
C90   C     C_2   0.252865 0.430460 0.580990 0.978867
O51   O     O_2   0.283014 0.407417 0.696528 -0.664211
O52   O     O_R   0.234733 0.389227 0.453653 -0.741384
H86   H     H_    0.250246 0.341952 0.470982 0.315529
C91   C     C_2   0.757996 0.065274 0.076850 0.988457
O53   O     O_2   0.796005 0.084545 0.182665 -0.707435
O54   O     O_R   0.730527 0.111020 0.968946 -0.749275
H87   H     H_    0.748391 0.157490 0.987849 0.317445
C92   C     C_2   0.756270 0.932777 0.578129 1.061847
O55   O     O_2   0.793325 0.914719 0.686353 -0.645752
O56   O     O_R   0.730066 0.883934 0.475563 -0.772236
H88   H     H_    0.698285 0.900228 0.389250 0.327854
C93   C     C_2   0.338502 0.468755 0.138227 1.300788
O57   O     O_2   0.311177 0.420838 0.194979 -0.620989
O58   O     O_R   0.407437 0.469149 0.132278 -0.785026
H89   H     H_    0.425404 0.511971 0.087479 0.310814
C94   C     C_2   0.361380 0.520174 0.610715 1.126500
O59   O     O_2   0.394266 0.519577 0.735137 -0.651474
O60   O     O_R   0.387107 0.494641 0.472611 -0.779392
H90   H     H_    0.435159 0.481955 0.487979 0.336083
C95   C     C_2   0.853412 0.948319 0.166482 1.057903
O61   O     O_2   0.838753 0.910357 0.272192 -0.632230
O62   O     O_R   0.912815 0.983873 0.180908 -0.752590
H91   H     H_    0.920778 0.013930 0.087243 0.300563
C96   C     C_2   0.855936 0.046349 0.660444 1.030247
O63   O     O_2   0.906526 0.013236 0.664655 -0.600134
O64   O     O_R   0.842600 0.089462 0.784053 -0.829004
H92   H     H_    0.878176 0.088878 0.871656 0.308384
C97   C     C_2   0.053741 0.088226 0.749025 1.000044
O65   O     O_2   0.081766 0.118002 0.644357 -0.603217
O66   O     O_R   0.045281 0.019396 0.739765 -0.736800
H93   H     H_    0.064105 0.999995 0.640196 0.362590
C98   C     C_2   0.052670 0.913843 0.249120 1.014540
O67   O     O_2   0.075685 0.883586 0.138563 -0.618849
O68   O     O_R   0.051286 0.983244 0.247520 -0.734321
H94   H     H_    0.070013 0.002630 0.147536 0.355410
C99   C     C_2   0.551001 0.586051 0.749605 0.991424
O69   O     O_2   0.580814 0.615495 0.647291 -0.605578
O70   O     O_R   0.540084 0.517650 0.737150 -0.757641
H95   H     H_    0.559627 0.498177 0.638550 0.346981
C100  C     C_2   0.556219 0.414847 0.265053 1.009341
O71   O     O_2   0.582858 0.389180 0.152870 -0.600962
O72   O     O_R   0.546352 0.483495 0.268255 -0.770121
H96   H     H_    0.563174 0.506527 0.170560 0.356806
Br1   Br    Br    0.203206 0.177027 0.456519 -0.483005
Br2   Br    Br    0.201612 0.825656 0.960131 -0.463189
Br3   Br    Br    0.701881 0.675433 0.456248 -0.472290
Br4   Br    Br    0.701431 0.325991 0.957710 -0.484397
Br5   Br    Br    0.105559 0.152824 0.020897 -0.450529
Br6   Br    Br    0.103043 0.848171 0.520115 -0.443355
Br7   Br    Br    0.603491 0.652157 0.018950 -0.447790
Br8   Br    Br    0.611988 0.338232 0.514249 -0.453344

loop_
_geom_bond_atom_site_label_1
_geom_bond_atom_site_label_2
_geom_bond_distance
_ccdc_geom_bond_type
P11   C80   1.842564 S    
C34   H78   1.070922 S    
P6    C69   1.867376 S    
C75   C79   1.394682 A    
C90   O52   1.396221 S    
P1    O17   1.775799 S    
P5    C70   1.862656 S    
O10   Ba2   2.790267 S    
C11   H23   1.109771 S    
P8    C71   1.872841 S    
C62   C70   1.431999 A    
C20   H44   1.109401 S    
P3    O19   1.760559 S    
O66   H93   1.013823 S    
C2    H10   1.109991 S    
C37   C57   1.442172 A    
C20   H40   1.107175 S    
O44   C8    1.405525 S    
O6    Ba1   2.801971 S    
C49   Br1   1.930244 S    
C8    H20   1.112731 S    
C41   H65   1.082188 S    
O52   H86   1.012127 S    
O54   H87   1.012041 S    
C4    H64   1.110623 S    
C40   C60   1.437525 A    
C25   H49   1.112467 S    
C1    H61   1.107235 S    
Ba4   O48   2.802086 S    
C7    C11   1.532417 S    
C84   H72   1.083367 S    
C91   O53   1.219404 D    
O23   P16   1.751819 S    
C7    H15   1.114781 S    
O11   Ba3   2.790150 S    
P7    C72   1.866163 S    
C18   H38   1.107187 S    
P1    O1    1.542115 D    
O28   Ba4   2.854052 S    
C17   H37   1.107047 S    
C62   C86   1.405734 A    
C23   C27   1.538480 S    
O9    P14   1.735582 S    
P6    O38   1.747407 S    
P3    O3    1.542115 D    
C14   C18   1.521685 S    
C24   C28   1.540458 S    
C38   C42   1.404240 A    
C94   O59   1.222467 D    
P4    O20   1.761286 S    
C4    H12   1.109236 S    
C15   H27   1.106306 S    
O18   C22   1.407459 S    
P6    O45   1.571611 S    
C81   H69   1.080426 S    
C14   H26   1.106047 S    
O50   H85   0.997523 S    
P8    O47   1.571611 S    
O1    Ba1   2.850272 S    
O56   H88   1.009154 S    
C100  O72   1.397589 S    
P9    O29   1.746220 S    
P4    Ba4   3.434729 S    
C89   O49   1.223642 D    
C50   C54   1.413162 A    
C10   C98   1.502695 S    
C19   H43   1.109361 S    
P4    O4    1.543455 D    
O32   Ba4   2.788290 S    
C45   C49   1.404912 A    
C4    H8    1.110103 S    
C17   H33   1.110225 S    
P12   O32   1.746230 S    
C13   C17   1.521320 S    
H4    C32   1.111444 S    
P5    O37   1.747247 S    
C61   C69   1.435057 A    
C9    H21   1.110538 S    
C15   C19   1.521522 S    
C12   H24   1.104134 S    
C22   H46   1.099412 S    
P3    Ba3   3.438984 S    
P3    C39   1.886833 S    
C73   C77   1.393972 A    
O42   C6    1.405810 S    
C33   C57   1.412658 A    
O68   H94   1.013839 S    
O41   C5    1.406261 S    
C28   C96   1.496423 S    
C69   C73   1.398364 A    
C56   C86   1.415896 A    
P4    O8    1.562875 S    
O14   P13   1.546395 D    
C3    H11   1.109084 S    
C95   O61   1.217662 D    
C52   Br4   1.929316 S    
C55   C59   1.425968 A    
P11   O35   1.544019 D    
C28   H52   1.100932 S    
C36   H80   1.076244 S    
C25   C93   1.502404 S    
O64   H92   1.012657 S    
C16   C20   1.521304 S    
P5    O25   1.542510 D    
C64   C72   1.429828 A    
P9    O41   1.749418 S    
C96   O63   1.221992 D    
C18   H42   1.109427 S    
C22   C90   1.512956 S    
C71   C75   1.399102 A    
C17   H41   1.109292 S    
P2    O2    1.543455 D    
P11   O43   1.749961 S    
C6    H18   1.110948 S    
C36   C66   1.409634 A    
C24   H48   1.102653 S    
C5    H17   1.111209 S    
O11   P16   1.734285 S    
C15   H31   1.110365 S    
O15   P16   1.543122 D    
C47   C51   1.404817 A    
C82   H70   1.077291 S    
P2    Ba2   3.434729 S    
O31   Ba3   2.788391 S    
C51   Br3   1.929225 S    
Ba4   O47   2.974379 S    
O27   Ba3   2.845911 S    
O30   Ba2   2.788290 S    
O40   C15   1.397206 S    
C91   O54   1.397071 S    
C31   H59   1.111108 S    
P5    O46   1.566832 S    
C64   C88   1.405116 A    
C76   C80   1.396335 A    
C33   H77   1.073120 S    
Ba3   Ba4   4.640785 S    
P1    O5    1.567612 S    
C1    H9    1.109636 S    
O12   Ba4   2.790267 S    
P12   O36   1.543929 D    
C13   H29   1.110292 S    
O20   C24   1.406638 S    
C94   O60   1.392530 S    
C96   O64   1.392132 S    
C77   C81   1.397084 A    
C99   O70   1.397131 S    
O4    Ba4   2.842194 S    
Ba2   O46   2.802086 S    
C43   C47   1.399219 A    
C55   C85   1.418411 A    
P10   C77   1.843556 S    
P5    Ba1   3.437401 S    
C99   O69   1.221504 D    
C74   C78   1.393813 A    
O21   C29   1.404509 S    
P9    C78   1.843166 S    
C86   H82   1.073232 S    
P12   C79   1.846548 S    
C11   Br7   1.937009 S    
C8    C12   1.531831 S    
C20   H36   1.110143 S    
C85   H81   1.073769 S    
O21   P14   1.750322 S    
C23   C91   1.509460 S    
C24   C92   1.524216 S    
C54   C58   1.424028 A    
C35   H79   1.076207 S    
C11   C99   1.501454 S    
C62   C66   1.414186 A    
C100  O71   1.221654 D    
P12   O44   1.747924 S    
C79   C83   1.397129 A    
C61   C65   1.415585 A    
C26   H54   1.108646 S    
O9    Ba1   2.790150 S    
C70   C74   1.398673 A    
C44   C48   1.398993 A    
C92   O56   1.400438 S    
O72   H96   1.013776 S    
C41   C45   1.399137 A    
C64   C68   1.415226 A    
C9    Br5   1.935760 S    
P6    O26   1.541171 D    
C63   C71   1.436713 A    
C97   O65   1.221150 D    
C74   H74   1.082248 S    
P10   O30   1.749648 S    
C39   C59   1.441207 A    
P7    O39   1.747135 S    
C73   H73   1.082236 S    
C50   Br2   1.930138 S    
P2    O18   1.768189 S    
C21   C89   1.477929 S    
C88   H84   1.073623 S    
C19   H39   1.107384 S    
C72   C76   1.399429 A    
C46   C50   1.404184 A    
C75   H75   1.082231 S    
P2    C38   1.899171 S    
P14   C45   1.848571 S    
C78   C82   1.395765 A    
C3    H63   1.109519 S    
C68   C84   1.405817 A    
C42   H66   1.081907 S    
C2    C30   1.516575 S    
C98   O68   1.397622 S    
C21   H45   1.094938 S    
C10   H22   1.111857 S    
O39   C16   1.396782 S    
P10   O34   1.543088 D    
C98   O67   1.221516 D    
Ba1   O45   2.807449 S    
O22   C30   1.403662 S    
P11   O31   1.746533 S    
O2    Ba2   2.842194 S    
O24   C32   1.405697 S    
O5    Ba2   2.807338 S    
O58   H89   1.011972 S    
P2    O6    1.562875 S    
C13   H25   1.106193 S    
C93   O57   1.215577 D    
C48   C52   1.404355 A    
C63   C67   1.417539 A    
C4    C32   1.520077 S    
P7    O27   1.542510 D    
C2    H62   1.109915 S    
C18   H34   1.110195 S    
C21   C25   1.547479 S    
P8    O28   1.541171 D    
C16   H32   1.110501 S    
C54   C88   1.413813 A    
P7    O48   1.566832 S    
O37   C14   1.396604 S    
C49   C53   1.413932 A    
P4    C40   1.881277 S    
P1    Ba1   3.438984 S    
O38   C13   1.396865 S    
C2    H6    1.106609 S    
C19   H35   1.110204 S    
Ba2   O45   2.974379 S    
C42   C46   1.406666 A    
C8    H16   1.114724 S    
C3    C31   1.518926 S    
P8    O40   1.747523 S    
O29   Ba1   2.788391 S    
C36   C60   1.413328 A    
C6    C10   1.534016 S    
C26   H50   1.106416 S    
H3    C31   1.110850 S    
O62   H91   1.011834 S    
Ba1   Ba2   4.640785 S    
C53   C57   1.425285 A    
P7    Ba3   3.437401 S    
C32   H60   1.110778 S    
C65   C81   1.406529 A    
O23   C31   1.405419 S    
C26   C94   1.499273 S    
O26   Ba2   2.854052 S    
C35   C59   1.413756 A    
C38   C58   1.434869 A    
O19   C23   1.406956 S    
C61   C85   1.406327 A    
C10   Br6   1.935955 S    
O16   P15   1.542826 D    
C67   C83   1.407379 A    
C56   C60   1.425006 A    
C27   H51   1.100520 S    
C37   C41   1.399967 A    
C66   C82   1.405388 A    
P16   C47   1.850890 S    
O60   H90   1.008639 S    
Ba3   O47   2.807449 S    
H1    C29   1.110824 S    
C12   Br8   1.930647 S    
C5    C9    1.534143 S    
O22   P13   1.748106 S    
C95   O62   1.396215 S    
C87   H83   1.074397 S    
C12   C100  1.501374 S    
O43   C7    1.406020 S    
P9    O33   1.543724 D    
C7    H19   1.112654 S    
P15   C48   1.848567 S    
C92   O55   1.216399 D    
O8    Ba3   2.801971 S    
C39   C43   1.400218 A    
C76   H76   1.082179 S    
C3    H7    1.110381 S    
C16   H28   1.106172 S    
O10   P13   1.738759 S    
P1    C37   1.885895 S    
P13   C46   1.862573 S    
C97   O66   1.397376 S    
C9    C97   1.501550 S    
C1    H5    1.109952 S    
O12   P15   1.732988 S    
C1    C29   1.517403 S    
C35   C65   1.411348 A    
C29   H57   1.111446 S    
C34   C58   1.408825 A    
C23   H47   1.100157 S    
P10   O42   1.749941 S    
C53   C87   1.418487 A    
P3    O7    1.567612 S    
C34   C68   1.407131 A    
C83   H71   1.078441 S    
C52   C56   1.414808 A    
H2    C30   1.110670 S    
C63   C87   1.405890 A    
Ba3   O48   2.976221 S    
C22   C26   1.554553 S    
O24   P15   1.751738 S    
C28   H56   1.095990 S    
P8    Ba4   3.441718 S    
C27   H55   1.094056 S    
C93   O58   1.395159 S    
O70   H95   1.013529 S    
C27   C95   1.501759 S    
C30   H58   1.111315 S    
C5    H13   1.114372 S    
Ba1   O46   2.976221 S    
P6    Ba2   3.441718 S    
O25   Ba1   2.845911 S    
C25   H53   1.107989 S    
O7    Ba4   2.807338 S    
C89   O50   1.375837 S    
C90   O51   1.223095 D    
C80   C84   1.396552 A    
O17   C21   1.399756 S    
C43   H67   1.082176 S    
C44   H68   1.082155 S    
C33   C67   1.414751 A    
C51   C55   1.415609 A    
C40   C44   1.400017 A    
C14   H30   1.110346 S    
O3    Ba3   2.850272 S    
O13   P14   1.544102 D    
C6    H14   1.113511 S    
