data_mof_unit_27579.cif
_audit_creation_date              2012-12-11T14:38:13-0500
_audit_creation_method            fapswitch 2.2
_symmetry_space_group_name_H-M    P1
_symmetry_Int_Tables_number       1
_space_group_crystal_system       triclinic
_cell_length_a                    19.943722
_cell_length_b                    11.196885
_cell_length_c                    19.561282
_cell_angle_alpha                 89.923928
_cell_angle_beta                  95.554384
_cell_angle_gamma                 89.885169
_cell_volume                      4347.65877665

loop_
_atom_site_label
_atom_site_type_symbol
_atom_type_description
_atom_site_fract_x
_atom_site_fract_y
_atom_site_fract_z
_atom_type_partial_charge
C1    C     C_R   0.709118 0.995056 0.366233 0.566910
C2    C     C_R   0.290881 0.995270 0.633681 0.565816
C3    C     C_R   0.209118 0.495056 0.366233 0.566911
C4    C     C_R   0.790881 0.495270 0.633681 0.565817
C5    C     C_3   0.710053 0.535134 0.446113 0.074510
C6    C     C_3   0.289916 0.534893 0.553587 0.074703
C7    C     C_3   0.210053 0.035134 0.446113 0.074507
C8    C     C_3   0.789916 0.034893 0.553587 0.074703
C9    C     C_3   0.837458 0.485853 0.521273 0.073208
C10   C     C_3   0.162497 0.486242 0.478576 0.072869
C11   C     C_3   0.337458 0.985853 0.521273 0.073210
C12   C     C_3   0.662497 0.986242 0.478577 0.072869
C13   C     C_3   0.751368 0.336107 0.551990 -0.250119
C14   C     C_3   0.248608 0.335737 0.448272 -0.251084
C15   C     C_3   0.251368 0.836107 0.551990 -0.250118
C16   C     C_3   0.748608 0.835736 0.448272 -0.251083
C17   C     C_3   0.773595 0.467327 0.560324 0.000034
C18   C     C_3   0.226368 0.467107 0.439604 0.000239
C19   C     C_3   0.273595 0.967327 0.560324 0.000036
C20   C     C_3   0.726368 0.967107 0.439604 0.000240
C21   C     C_3   0.745926 0.414463 0.430103 0.006749
C22   C     C_3   0.254079 0.414493 0.569892 0.007554
C23   C     C_3   0.245926 0.914463 0.430103 0.006753
C24   C     C_3   0.754079 0.914493 0.569892 0.007557
C25   C     C_3   0.823720 0.432800 0.448638 0.078136
C26   C     C_3   0.176288 0.433406 0.551355 0.078613
C27   C     C_3   0.323720 0.932798 0.448639 0.078116
C28   C     C_3   0.676288 0.933406 0.551355 0.078604
C29   C     C_3   0.717402 0.320113 0.478593 -0.302251
C30   C     C_3   0.282651 0.319787 0.521677 -0.302584
C31   C     C_3   0.217402 0.820114 0.478593 -0.302248
C32   C     C_3   0.782650 0.819787 0.521677 -0.302582
C33   C     C_3   0.510088 0.303816 0.957555 -0.232928
C34   C     C_3   0.527444 0.305312 0.034358 -0.228408
C35   C     C_3   0.010088 0.803816 0.957555 -0.232928
C36   C     C_3   0.027443 0.805312 0.034358 -0.228408
C37   C     C_3   0.438651 0.119327 0.979399 0.121472
C38   C     C_3   0.589782 0.108427 0.015923 0.103394
C39   C     C_3   0.938651 0.619327 0.979399 0.121473
C40   C     C_3   0.089782 0.608427 0.015923 0.103395
C41   C     C_3   0.556658 0.099099 0.940412 0.068276
C42   C     C_3   0.469391 0.112401 0.054477 0.081292
C43   C     C_3   0.056658 0.599099 0.940412 0.068276
C44   C     C_3   0.969391 0.612401 0.054477 0.081292
C45   C     C_R   0.537361 0.181127 0.338922 0.594015
C46   C     C_R   0.462502 0.181134 0.660990 0.582716
C47   C     C_R   0.037361 0.681127 0.338922 0.594010
C48   C     C_R   0.962502 0.681134 0.660990 0.582713
C49   C     C_3   0.490992 0.174148 0.932927 -0.011731
C50   C     C_3   0.539746 0.175089 0.062023 -0.023522
C51   C     C_3   0.990992 0.674148 0.932927 -0.011731
C52   C     C_3   0.039746 0.675089 0.062023 -0.023521
C53   C     C_1   0.772077 0.444426 0.910749 0.055199
C54   C     C_1   0.236095 0.421938 0.095626 0.053359
C55   C     C_1   0.272077 0.944426 0.910749 0.055199
C56   C     C_1   0.736096 0.921938 0.095626 0.053358
C57   C     C_1   0.764853 0.434186 0.044298 0.161805
C58   C     C_1   0.242993 0.401814 0.963042 0.166214
C59   C     C_1   0.264854 0.934185 0.044298 0.161805
C60   C     C_1   0.742993 0.901814 0.963042 0.166214
C61   C     C_1   0.770554 0.441075 0.972426 0.110427
C62   C     C_1   0.239894 0.408369 0.034978 0.075511
C63   C     C_1   0.270554 0.941075 0.972426 0.110427
C64   C     C_1   0.739894 0.908369 0.034978 0.075511
C65   C     C_1   0.754080 0.414743 0.103038 0.122853
C66   C     C_1   0.250116 0.394502 0.902591 0.164382
C67   C     C_1   0.254080 0.914743 0.103038 0.122854
C68   C     C_1   0.750116 0.894502 0.902591 0.164383
C69   C     C_R   0.737690 0.363024 0.360647 0.609340
C70   C     C_R   0.262282 0.363048 0.639388 0.608356
C71   C     C_R   0.237690 0.863024 0.360647 0.609339
C72   C     C_R   0.762282 0.863048 0.639388 0.608356
C73   C     C_R   0.722157 0.952711 0.163958 0.571109
C74   C     C_R   0.280065 0.958586 0.838831 0.575434
C75   C     C_R   0.222157 0.452711 0.163958 0.571109
C76   C     C_R   0.780065 0.458586 0.838831 0.575435
C77   C     C_R   0.562372 0.182309 0.136712 0.583719
C78   C     C_R   0.463606 0.179768 0.860506 0.603747
C79   C     C_R   0.062372 0.682309 0.136712 0.583720
C80   C     C_R   0.963606 0.679768 0.860506 0.603747
C81   C     C_R   0.738841 0.366201 0.167932 0.611262
C82   C     C_R   0.261891 0.362436 0.833845 0.617582
C83   C     C_R   0.238841 0.866201 0.167932 0.611263
C84   C     C_R   0.761891 0.862436 0.833845 0.617582
C85   C     C_1   0.482104 0.177394 0.593306 0.146961
C86   C     C_1   0.517444 0.177307 0.406482 0.144077
C87   C     C_1   0.982104 0.677394 0.593306 0.146960
C88   C     C_1   0.017445 0.677307 0.406482 0.144072
C89   C     C_1   0.505869 0.177471 0.465373 0.027575
C90   C     C_1   0.493506 0.177509 0.534363 0.028084
C91   C     C_1   0.005869 0.677471 0.465373 0.027579
C92   C     C_1   0.993506 0.677509 0.534363 0.028090
C93   C     C_3   0.711738 0.543001 0.525935 -0.272103
C94   C     C_3   0.288204 0.542479 0.473765 -0.271945
C95   C     C_3   0.211738 0.043002 0.525935 -0.272103
C96   C     C_3   0.788204 0.042478 0.473765 -0.271944
Cr1   Cr    Cr6+3 0.765780 0.160710 0.267420 1.085753
Cr2   Cr    Cr6+3 0.234220 0.160710 0.732580 1.082488
Cr3   Cr    Cr6+3 0.265780 0.660710 0.267420 1.085759
Cr4   Cr    Cr6+3 0.734220 0.660710 0.732580 1.082489
Cr5   Cr    Cr6+3 0.612200 0.009560 0.248850 1.140382
Cr6   Cr    Cr6+3 0.387800 0.009560 0.751150 1.152082
Cr7   Cr    Cr6+3 0.112200 0.509560 0.248850 1.140368
Cr8   Cr    Cr6+3 0.887800 0.509560 0.751150 1.152078
Cr9   Cr    Cr6+3 0.616030 0.323720 0.248510 1.138265
Cr10  Cr    Cr6+3 0.383970 0.323720 0.751490 1.161534
Cr11  Cr    Cr6+3 0.116030 0.823720 0.248510 1.138265
Cr12  Cr    Cr6+3 0.883970 0.823720 0.751490 1.161534
H1    H     H_    0.703279 0.632916 0.545162 0.141511
H2    H     H_    0.296591 0.632258 0.454233 0.141967
H3    H     H_    0.203280 0.132917 0.545162 0.141510
H4    H     H_    0.796591 0.132257 0.454233 0.141969
H5    H     H_    0.716094 0.230111 0.459369 0.077497
H6    H     H_    0.284113 0.229855 0.541262 0.077027
H7    H     H_    0.216094 0.730112 0.459369 0.077497
H8    H     H_    0.784113 0.729855 0.541262 0.077027
H9    H     H_    0.847844 0.342836 0.450254 0.184260
H10   H     H_    0.152129 0.343657 0.549991 0.184087
H11   H     H_    0.347843 0.842834 0.450255 0.184239
H12   H     H_    0.652129 0.843657 0.549991 0.184078
H13   H     H_    0.471461 0.372578 0.943812 0.229966
H14   H     H_    0.569358 0.367178 0.049783 0.221027
H15   H     H_    0.971461 0.872577 0.943812 0.229966
H16   H     H_    0.069358 0.867178 0.049783 0.221027
H17   H     H_    0.550888 0.337871 0.929035 0.146422
H18   H     H_    0.484975 0.346662 0.058267 0.151271
H19   H     H_    0.050888 0.837871 0.929035 0.146421
H20   H     H_    0.984975 0.846662 0.058267 0.151271
H21   H     H_    0.437610 0.162851 0.088327 0.229261
H22   H     H_    0.589892 0.138895 0.903950 0.214100
H23   H     H_    0.937610 0.662851 0.088327 0.229260
H24   H     H_    0.089892 0.638895 0.903950 0.214100
H25   H     H_    0.602088 0.018253 0.037168 0.120328
H26   H     H_    0.424364 0.028280 0.960698 0.156688
H27   H     H_    0.102088 0.518253 0.037168 0.120328
H28   H     H_    0.924364 0.528280 0.960698 0.156688
H29   H     H_    0.664815 0.502199 0.541972 0.171330
H30   H     H_    0.335134 0.501305 0.457816 0.171209
H31   H     H_    0.164815 0.002200 0.541972 0.171331
H32   H     H_    0.835134 0.001304 0.457816 0.171210
H33   H     H_    0.741298 0.606245 0.427119 0.152035
H34   H     H_    0.258634 0.606284 0.572358 0.152086
H35   H     H_    0.241299 0.106245 0.427119 0.152034
H36   H     H_    0.758635 0.106284 0.572358 0.152085
H37   H     H_    0.347892 0.082598 0.519303 0.134604
H38   H     H_    0.651987 0.083053 0.480220 0.134806
H39   H     H_    0.847892 0.582598 0.519303 0.134604
H40   H     H_    0.151986 0.583052 0.480220 0.134805
H41   H     H_    0.796624 0.279660 0.560100 0.228317
H42   H     H_    0.203350 0.279605 0.440419 0.227832
H43   H     H_    0.296624 0.779660 0.560100 0.228317
H44   H     H_    0.703349 0.779605 0.440419 0.227832
H45   H     H_    0.715959 0.311559 0.590148 0.194350
H46   H     H_    0.283967 0.310812 0.410133 0.194103
H47   H     H_    0.215959 0.811560 0.590148 0.194349
H48   H     H_    0.783966 0.810812 0.410133 0.194105
H49   H     H_    0.662553 0.332736 0.480285 0.182029
H50   H     H_    0.337482 0.332124 0.519894 0.181582
H51   H     H_    0.162553 0.832737 0.480285 0.182028
H52   H     H_    0.837482 0.832123 0.519894 0.181582
O1    O     O_R   0.783100 0.287550 0.345460 -0.533549
O2    O     O_R   0.216900 0.287550 0.654540 -0.534097
O3    O     O_R   0.283100 0.787550 0.345460 -0.533546
O4    O     O_R   0.716900 0.787550 0.654540 -0.534098
O5    O     O_R   0.554710 0.081900 0.170950 -0.451033
O6    O     O_R   0.445290 0.081900 0.829050 -0.457357
O7    O     O_R   0.054710 0.581900 0.170950 -0.451035
O8    O     O_R   0.945290 0.581900 0.829050 -0.457358
O9    O     O_R   0.545650 0.284910 0.163740 -0.531386
O10   O     O_R   0.454350 0.284910 0.836260 -0.517161
O11   O     O_R   0.045650 0.784910 0.163740 -0.531386
O12   O     O_R   0.954350 0.784910 0.836260 -0.517161
O13   O     O_R   0.677950 0.374280 0.185410 -0.494480
O14   O     O_R   0.322050 0.374280 0.814590 -0.450919
O15   O     O_R   0.177950 0.874280 0.185410 -0.494481
O16   O     O_R   0.822050 0.874280 0.814590 -0.450920
O17   O     O_3   0.664670 0.164660 0.254930 -0.350034
O18   O     O_3   0.335330 0.164660 0.745070 -0.330072
O19   O     O_3   0.164670 0.664660 0.254930 -0.350032
O20   O     O_3   0.835330 0.664660 0.745070 -0.330071
O21   O     O_R   0.760020 0.037400 0.337700 -0.526917
O22   O     O_R   0.239980 0.037400 0.662300 -0.526478
O23   O     O_R   0.260020 0.537400 0.337700 -0.526917
O24   O     O_R   0.739980 0.537400 0.662300 -0.526478
O25   O     O_R   0.666600 0.921990 0.332020 -0.412781
O26   O     O_R   0.333400 0.921990 0.667980 -0.412771
O27   O     O_R   0.166600 0.421990 0.332020 -0.412782
O28   O     O_R   0.833400 0.421990 0.667980 -0.412772
O29   O     O_R   0.557260 0.082670 0.312540 -0.462848
O30   O     O_R   0.442740 0.082670 0.687460 -0.470463
O31   O     O_R   0.057260 0.582670 0.312540 -0.462860
O32   O     O_R   0.942740 0.582670 0.687460 -0.470467
O33   O     O_R   0.548410 0.285740 0.316480 -0.454425
O34   O     O_R   0.451590 0.285740 0.683520 -0.461641
O35   O     O_R   0.048410 0.785740 0.316480 -0.454423
O36   O     O_R   0.951590 0.785740 0.683520 -0.461640
O37   O     O_R   0.680500 0.375040 0.327000 -0.431004
O38   O     O_R   0.319500 0.375040 0.673000 -0.433322
O39   O     O_R   0.180500 0.875040 0.327000 -0.431005
O40   O     O_R   0.819500 0.875040 0.673000 -0.433322
O41   O     O_R   0.780350 0.286720 0.192720 -0.460288
O42   O     O_R   0.219650 0.286720 0.807280 -0.484432
O43   O     O_R   0.280350 0.786720 0.192720 -0.460282
O44   O     O_R   0.719650 0.786720 0.807280 -0.484430
O45   O     O_R   0.757470 0.036630 0.196110 -0.460322
O46   O     O_R   0.242530 0.036630 0.803890 -0.474692
O47   O     O_R   0.257470 0.536630 0.196110 -0.460322
O48   O     O_R   0.742530 0.536630 0.803890 -0.474692
O49   O     O_R   0.663840 0.921160 0.179280 -0.512963
O50   O     O_R   0.336160 0.921160 0.820720 -0.492164
O51   O     O_R   0.163840 0.421160 0.179280 -0.512963
O52   O     O_R   0.836160 0.421160 0.820720 -0.492164
O53   O     O_3   0.894387 0.429672 0.555581 -0.634724
H53   H     H_    0.933555 0.450626 0.530336 0.368474
O54   O     O_3   0.105614 0.430226 0.444433 -0.634851
H54   H     H_    0.066478 0.451076 0.469788 0.368486
O55   O     O_3   0.394387 0.929672 0.555582 -0.634726
H55   H     H_    0.433555 0.950627 0.530336 0.368465
O56   O     O_3   0.605614 0.930227 0.444433 -0.634854
H56   H     H_    0.566478 0.951076 0.469789 0.368479
S1    S     S_3+6 0.361615 0.201646 0.977032 -0.081286
O57   O     O_2   0.324267 0.180397 0.908302 -0.310168
O58   O     O_2   0.319754 0.158673 0.031795 -0.351709
O59   O     O_3   0.374656 0.348142 0.990167 -0.583088
H57   H     H_    0.373387 0.360170 0.040176 0.344586
S2    S     S_3+6 0.668792 0.183600 0.012377 -0.086604
O60   O     O_2   0.708260 0.176705 0.081037 -0.301861
O61   O     O_2   0.709463 0.129384 0.959955 -0.335140
O62   O     O_3   0.655702 0.324676 0.987542 -0.607529
H58   H     H_    0.658737 0.324041 0.937267 0.341964
S3    S     S_3+6 0.861615 0.701646 0.977032 -0.081286
O63   O     O_2   0.824267 0.680397 0.908302 -0.310168
O64   O     O_2   0.819754 0.658673 0.031795 -0.351709
O65   O     O_3   0.874656 0.848142 0.990167 -0.583088
H59   H     H_    0.873387 0.860170 0.040176 0.344585
S4    S     S_3+6 0.168792 0.683600 0.012377 -0.086604
O66   O     O_2   0.208259 0.676705 0.081037 -0.301862
O67   O     O_2   0.209463 0.629384 0.959955 -0.335140
O68   O     O_3   0.155702 0.824676 0.987542 -0.607529
H60   H     H_    0.158737 0.824041 0.937267 0.341963
O69   O     O_3   0.547304 0.980027 0.918252 -0.690976
H61   H     H_    0.523805 0.935301 0.952246 0.313917
O70   O     O_3   0.468938 0.993934 0.079112 -0.674264
H62   H     H_    0.503390 0.946798 0.058214 0.313595
O71   O     O_3   0.047304 0.480027 0.918252 -0.690977
H63   H     H_    0.023805 0.435300 0.952246 0.313917
O72   O     O_3   0.968938 0.493934 0.079112 -0.674268
H64   H     H_    0.003390 0.446798 0.058214 0.313595
S5    S     S_3+6 0.624855 0.563059 0.408282 0.019386
O73   O     O_2   0.596043 0.668310 0.443170 -0.269858
O74   O     O_2   0.625424 0.592742 0.333394 -0.206472
O75   O     O_3   0.574095 0.445774 0.417082 -0.513729
H65   H     H_    0.557468 0.455236 0.462881 0.334981
S6    S     S_3+6 0.375120 0.562468 0.591265 0.018750
O76   O     O_2   0.403711 0.667720 0.556223 -0.270659
O77   O     O_2   0.374671 0.591963 0.666145 -0.205748
O78   O     O_3   0.426019 0.445090 0.582418 -0.514695
H66   H     H_    0.442527 0.454650 0.536565 0.334950
S7    S     S_3+6 0.124856 0.063060 0.408281 0.019387
O79   O     O_2   0.096043 0.168311 0.443170 -0.269849
O80   O     O_2   0.125424 0.092743 0.333394 -0.206475
O81   O     O_3   0.074096 0.945775 0.417081 -0.513727
H67   H     H_    0.057468 0.955236 0.462880 0.334981
S8    S     S_3+6 0.875120 0.062467 0.591265 0.018751
O82   O     O_2   0.903711 0.167720 0.556223 -0.270651
O83   O     O_2   0.874671 0.091963 0.666145 -0.205749
O84   O     O_3   0.926019 0.945089 0.582417 -0.514696
H68   H     H_    0.942527 0.954650 0.536564 0.334950
S9    S     S_3+6 0.365321 0.018628 0.385876 -0.037451
O85   O     O_2   0.329870 0.013368 0.314549 -0.252349
O86   O     O_2   0.370341 0.147647 0.406225 -0.347608
O87   O     O_3   0.442804 0.960515 0.383602 -0.511592
H69   H     H_    0.435411 0.879650 0.363867 0.372429
S10   S     S_3+6 0.634829 0.019806 0.613976 -0.039721
O88   O     O_2   0.670752 0.015325 0.685128 -0.253163
O89   O     O_2   0.629251 0.148614 0.592992 -0.348756
O90   O     O_3   0.557625 0.961498 0.617072 -0.512945
H70   H     H_    0.565427 0.881005 0.637390 0.372057
S11   S     S_3+6 0.865320 0.518632 0.385876 -0.037459
O91   O     O_2   0.829867 0.513375 0.314550 -0.252376
O92   O     O_2   0.870341 0.647649 0.406226 -0.347608
O93   O     O_3   0.942802 0.460516 0.383600 -0.511610
H71   H     H_    0.935410 0.379677 0.363830 0.372450
S12   S     S_3+6 0.134828 0.519805 0.613976 -0.039723
O94   O     O_2   0.170751 0.515323 0.685128 -0.253172
O95   O     O_2   0.129251 0.648613 0.592993 -0.348756
O96   O     O_3   0.057624 0.461496 0.617070 -0.512948
H72   H     H_    0.065426 0.381011 0.637401 0.372063

loop_
_geom_bond_atom_site_label_1
_geom_bond_atom_site_label_2
_ccdc_geom_bond_type
C58   C62   S    
C39   C51   S    
C73   O45   A    
C67   C83   S    
C8    C24   S    
C83   O15   A    
Cr10  O14   S    
S10   O90   S    
Cr4   O44   S    
C14   C18   S    
C7    S7    S    
C35   C36   S    
C8    C96   S    
C40   S4    S    
S7    O81   S    
C43   C51   S    
O59   H57   S    
C15   H43   S    
C42   H21   S    
Cr4   O48   S    
Cr7   O31   S    
C9    C25   S    
Cr10  O34   S    
Cr11  O11   S    
O53   H53   S    
S4    O66   D    
C44   H23   S    
C15   C19   S    
C96   H4    S    
Cr1   O21   S    
C11   C19   S    
S5    O73   D    
Cr6   O26   S    
C71   O3    A    
C12   C28   S    
C81   O41   A    
C38   S2    S    
C13   C29   S    
S12   O94   D    
C36   H16   S    
C69   O1    A    
S10   O88   D    
S1    O59   S    
Cr5   O29   S    
C93   H1    S    
C33   H13   S    
C65   C81   S    
C74   O46   A    
C41   H22   S    
C10   O54   S    
C38   H25   S    
Cr7   O19   S    
C72   O40   A    
C77   O5    A    
O70   H62   S    
Cr8   O32   S    
C42   O70   S    
C78   O10   A    
C49   C78   S    
Cr12  O20   S    
C3    C18   S    
C94   H2    S    
O69   H61   S    
C2    O22   A    
S11   O93   S    
C79   O11   A    
C37   C42   S    
S2    O62   S    
C51   C80   S    
S6    O77   D    
S10   O89   D    
C44   O72   S    
C59   C67   T    
C55   C74   S    
C75   O47   A    
C58   C66   T    
C40   C43   S    
O68   H60   S    
O87   H69   S    
C6    C94   S    
C55   C63   T    
C16   H48   S    
S11   O91   D    
C56   C64   T    
C23   C27   S    
C6    H34   S    
C52   C79   S    
C35   H15   S    
C39   S3    S    
C11   O55   S    
C12   O56   S    
C15   H47   S    
C36   C52   S    
C25   S11   S    
Cr10  O38   S    
C46   C85   S    
Cr3   O43   S    
C71   O39   A    
C76   O52   A    
Cr9   O37   S    
C20   C96   S    
C70   O38   A    
Cr9   O13   S    
S9    O85   D    
C48   O36   A    
C69   O37   A    
Cr10  O10   S    
C12   C20   S    
Cr12  O36   S    
C36   H20   S    
C10   H40   S    
C53   C61   T    
C46   O30   A    
Cr5   O25   S    
C70   O2    A    
C31   H7    S    
C22   C70   S    
Cr2   O2    S    
C87   C92   T    
C46   O34   A    
C39   H28   S    
C45   O33   A    
Cr8   O28   S    
C40   H27   S    
C80   O8    A    
C78   O6    A    
Cr11  O35   S    
S5    O74   D    
Cr3   O23   S    
C68   C84   S    
C82   O14   A    
Cr7   O27   S    
Cr12  O40   S    
C38   C41   S    
Cr4   O4    S    
C28   H12   S    
Cr7   O51   S    
O56   H56   S    
C82   O42   A    
O71   H63   S    
O93   H71   S    
C28   S10   S    
C11   H37   S    
C29   H49   S    
C54   C62   T    
S6    O78   S    
C9    O53   S    
O55   H55   S    
C40   C52   S    
C45   O29   A    
C21   C29   S    
C15   C31   S    
C9    H39   S    
C10   C26   S    
C32   H8    S    
C48   O32   A    
C21   C69   S    
Cr1   O17   S    
C94   H30   S    
C81   O13   A    
Cr2   O22   S    
Cr5   O5    S    
O54   H54   S    
C2    O26   A    
Cr3   O19   S    
O62   H58   S    
C7    C95   S    
C5    S5    S    
C66   C82   S    
S1    O57   D    
C37   C49   S    
C5    H33   S    
O96   H72   S    
C88   C91   T    
C11   C27   S    
C34   H18   S    
C75   O51   A    
C14   H42   S    
C13   H41   S    
C33   H17   S    
C33   C34   S    
C72   O4    A    
C48   C87   S    
C8    H36   S    
C16   C20   S    
Cr7   O7    S    
C4    O24   A    
C35   H19   S    
C13   H45   S    
Cr6   O6    S    
Cr9   O9    S    
C42   C50   S    
Cr3   O3    S    
C4    C17   S    
S8    O83   D    
C27   S9    S    
C74   O50   A    
S2    O61   D    
Cr12  O12   S    
C6    S6    S    
C35   C51   S    
Cr6   O18   S    
C95   H31   S    
C85   C90   T    
C53   C76   S    
C17   C93   S    
O65   H59   S    
C80   O12   A    
C39   C44   S    
S7    O79   D    
Cr4   O20   S    
C50   C77   S    
C79   O7    A    
O78   H66   S    
C83   O43   A    
C19   C95   S    
C24   C72   S    
Cr9   O17   S    
Cr2   O18   S    
C30   H6    S    
C47   O35   A    
C30   H50   S    
C77   O9    A    
C21   C25   S    
C43   H24   S    
C1    C20   S    
C1    O21   A    
C56   C73   S    
C22   C30   S    
Cr11  O19   S    
C2    C19   S    
C31   H51   S    
C26   S12   S    
Cr2   O42   S    
S12   O96   S    
Cr6   O50   S    
C7    H35   S    
C24   C28   S    
Cr1   O41   S    
C33   C49   S    
S7    O80   D    
C86   C89   T    
C3    O27   A    
C44   C52   S    
C96   H32   S    
C34   C50   S    
C5    C93   S    
O72   H64   S    
C16   H44   S    
C57   C61   S    
O81   H67   S    
C38   C50   S    
C27   H11   S    
C16   C32   S    
C41   C49   S    
C26   H10   S    
C59   C63   S    
S4    O68   S    
C13   C17   S    
C43   O71   S    
C60   C64   S    
O84   H68   S    
Cr5   O49   S    
C47   C88   S    
C4    O28   A    
S6    O76   D    
S9    O86   D    
C45   C86   S    
S8    O82   D    
C14   C30   S    
Cr8   O8    S    
S1    O58   D    
C12   H38   S    
C84   O16   A    
Cr11  O39   S    
Cr9   O33   S    
C84   O44   A    
C24   C32   S    
Cr8   O20   S    
Cr11  O15   S    
C10   C18   S    
S8    O84   S    
C7    C23   S    
Cr12  O16   S    
S12   O95   D    
Cr6   O30   S    
S4    O67   D    
C73   O49   A    
S3    O65   S    
C9    C17   S    
S11   O92   D    
C47   O31   A    
Cr4   O24   S    
C41   O69   S    
C29   H5    S    
S5    O75   S    
C32   H52   S    
C93   H29   S    
C8    S8    S    
S3    O64   D    
C37   S1    S    
C54   C75   S    
C5    C21   S    
C60   C68   T    
C23   C71   S    
C34   H14   S    
S2    O60   D    
C22   C26   S    
S9    O87   S    
Cr3   O47   S    
S3    O63   D    
C18   C94   S    
Cr8   O52   S    
C37   H26   S    
Cr2   O46   S    
C95   H3    S    
C1    O25   A    
Cr1   O45   S    
C89   C90   S    
O90   H70   S    
C3    O23   A    
Cr10  O18   S    
Cr5   O17   S    
C14   H46   S    
C91   C92   S    
C76   O48   A    
Cr1   O1    S    
C23   C31   S    
O75   H65   S    
C57   C65   T    
C25   H9    S    
C6    C22   S    
