data_mof_unit_33784.cif
_audit_creation_date              2012-10-26T19:04:43-0400
_audit_creation_method            fapswitch 2.2
_symmetry_space_group_name_H-M    P1
_symmetry_Int_Tables_number       1
_space_group_crystal_system       triclinic
_cell_length_a                    9.626062
_cell_length_b                    10.835175
_cell_length_c                    13.602389
_cell_angle_alpha                 94.826786
_cell_angle_beta                  73.920319
_cell_angle_gamma                 91.493442
_cell_volume                      1358.38558772

loop_
_atom_site_label
_atom_site_type_symbol
_atom_type_description
_atom_site_fract_x
_atom_site_fract_y
_atom_site_fract_z
_atom_type_partial_charge
C1    C     C_R   0.500213 0.737562 0.503325 0.647605
C2    C     C_R   0.380903 0.513360 0.814333 -0.009036
C3    C     C_R   0.290075 0.886005 0.666276 0.284965
C4    C     C_R   0.423650 0.504772 0.699952 0.586012
C5    C     C_R   0.163450 0.948012 0.721166 -0.113647
C6    C     C_R   0.142667 0.069330 0.703860 -0.188668
C7    C     C_R   0.251827 0.132200 0.637073 -0.111289
C8    C     C_R   0.376208 0.068873 0.574396 -0.025438
C9    C     C_R   0.388541 0.940696 0.582964 -0.024969
C10   C     C_R   0.500493 0.872291 0.510341 0.007299
C11   C     C_R   0.605685 0.932041 0.436418 0.228946
C12   C     C_R   0.434280 0.491723 0.979123 -0.008643
C13   C     C_R   0.602231 0.060266 0.436874 -0.139976
C14   C     C_R   0.490293 0.128937 0.505197 -0.043033
C15   C     C_R   0.903710 0.322199 0.369832 -0.086976
C16   C     C_R   0.497059 0.262754 0.501911 0.516326
C17   C     C_R   0.997640 0.229575 0.311542 0.235060
C18   C     C_R   0.140365 0.231117 0.313412 -0.136833
C19   C     C_R   0.190647 0.323905 0.371207 -0.135849
C20   C     C_R   0.097108 0.412312 0.437353 0.113382
C21   C     C_R   0.947755 0.411515 0.437543 0.060890
C22   C     C_R   0.909217 0.593759 0.549802 0.408272
C23   C     C_R   0.483025 0.506952 0.872478 0.011195
C24   C     C_R   0.055697 0.587613 0.555338 -0.004689
C25   C     C_R   0.576041 0.494523 0.301193 0.541606
C26   C     C_R   0.786810 0.417915 0.026832 0.257786
C27   C     C_R   0.614586 0.476162 0.189422 -0.037579
C28   C     C_R   0.233792 0.526453 0.867149 -0.111743
C29   C     C_R   0.187960 0.526379 0.973446 -0.111492
C30   C     C_R   0.284807 0.502250 0.028421 -0.122570
C31   C     C_3   0.411337 0.825449 0.772718 -0.112444
C32   C     C_3   0.896919 0.807757 0.590132 -0.148229
C33   C     C_3   0.903622 0.169965 0.177731 -0.139277
C34   C     C_R   0.538895 0.472643 0.032573 -0.029391
C35   C     C_3   0.910940 0.252693 0.932414 -0.151175
C36   C     C_3   0.715567 0.724496 0.830915 -0.120965
C37   C     C_3   0.840689 0.873264 0.356817 -0.077735
C38   C     C_R   0.684408 0.447866 0.976187 0.004012
C39   C     C_R   0.730103 0.473200 0.873663 -0.123846
C40   C     C_R   0.632590 0.525529 0.830489 0.273089
C41   C     C_R   0.506473 0.486233 0.139657 -0.144891
C42   C     C_R   0.753971 0.440219 0.132954 -0.121386
Cu1   Cu    Cu3+1 0.359340 0.500010 0.500010 0.940586
Cu2   Cu    Cu3+1 0.640660 0.499990 0.499990 1.029947
H1    H     H_    0.085646 0.904439 0.782024 0.107261
H2    H     H_    0.234259 0.229622 0.635986 0.170949
H3    H     H_    0.682915 0.105954 0.379298 0.163442
H4    H     H_    0.983051 0.814509 0.516783 0.084078
H5    H     H_    0.943627 0.822227 0.656069 0.106020
H6    H     H_    0.819306 0.884052 0.596993 0.129777
H7    H     H_    0.799017 0.322101 0.358276 0.169998
H8    H     H_    0.981230 0.236461 0.132948 0.146925
H9    H     H_    0.793247 0.209635 0.206368 0.105677
H10   H     H_    0.897351 0.088022 0.124480 0.141483
H11   H     H_    0.214305 0.161212 0.267379 0.134812
H12   H     H_    0.045003 0.117051 0.746557 0.099143
H13   H     H_    0.304209 0.323107 0.360473 0.188001
H14   H     H_    0.844615 0.477880 0.834807 0.149534
H15   H     H_    0.876647 0.252651 0.860926 0.120724
H16   H     H_    0.834855 0.194849 0.987495 0.096209
H17   H     H_    0.018878 0.208787 0.913431 0.142944
H18   H     H_    0.399819 0.513322 0.185496 0.138934
H19   H     H_    0.153580 0.538215 0.826420 0.156409
H20   H     H_    0.825044 0.711514 0.840623 0.114925
H21   H     H_    0.634742 0.740313 0.907325 0.094617
H22   H     H_    0.718350 0.810140 0.791481 0.127791
H23   H     H_    0.097227 0.656550 0.602088 0.136854
H24   H     H_    0.864687 0.953390 0.406700 0.122568
H25   H     H_    0.910418 0.882145 0.277782 0.170825
H26   H     H_    0.871470 0.786073 0.382391 0.145827
H27   H     H_    0.239282 0.492616 0.109269 0.105730
H28   H     H_    0.075692 0.542715 0.013931 0.170119
H29   H     H_    0.836953 0.427914 0.171074 0.121710
H30   H     H_    0.356625 0.900528 0.830597 0.097696
H31   H     H_    0.519503 0.857292 0.728193 0.131944
H32   H     H_    0.427313 0.749176 0.816949 0.164297
N1    N     N_R   0.852480 0.498790 0.499000 -0.232714
N2    N     N_R   0.148360 0.498710 0.498970 -0.276008
O1    O     O_R   0.381190 0.680360 0.500010 -0.491390
O2    O     O_3   0.820629 0.694180 0.594174 -0.492924
O3    O     O_3   0.949864 0.129877 0.259140 -0.596656
O4    O     O_3   0.922875 0.374956 0.973743 -0.605871
O5    O     O_3   0.678590 0.622951 0.770103 -0.504781
O6    O     O_3   0.695487 0.863594 0.353584 -0.561132
O7    O     O_R   0.618760 0.680340 0.500000 -0.426538
O8    O     O_R   0.323240 0.499990 0.650990 -0.502425
O9    O     O_R   0.560820 0.499960 0.650980 -0.424154
O10   O     O_R   0.381240 0.319660 0.500000 -0.539447
O11   O     O_R   0.618810 0.319640 0.499990 -0.533165
O12   O     O_R   0.439180 0.500040 0.349020 -0.530281
O13   O     O_R   0.676760 0.500010 0.349010 -0.530508
O14   O     O_3   0.327490 0.783041 0.706114 -0.574440

loop_
_geom_bond_atom_site_label_1
_geom_bond_atom_site_label_2
_ccdc_geom_bond_type
C37   H25   S    
C19   C20   A    
C30   H27   S    
C7    C8    A    
C4    O9    A    
C19   H13   S    
C33   H8    S    
C12   C23   A    
C25   O12   A    
Cu1   O10   S    
Cu2   N1    S    
C5    C6    A    
C36   H22   S    
C4    O8    A    
C36   O5    S    
Cu1   O1    S    
C23   C40   A    
C37   H24   S    
C35   H15   S    
C18   C19   A    
C24   H23   S    
C8    C9    A    
C37   O6    S    
C15   H7    S    
Cu2   O9    S    
C9    C10   A    
C17   O3    S    
C29   H28   S    
C16   O11   A    
C26   O4    S    
C13   C14   A    
C33   H9    S    
C32   H4    S    
C40   O5    S    
C34   C41   A    
C41   H18   S    
C35   O4    S    
C1    O7    A    
C25   O13   A    
Cu1   O12   S    
C7    H2    S    
C39   C40   A    
C13   H3    S    
C36   H21   S    
C26   C38   A    
C31   H30   S    
C39   H14   S    
C5    H1    S    
C35   H16   S    
Cu1   N2    S    
C2    C4    S    
Cu1   Cu2   S    
C29   C30   A    
C3    C9    A    
C32   O2    S    
C27   C41   A    
C31   H31   S    
C17   C18   A    
C35   H17   S    
C32   H6    S    
Cu2   O13   S    
C18   H11   S    
C24   N2    A    
C1    O1    A    
C14   C16   S    
C12   C34   A    
Cu2   O7    S    
C26   C42   A    
C33   H10   S    
C15   C17   A    
C28   C29   A    
C42   H29   S    
C8    C14   A    
C12   C30   A    
C34   C38   A    
Cu1   O8    S    
C1    C10   S    
C22   N1    A    
C6    H12   S    
C3    C5    A    
C6    C7    A    
C11   O6    S    
C25   C27   S    
C20   N2    A    
C22   O2    S    
C36   H20   S    
C11   C13   A    
C27   C42   A    
C31   H32   S    
C38   C39   A    
C22   C24   A    
C32   H5    S    
C10   C11   A    
C28   H19   S    
C15   C21   A    
C20   C21   A    
C31   O14   S    
C21   N1    A    
C2    C23   A    
C16   O10   A    
C3    O14   S    
C2    C28   A    
C37   H26   S    
C33   O3    S    
Cu2   O11   S    
