data_mof_unit_50804.cif
_audit_creation_date              2012-12-10T17:15:52-0500
_audit_creation_method            fapswitch 2.2
_symmetry_space_group_name_H-M    P1
_symmetry_Int_Tables_number       1
_space_group_crystal_system       triclinic
_cell_length_a                    10.144315
_cell_length_b                    10.63124
_cell_length_c                    10.677965
_cell_angle_alpha                 90.02994
_cell_angle_beta                  94.847157
_cell_angle_gamma                 81.784598
_cell_volume                      1135.61090546

loop_
_atom_site_label
_atom_site_type_symbol
_atom_type_description
_atom_site_fract_x
_atom_site_fract_y
_atom_site_fract_z
_atom_type_partial_charge
C1    C     C_R   0.444597 0.504731 0.266558 0.885625
C2    C     C_R   0.522142 0.062160 0.377667 0.028846
C3    C     C_R   0.495853 0.128736 0.489293 -0.313050
C4    C     C_R   0.470060 0.068535 0.598302 0.498113
C5    C     C_R   0.470059 0.940045 0.598780 0.510966
C6    C     C_R   0.499283 0.871696 0.490911 -0.312506
C7    C     C_2   0.414517 0.488601 0.133598 -0.316136
C8    C     C_2   0.509367 0.425705 0.068293 -0.331448
C9    C     C_2   0.582609 0.455238 0.866456 -0.419543
C10   C     C_2   0.487820 0.417546 0.933038 0.535581
C11   C     C_2   0.072829 0.489031 0.489932 -0.132330
C12   C     C_R   0.498454 0.260776 0.496242 0.970957
C13   C     C_2   0.927395 0.510080 0.510977 -0.119856
C14   C     C_R   0.554784 0.483889 0.733280 0.996530
C15   C     C_R   0.500149 0.739382 0.497900 0.972359
C16   C     C_R   0.543407 0.123710 0.265522 -0.191028
C17   C     C_R   0.567504 0.054696 0.156595 -0.298588
C18   C     C_R   0.571241 0.921570 0.156770 0.552090
C19   C     C_R   0.546588 0.861490 0.267077 -0.171576
C20   C     C_R   0.523988 0.930345 0.378507 -0.058054
H1    H     H_    0.315955 0.525180 0.089568 0.180269
H2    H     H_    0.891498 0.578841 0.579951 0.166406
H3    H     H_    0.108837 0.419803 0.421430 0.160866
H4    H     H_    0.880037 0.384040 0.384098 0.163765
H5    H     H_    0.119891 0.616286 0.615588 0.182103
H6    H     H_    0.539749 0.225608 0.260565 0.152335
H7    H     H_    0.581110 0.106317 0.072565 0.119740
H8    H     H_    0.544846 0.760064 0.263934 0.158971
H9    H     H_    0.608654 0.390581 0.111861 0.167618
H10   H     H_    0.679424 0.469420 0.911783 0.110064
N1    N     N_2   0.157290 0.551390 0.551110 -0.180192
N2    N     N_2   0.842740 0.448550 0.448960 -0.192084
O1    O     O_R   0.568950 0.489660 0.307530 -0.613218
O2    O     O_R   0.348880 0.522640 0.340350 -0.626232
O3    O     O_R   0.610060 0.300270 0.483590 -0.622327
O4    O     O_R   0.389990 0.333260 0.516410 -0.592852
O5    O     O_R   0.651120 0.477360 0.659650 -0.630127
O6    O     O_R   0.431050 0.510340 0.692470 -0.519295
O7    O     O_R   0.610010 0.666740 0.483590 -0.627807
O8    O     O_R   0.389940 0.699730 0.516410 -0.579439
Zn1   Zn    Zn3+2 0.646940 0.477980 0.478090 0.940008
Zn2   Zn    Zn3+2 0.353060 0.522020 0.521910 1.006664
F1    F     F_    0.449649 0.134323 0.705424 -0.681497
O9    O     O_3   0.588099 0.846213 0.050925 -0.605192
C21   C     C_3   0.673917 0.890911 0.968970 0.136705
H11   H     H_    0.761517 0.925352 0.021220 0.113374
H12   H     H_    0.617331 0.968236 0.907612 0.202212
C22   C     C_3   0.727092 0.782388 0.885562 -0.752528
H13   H     H_    0.643038 0.743028 0.833573 0.288507
H14   H     H_    0.790075 0.817371 0.816794 0.197457
H15   H     H_    0.788428 0.705474 0.943920 0.231913
F2    F     F_    0.443819 0.881394 0.705095 -0.648211
O10   O     O_3   0.363116 0.399764 0.875792 -0.569407
C23   C     C_3   0.320097 0.290550 0.924964 0.149506
H16   H     H_    0.294086 0.304966 0.023438 0.119425
H17   H     H_    0.398253 0.206043 0.921789 0.191502
C24   C     C_3   0.194831 0.263979 0.846682 -0.706714
H18   H     H_    0.214723 0.252314 0.746366 0.296340
H19   H     H_    0.162590 0.175642 0.881182 0.203985
H20   H     H_    0.112949 0.344276 0.854277 0.220436

loop_
_geom_bond_atom_site_label_1
_geom_bond_atom_site_label_2
_ccdc_geom_bond_type
H5    N1    S    
C9    C14   S    
H4    N2    S    
C5    F2    S    
O10   C23   S    
N1    Zn2   S    
C18   O9    S    
C12   O4    A    
C6    C20   A    
C9    C10   D    
C13   N2    D    
O4    Zn2   S    
C19   C20   A    
O2    Zn2   S    
N2    Zn1   S    
O1    Zn1   S    
O8    Zn2   S    
C17   C18   A    
C11   N1    D    
C7    C8    D    
O7    Zn1   S    
C1    C7    S    
C21   H11   S    
O9    C21   S    
C14   O5    A    
C16   H6    S    
C19   H8    S    
C11   C13   S    
C15   O7    A    
C24   H18   S    
C9    H10   S    
C8    H9    S    
C22   H14   S    
C22   H13   S    
C4    F1    S    
C13   H2    S    
O6    Zn2   S    
C2    C3    A    
C21   H12   S    
O5    Zn1   S    
C5    C6    A    
O3    Zn1   S    
C23   H17   S    
C15   O8    A    
C24   H19   S    
C14   O6    A    
C1    O1    A    
C3    C4    A    
C17   H7    S    
C2    C16   A    
C1    O2    A    
C8    C10   S    
C18   C19   A    
C21   C22   S    
C11   H3    S    
C10   O10   S    
C23   H16   S    
C16   C17   A    
C24   H20   S    
C3    C12   S    
C6    C15   S    
C7    H1    S    
C2    C20   A    
C22   H15   S    
C4    C5    A    
C12   O3    A    
C23   C24   S    
