data_mof_unit_39544.cif
_audit_creation_date              2012-10-26T19:35:37-0400
_audit_creation_method            fapswitch 2.2
_symmetry_space_group_name_H-M    P1
_symmetry_Int_Tables_number       1
_space_group_crystal_system       triclinic
_cell_length_a                    15.869936
_cell_length_b                    10.834788
_cell_length_c                    9.552451
_cell_angle_alpha                 90.539452
_cell_angle_beta                  90.145061
_cell_angle_gamma                 90.220356
_cell_volume                      1642.42867382

loop_
_atom_site_label
_atom_site_type_symbol
_atom_type_description
_atom_site_fract_x
_atom_site_fract_y
_atom_site_fract_z
_atom_type_partial_charge
C1    C     C_R   0.498585 0.262452 0.499310 0.541221
C2    C     C_R   0.491237 0.129467 0.496942 0.010590
C3    C     C_R   0.499789 0.063010 0.370782 -0.169999
C4    C     C_R   0.339916 0.499808 0.499877 0.548508
C5    C     C_R   0.500365 0.934542 0.371815 -0.161312
C6    C     C_R   0.494775 0.871101 0.499441 0.039562
C7    C     C_R   0.476983 0.938435 0.621317 0.043537
C8    C     C_3   0.514763 0.938107 0.765490 0.158368
C9    C     C_3   0.508863 0.078474 0.762878 -0.222644
C10   C     C_R   0.562060 0.560068 0.074608 0.087434
C11   C     C_R   0.436743 0.444323 0.072831 0.375219
C12   C     C_3   0.083320 0.500923 0.503501 0.001131
C13   C     C_R   0.436239 0.447277 0.923953 0.008762
C14   C     C_R   0.562536 0.558576 0.927094 0.126064
C15   C     C_3   0.653872 0.526849 0.922508 -0.257623
C16   C     C_R   0.500068 0.737745 0.500442 0.563038
C17   C     C_3   0.653823 0.531056 0.080747 -0.267968
C18   C     C_R   0.660081 0.500105 0.500157 0.550795
C19   C     C_3   0.970902 0.386369 0.523629 -0.164592
C20   C     C_3   0.028199 0.426213 0.399877 -0.132030
C21   C     C_1   0.250345 0.500006 0.500049 0.023900
C22   C     C_1   0.749642 0.500687 0.500401 0.028885
C23   C     C_3   0.972575 0.576560 0.604052 0.042058
C24   C     C_3   0.027293 0.461390 0.626033 0.062715
C25   C     C_3   0.627640 0.868527 0.899533 0.022254
C26   C     C_3   0.649531 0.984061 0.986627 -0.291101
C27   C     C_3   0.695320 0.949906 0.121500 -0.463726
C28   C     C_3   0.375383 0.257975 0.127227 0.007255
C29   C     C_3   0.297813 0.209294 0.048594 -0.280474
C30   C     C_3   0.295472 0.068405 0.046762 -0.465950
C31   C     C_2   0.945930 0.587459 0.238715 0.602278
C32   C     C_2   0.943381 0.661019 0.719301 0.609284
C33   C     C_2   0.056072 0.415295 0.765725 0.614080
C34   C     C_3   0.916764 0.502712 0.501389 0.000341
C35   C     C_3   0.029632 0.617570 0.481401 -0.141872
C36   C     C_3   0.973334 0.542094 0.379330 0.058103
C37   C     C_1   0.174883 0.500353 0.501390 0.023251
C38   C     C_1   0.825110 0.501468 0.500619 0.052534
C39   C     C_R   0.473201 0.065175 0.619131 -0.020068
Cu1   Cu    Cu3+1 0.500000 0.499980 0.640670 0.960099
Cu2   Cu    Cu3+1 0.500000 0.500020 0.359330 0.988676
H1    H     H_    0.051953 0.364766 0.315206 0.145405
H2    H     H_    0.054222 0.712241 0.463888 0.140029
H3    H     H_    0.510446 0.109493 0.272554 0.118291
H4    H     H_    0.509401 0.885713 0.273579 0.131073
H5    H     H_    0.472189 0.892540 0.842197 0.093937
H6    H     H_    0.685880 0.813295 0.887417 0.159410
H7    H     H_    0.581629 0.809990 0.956523 0.114669
H8    H     H_    0.690499 0.046300 0.924571 0.184736
H9    H     H_    0.590921 0.034124 0.014755 0.135573
H10   H     H_    0.656568 0.884984 0.183791 0.154099
H11   H     H_    0.707165 0.034507 0.185216 0.163557
H12   H     H_    0.461993 0.116193 0.837870 0.080985
H13   H     H_    0.756741 0.905892 0.097027 0.164960
H14   H     H_    0.374510 0.218605 0.234044 0.171674
H15   H     H_    0.433906 0.223605 0.075153 0.085030
H16   H     H_    0.239842 0.244311 0.100286 0.185756
H17   H     H_    0.298486 0.242605 0.939117 0.161549
H18   H     H_    0.352584 0.030899 0.995004 0.135223
H19   H     H_    0.239070 0.035882 0.987929 0.177801
H20   H     H_    0.291992 0.032677 0.155214 0.158513
H21   H     H_    0.850237 0.630960 0.109566 0.337568
H22   H     H_    0.845800 0.735482 0.824747 0.328535
H23   H     H_    0.570816 0.126844 0.763606 0.164475
H24   H     H_    0.153287 0.374323 0.893101 0.338720
H25   H     H_    0.385256 0.404045 0.866476 0.137105
H26   H     H_    0.665282 0.432643 0.879511 0.158468
H27   H     H_    0.692942 0.600319 0.874867 0.155595
H28   H     H_    0.667078 0.439755 0.128046 0.167747
H29   H     H_    0.690927 0.609450 0.124936 0.155886
H30   H     H_    0.946283 0.291768 0.541396 0.138814
N1    N     N_R   0.500530 0.500930 0.147930 -0.224552
N2    N     N_R   0.500530 0.500890 0.852020 -0.265288
O1    O     O_R   0.500000 0.319640 0.618810 -0.511777
O2    O     O_3   0.370865 0.388017 0.142037 -0.536985
O3    O     O_2   0.999043 0.613800 0.151419 -0.459287
O4    O     O_R   0.860324 0.599468 0.207806 -0.713754
O5    O     O_2   0.995374 0.715190 0.791998 -0.471469
O6    O     O_R   0.857322 0.677033 0.743578 -0.705741
O7    O     O_2   0.003829 0.386229 0.853333 -0.487506
O8    O     O_R   0.142057 0.406058 0.795342 -0.694594
O9    O     O_R   0.500010 0.319680 0.381230 -0.507938
O10   O     O_R   0.379070 0.499970 0.618770 -0.505350
O11   O     O_R   0.379080 0.500010 0.381190 -0.439772
O12   O     O_R   0.499990 0.680320 0.618770 -0.473533
O13   O     O_R   0.500000 0.680360 0.381190 -0.515568
O14   O     O_R   0.620920 0.499990 0.618810 -0.495707
O15   O     O_R   0.620930 0.500030 0.381230 -0.506065
O16   O     O_3   0.599514 0.897927 0.763112 -0.540881

loop_
_geom_bond_atom_site_label_1
_geom_bond_atom_site_label_2
_ccdc_geom_bond_type
C17   H28   S    
C9    H23   S    
H21   O4    S    
C19   H30   S    
C35   C36   S    
C28   H15   S    
C27   H13   S    
C7    C8    S    
H22   O6    S    
Cu2   O13   S    
C26   C27   S    
C1    O1    A    
Cu1   O14   S    
C28   C29   S    
C26   H9    S    
C5    C6    A    
C15   H27   S    
C10   C17   S    
C22   C38   T    
C9    C39   S    
Cu1   N2    S    
C1    C2    S    
C12   C37   S    
C2    C39   A    
C19   C20   S    
C8    C9    S    
C30   H19   S    
C23   C24   S    
C35   H2    S    
C25   H6    S    
C31   C36   S    
C17   H29   S    
C34   C38   S    
C16   O13   A    
Cu1   O10   S    
C28   H14   S    
C27   H10   S    
C31   O4    S    
C13   H25   S    
C3    H3    S    
C14   N2    A    
C10   C14   A    
C26   H8    S    
C11   N1    A    
C25   C26   S    
Cu2   O11   S    
C5    H4    S    
C18   O15   A    
Cu1   O12   S    
C29   C30   S    
H24   O8    S    
C4    O11   A    
C23   C34   S    
C15   H26   S    
C30   H18   S    
C12   C20   S    
C12   C35   S    
C25   H7    S    
Cu2   N1    S    
Cu1   Cu2   S    
C32   O5    D    
C29   H16   S    
C23   C35   S    
C16   O12   A    
C9    H12   S    
C27   H11   S    
C15   C17   S    
Cu2   O15   S    
C18   C22   S    
C18   O14   A    
C13   N2    A    
C3    C5    A    
C19   C34   S    
C20   H1    S    
C33   O7    D    
C6    C7    A    
C12   C24   S    
C25   O16   S    
C24   C33   S    
C23   C32   S    
C2    C3    A    
C1    O9    A    
C11   O2    S    
C32   O6    S    
C4    C21   S    
C11   C13   A    
C31   O3    D    
C4    O10   A    
Cu2   O9    S    
Cu1   O1    S    
C19   C24   S    
C34   C36   S    
C8    H5    S    
C6    C16   S    
C20   C36   S    
C21   C37   T    
C29   H17   S    
C30   H20   S    
C7    C39   A    
C14   C15   S    
C8    O16   S    
C28   O2    S    
C33   O8    S    
C10   N1    A    
