data_mof_unit_50530.cif
_audit_creation_date              2012-12-11T14:41:07-0500
_audit_creation_method            fapswitch 2.2
_symmetry_space_group_name_H-M    P1
_symmetry_Int_Tables_number       1
_space_group_crystal_system       triclinic
_cell_length_a                    6.937214
_cell_length_b                    17.458548
_cell_length_c                    19.471229
_cell_angle_alpha                 89.984034
_cell_angle_beta                  90.030355
_cell_angle_gamma                 92.601913
_cell_volume                      2355.80065278

loop_
_atom_site_label
_atom_site_type_symbol
_atom_type_description
_atom_site_fract_x
_atom_site_fract_y
_atom_site_fract_z
_atom_type_partial_charge
O1    O     O_R   0.377350 0.828520 0.186660 -0.539620
O2    O     O_R   0.622650 0.171480 0.813340 -0.539155
O3    O     O_R   0.122650 0.171480 0.686660 -0.520848
O4    O     O_R   0.877350 0.828520 0.313340 -0.537156
O5    O     O_R   0.877350 0.671480 0.313340 -0.529027
O6    O     O_R   0.122650 0.328520 0.686660 -0.509372
O7    O     O_R   0.622650 0.328520 0.813340 -0.530468
O8    O     O_R   0.377350 0.671480 0.186660 -0.527555
O9    O     O_R   0.707090 0.671930 0.178410 -0.540512
O10   O     O_R   0.292910 0.328070 0.821590 -0.540879
O11   O     O_R   0.792910 0.328070 0.678410 -0.546992
O12   O     O_R   0.207090 0.671930 0.321590 -0.538249
O13   O     O_R   0.207090 0.828070 0.321590 -0.527843
O14   O     O_R   0.792910 0.171930 0.678410 -0.542788
O15   O     O_R   0.292910 0.171930 0.821590 -0.530984
O16   O     O_R   0.707090 0.828070 0.178410 -0.523113
C1    C     C_R   0.534419 0.645598 0.161382 0.726944
C2    C     C_R   0.465916 0.354547 0.838217 0.714760
C3    C     C_R   0.965533 0.354427 0.661406 0.761885
C4    C     C_R   0.034135 0.645414 0.338180 0.718383
C5    C     C_R   0.042061 0.854538 0.338489 0.711938
C6    C     C_R   0.958392 0.145904 0.660771 0.794037
C7    C     C_R   0.458076 0.145530 0.838562 0.708790
C8    C     C_R   0.541574 0.854402 0.161006 0.725560
O17   O     O_3   0.543850 0.750000 0.294270 -0.367972
O18   O     O_3   0.456150 0.250000 0.705730 -0.354180
O19   O     O_3   0.956150 0.250000 0.794270 -0.374518
O20   O     O_3   0.043850 0.750000 0.205730 -0.365282
V1    V     V_3+5 0.818700 0.750000 0.241790 1.557247
V2    V     V_3+5 0.181300 0.250000 0.758210 1.588074
V3    V     V_3+5 0.681300 0.250000 0.741790 1.550484
V4    V     V_3+5 0.318700 0.750000 0.258210 1.552606
C9    C     C_R   0.991377 0.415988 0.607945 -0.142549
C10   C     C_R   0.010848 0.582119 0.389719 -0.154094
C11   C     C_R   0.508517 0.584059 0.107897 -0.155893
C12   C     C_R   0.489309 0.417834 0.889757 -0.154030
C13   C     C_R   0.456376 0.082663 0.891023 -0.149388
C14   C     C_R   0.545171 0.915343 0.106116 -0.157820
C15   C     C_R   0.044406 0.917673 0.390670 -0.160483
C16   C     C_R   0.954554 0.085893 0.605163 -0.134854
C17   C     C_R   0.868471 0.455847 0.422278 -0.031108
C18   C     C_R   0.190753 0.524790 0.563932 -0.007323
C19   C     C_R   0.632454 0.543964 0.922392 -0.027514
C20   C     C_R   0.308722 0.475456 0.063712 -0.011483
C21   C     C_R   0.717895 0.025196 0.051545 -0.012205
C22   C     C_R   0.333202 0.955992 0.930487 -0.024324
C23   C     C_R   0.781579 0.976550 0.550140 -0.001225
C24   C     C_R   0.171920 0.043725 0.430171 -0.064623
C25   C     C_R   0.894828 0.515684 0.374007 0.110458
C26   C     C_R   0.135924 0.474538 0.617622 0.099983
C27   C     C_R   0.605714 0.484181 0.874103 0.110764
C28   C     C_R   0.363695 0.525603 0.117458 0.104659
C29   C     C_R   0.693221 0.973754 0.107004 0.127897
C30   C     C_R   0.336615 0.015797 0.881470 0.130414
C31   C     C_R   0.807260 0.027231 0.606000 0.042048
C32   C     C_R   0.166572 0.983846 0.381272 0.159585
C33   C     C_R   0.095183 0.589161 0.455668 -0.066612
C34   C     C_R   0.889040 0.412683 0.544965 -0.074196
C35   C     C_R   0.404580 0.410905 0.955630 -0.066774
C36   C     C_R   0.611245 0.587254 0.045022 -0.080727
C37   C     C_R   0.413685 0.912196 0.050062 -0.084359
C38   C     C_R   0.568896 0.089982 0.951564 -0.064186
C39   C     C_R   0.083664 0.090440 0.548339 -0.087092
C40   C     C_R   0.931438 0.911044 0.451052 -0.064425
C41   C     C_R   0.077581 0.526625 0.503238 0.088970
C42   C     C_R   0.942444 0.464616 0.490189 0.081748
C43   C     C_R   0.422276 0.473466 0.003157 0.088268
C44   C     C_R   0.557945 0.535324 0.990224 0.080545
C45   C     C_R   0.438515 0.964593 0.993288 0.062057
C46   C     C_R   0.576163 0.027115 0.998816 0.073172
C47   C     C_R   0.062290 0.036818 0.492258 -0.004030
C48   C     C_R   0.924093 0.974355 0.497798 0.106238
C49   C     C_2   0.715022 0.360111 0.540253 0.481635
H1    H     H_    0.722826 0.300152 0.554214 0.064235
O21   O     O_2   0.560302 0.384165 0.522257 -0.506761
C50   C     C_2   0.169643 0.666684 0.478333 0.438399
H2    H     H_    0.246184 0.705352 0.443238 0.053216
O22   O     O_2   0.139016 0.689349 0.536473 -0.486695
C51   C     C_2   0.785510 0.639701 0.040471 0.458580
H3    H     H_    0.777808 0.699704 0.054263 0.060590
O23   O     O_2   0.940300 0.615502 0.022804 -0.520123
C52   C     C_2   0.329409 0.333470 0.978296 0.442117
H4    H     H_    0.253360 0.294756 0.943108 0.051106
O24   O     O_2   0.358854 0.310917 0.036579 -0.486041
C53   C     C_2   0.649333 0.167882 0.970632 0.448685
H5    H     H_    0.704386 0.207740 0.931988 0.047965
O25   O     O_2   0.647369 0.189569 0.030241 -0.486545
C54   C     C_2   0.241791 0.858576 0.054996 0.461874
H6    H     H_    0.258329 0.798634 0.067426 0.061950
O26   O     O_2   0.079845 0.881657 0.046756 -0.533910
C55   C     C_2   0.850386 0.833364 0.470605 0.463697
H7    H     H_    0.796081 0.793094 0.432174 0.044743
O27   O     O_2   0.851031 0.812313 0.530421 -0.483040
C56   C     C_2   0.250972 0.146492 0.551207 0.482324
H8    H     H_    0.395967 0.126895 0.544199 0.015480
O28   O     O_2   0.227443 0.214951 0.558268 -0.500051
I1    I     I_    0.254684 0.495381 0.717249 -0.302542
I2    I     I_    0.752347 0.503964 0.276718 -0.304428
I3    I     I_    0.245095 0.504603 0.217044 -0.297958
I4    I     I_    0.747800 0.495936 0.776784 -0.312693
I5    I     I_    0.155167 0.003536 0.792169 -0.290519
I6    I     I_    0.870935 0.991029 0.196241 -0.278433
I7    I     I_    0.349577 0.995216 0.292278 -0.279921
I8    I     I_    0.632163 0.008478 0.695627 -0.326622
C57   C     C_2   0.787888 0.380715 0.397177 0.504611
H9    H     H_    0.654391 0.377029 0.368132 0.110557
O29   O     O_2   0.873600 0.322234 0.407575 -0.483868
C58   C     C_2   0.383358 0.565990 0.567905 0.507193
H10   H     H_    0.437298 0.590131 0.615785 0.110312
O30   O     O_2   0.487199 0.571309 0.517314 -0.519428
C59   C     C_2   0.714200 0.618935 0.897348 0.498528
H11   H     H_    0.848169 0.622343 0.868614 0.110701
O31   O     O_2   0.628957 0.677581 0.907425 -0.492185
C60   C     C_2   0.115664 0.434575 0.067457 0.507158
H12   H     H_    0.060824 0.410748 0.115325 0.110603
O32   O     O_2   0.012421 0.429204 0.016678 -0.519603
C61   C     C_2   0.907323 0.068138 0.044177 0.488795
H13   H     H_    0.981648 0.093025 0.088307 0.112196
O33   O     O_2   0.985116 0.074431 0.988071 -0.535467
C62   C     C_2   0.241012 0.881125 0.909907 0.496225
H14   H     H_    0.095396 0.877831 0.889499 0.106289
O34   O     O_2   0.329985 0.822516 0.914028 -0.490818
C63   C     C_2   0.591101 0.934467 0.542105 0.408664
H15   H     H_    0.513459 0.910847 0.586035 0.130295
O35   O     O_2   0.516000 0.927523 0.485567 -0.544040
C64   C     C_2   0.274499 0.116574 0.410088 0.463197
H16   H     H_    0.426136 0.117460 0.396355 0.083937
O36   O     O_2   0.187773 0.175782 0.406652 -0.453846

loop_
_geom_bond_atom_site_label_1
_geom_bond_atom_site_label_2
_ccdc_geom_bond_type
C36   C51   S    
C9    C34   A    
C49   H1    S    
O13   V4    S    
C59   H11   S    
C35   C52   S    
O14   V3    S    
C12   C35   A    
C13   C38   A    
C63   H15   S    
O5    C4    A    
C53   H5    S    
C15   C40   A    
C57   O29   D    
C39   C56   S    
O11   C3    A    
C64   H16   S    
C16   C39   A    
C17   C57   S    
C33   C50   S    
O20   V1    S    
C50   O22   D    
C61   O33   D    
C63   O35   D    
C37   C45   A    
C58   H10   S    
C38   C46   A    
C22   C45   A    
C30   I5    S    
C35   C43   A    
C25   I2    S    
C34   C42   A    
C19   C44   A    
C10   C25   A    
C18   C41   A    
C8    C14   S    
O4    V1    S    
O9    V1    S    
C14   C37   A    
C4    C10   S    
C20   C28   A    
O17   V4    S    
O15   C7    A    
O11   V3    S    
O18   V3    S    
O16   C8    A    
O12   V4    S    
O19   V2    S    
C49   O21   D    
O12   C4    A    
C45   C46   A    
C19   C59   S    
C17   C25   A    
C62   O34   D    
C60   H12   S    
O5    V1    S    
C53   O25   D    
O17   V1    S    
C38   C53   S    
O7    V3    S    
O19   V3    S    
C43   C44   A    
O8    V4    S    
O20   V4    S    
C50   H2    S    
C3    C9    S    
C33   C41   A    
C55   H7    S    
C51   O23   D    
C9    C26   A    
C7    C13   S    
C31   I8    S    
C21   C29   A    
O1    V4    S    
O2    V3    S    
O3    V2    S    
O6    C3    A    
C37   C54   S    
C55   O27   D    
O10   V2    S    
C23   C63   S    
C15   C32   A    
C5    C15   S    
C29   I6    S    
O7    C2    A    
C6    C16   S    
C22   C30   A    
C22   C62   S    
C59   O31   D    
C56   O28   D    
C12   C27   A    
C18   C26   A    
C13   C30   A    
O9    C1    A    
O6    V2    S    
C54   O26   D    
O18   V2    S    
C52   O24   D    
C24   C47   A    
O2    C7    A    
C62   H14   S    
O15   V2    S    
C23   C31   A    
C21   C61   S    
C27   I4    S    
C24   C32   A    
C26   I1    S    
C64   O36   D    
C21   C46   A    
C32   I7    S    
C39   C47   A    
C20   C43   A    
C16   C31   A    
C60   O32   D    
C17   C42   A    
C57   H9    S    
C28   I3    S    
O8    C1    A    
O14   C6    A    
O16   V1    S    
C47   C48   A    
C41   C42   A    
C61   H13   S    
O13   C5    A    
O4    C5    A    
C19   C27   A    
C14   C29   A    
C2    C12   S    
O10   C2    A    
C10   C33   A    
C58   O30   D    
C40   C48   A    
C56   H8    S    
C20   C60   S    
C23   C48   A    
C24   C64   S    
C51   H3    S    
C54   H6    S    
C36   C44   A    
O1    C8    A    
C52   H4    S    
C11   C28   A    
C11   C36   A    
O3    C6    A    
C1    C11   S    
C40   C55   S    
C18   C58   S    
C34   C49   S    
