data_mof_unit_46176.cif
_audit_creation_date              2012-12-10T19:46:40-0500
_audit_creation_method            fapswitch 2.2
_symmetry_space_group_name_H-M    P1
_symmetry_Int_Tables_number       1
_space_group_crystal_system       triclinic
_cell_length_a                    12.819436
_cell_length_b                    14.984623
_cell_length_c                    14.221383
_cell_angle_alpha                 87.544605
_cell_angle_beta                  98.650592
_cell_angle_gamma                 90.811735
_cell_volume                      2698.20850029

loop_
_atom_site_label
_atom_site_type_symbol
_atom_type_description
_atom_site_fract_x
_atom_site_fract_y
_atom_site_fract_z
_atom_type_partial_charge
C1    C     C_R   0.500150 0.327615 0.501623 0.904635
C2    C     C_R   0.501608 0.950619 0.490586 0.033997
C3    C     C_R   0.496222 0.416610 0.108083 0.395567
C4    C     C_R   0.580641 0.551634 0.901612 0.396677
C5    C     C_R   0.492512 0.420563 0.207577 -0.161852
C6    C     C_R   0.574246 0.550133 0.800874 -0.141873
C7    C     C_R   0.515543 0.576981 0.199879 0.081675
C8    C     C_R   0.428281 0.450936 0.791665 0.107902
C9    C     C_R   0.516314 0.576130 0.101378 -0.361015
C10   C     C_R   0.431480 0.451104 0.890656 -0.336741
C11   C     C_R   0.509162 0.496429 0.054056 0.082168
C12   C     C_R   0.499861 0.671615 0.498391 0.943009
C13   C     C_R   0.509269 0.498665 0.947753 0.074185
C14   C     C_R   0.297455 0.502387 0.479436 0.988865
C15   C     C_R   0.702719 0.498875 0.519924 0.914435
C16   C     C_R   0.816605 0.503602 0.532045 -0.249560
C17   C     C_R   0.184029 0.511535 0.461504 -0.221599
C18   C     C_R   0.012967 0.483200 0.368843 0.388333
C19   C     C_R   0.982938 0.560761 0.610369 0.357844
C20   C     C_R   0.123450 0.484285 0.375920 0.381857
C21   C     C_R   0.878190 0.534769 0.614547 0.352380
C22   C     C_R   0.136480 0.548274 0.532375 -0.277122
C23   C     C_R   0.497288 0.231282 0.502476 -0.154153
C24   C     C_R   0.862889 0.484285 0.453023 -0.302190
C25   C     C_R   0.028820 0.540460 0.530030 -0.070327
C26   C     C_R   0.967706 0.503485 0.449877 -0.063263
C27   C     C_R   0.536759 0.086807 0.578194 -0.267995
C28   C     C_R   0.405558 0.904524 0.472700 -0.303046
C29   C     C_R   0.542083 0.179112 0.582258 0.441572
C30   C     C_R   0.403562 0.811587 0.471018 0.463117
C31   C     C_R   0.541393 0.662763 0.243085 0.202696
C32   C     C_R   0.466312 0.730987 0.231179 -0.175822
C33   C     C_R   0.496047 0.817179 0.258142 -0.149988
C34   C     C_R   0.499126 0.766628 0.495238 -0.082682
C35   C     C_R   0.601018 0.836401 0.294340 -0.086762
C36   C     C_R   0.675804 0.768352 0.307676 -0.182845
C37   C     C_R   0.646077 0.681600 0.282163 -0.120353
C38   C     C_R   0.347491 0.393664 0.739110 0.150112
C39   C     C_R   0.372524 0.306166 0.720467 -0.106170
C40   C     C_R   0.294815 0.248891 0.676499 -0.160398
C41   C     C_R   0.190403 0.277590 0.654783 -0.131807
C42   C     C_R   0.163562 0.362920 0.678603 -0.127277
C43   C     C_R   0.241655 0.420568 0.721610 -0.154299
C44   C     C_3   0.876985 0.463143 0.757610 0.113589
C45   C     C_R   0.453389 0.191124 0.418374 -0.301461
C46   C     C_3   0.837109 0.463718 0.852912 -0.788699
C47   C     C_3   0.145357 0.496124 0.217106 0.159389
C48   C     C_3   0.241366 0.507320 0.167152 -0.856306
C49   C     C_3   0.891625 0.517453 0.236017 0.018292
C50   C     C_3   0.793331 0.477097 0.179355 -0.749140
C51   C     C_3   0.021839 0.689017 0.687525 0.128762
C52   C     C_3   0.086794 0.729629 0.773779 -0.840708
C53   C     C_3   0.698969 0.216060 0.670159 0.097470
C54   C     C_3   0.748983 0.233180 0.771664 -0.831732
C55   C     C_3   0.238880 0.799548 0.378306 0.108134
C56   C     C_R   0.594771 0.811476 0.518453 -0.327981
C57   C     C_3   0.165403 0.726400 0.336292 -0.877670
C58   C     C_R   0.417065 0.062497 0.318009 0.132669
C59   C     C_R   0.485740 0.058369 0.250228 -0.183907
C60   C     C_R   0.448196 0.030894 0.158488 -0.145651
C61   C     C_R   0.341773 0.008112 0.133686 -0.139256
C62   C     C_R   0.272592 0.013648 0.200340 -0.164338
C63   C     C_R   0.309760 0.041740 0.291923 -0.177082
C64   C     C_R   0.701952 0.949995 0.537334 0.127996
C65   C     C_R   0.733853 0.017168 0.475378 -0.158738
C66   C     C_R   0.831537 0.059975 0.497468 -0.163962
C67   C     C_R   0.455005 0.099438 0.411810 0.017164
C68   C     C_R   0.898643 0.035733 0.581132 -0.127664
C69   C     C_R   0.868222 0.968508 0.642788 -0.147205
C70   C     C_R   0.770464 0.925708 0.621107 -0.182284
C71   C     C_3   0.410821 0.281509 0.079889 0.081395
C72   C     C_3   0.390628 0.214378 0.001764 -0.796335
C73   C     C_3   0.666370 0.687831 0.928064 0.073355
C74   C     C_3   0.770775 0.710251 0.893191 -0.858237
C75   C     C_R   0.597936 0.904244 0.514880 0.029312
C76   C     C_R   0.497413 0.047024 0.492785 0.013347
H1    H     H_    0.816137 0.453054 0.393432 0.229483
H2    H     H_    0.630814 0.587230 0.765223 0.186131
H3    H     H_    0.385512 0.717652 0.199931 0.119848
H4    H     H_    0.437558 0.868869 0.250773 0.161324
H5    H     H_    0.624049 0.903644 0.313504 0.131824
H6    H     H_    0.756812 0.782982 0.336984 0.132376
H7    H     H_    0.704682 0.629667 0.290504 0.126206
H8    H     H_    0.451778 0.282149 0.742061 0.199029
H9    H     H_    0.315234 0.181858 0.660784 0.144040
H10   H     H_    0.129979 0.233101 0.621405 0.124882
H11   H     H_    0.082174 0.384025 0.664337 0.129855
H12   H     H_    0.184821 0.576025 0.593503 0.226672
H13   H     H_    0.219881 0.485847 0.741679 0.162856
H14   H     H_    0.964769 0.463881 0.772642 0.167431
H15   H     H_    0.850365 0.399929 0.722766 0.128240
H16   H     H_    0.750524 0.454031 0.842624 0.260778
H17   H     H_    0.873531 0.408087 0.900170 0.198397
H18   H     H_    0.858363 0.527692 0.887690 0.276326
H19   H     H_    0.114393 0.564345 0.223456 0.093246
H20   H     H_    0.085658 0.456439 0.171320 0.186352
H21   H     H_    0.276448 0.441193 0.160508 0.249797
H22   H     H_    0.218423 0.538612 0.094926 0.199573
H23   H     H_    0.524280 0.638636 0.061862 0.172555
H24   H     H_    0.299720 0.551251 0.208644 0.263836
H25   H     H_    0.937649 0.550955 0.184495 0.133366
H26   H     H_    0.866600 0.570060 0.280627 0.130236
H27   H     H_    0.743080 0.444223 0.227991 0.244388
H28   H     H_    0.747073 0.530571 0.136261 0.245249
H29   H     H_    0.815972 0.427091 0.130796 0.262405
H30   H     H_    0.936911 0.701101 0.690916 0.160057
H31   H     H_    0.043870 0.723399 0.622163 0.137833
H32   H     H_    0.172196 0.719680 0.772136 0.255940
H33   H     H_    0.071016 0.802345 0.773311 0.199853
H34   H     H_    0.372169 0.413918 0.923082 0.177443
H35   H     H_    0.065376 0.697459 0.840157 0.256862
H36   H     H_    0.724563 0.269580 0.621698 0.135084
H37   H     H_    0.728456 0.150477 0.651340 0.156935
H38   H     H_    0.836165 0.236888 0.776224 0.195966
H39   H     H_    0.719615 0.296945 0.794295 0.268212
H40   H     H_    0.728226 0.178042 0.820373 0.255864
H41   H     H_    0.279705 0.828780 0.320154 0.137771
H42   H     H_    0.190595 0.851654 0.404223 0.144135
H43   H     H_    0.117684 0.699149 0.390055 0.257176
H44   H     H_    0.111429 0.753568 0.273499 0.199761
H45   H     H_    0.567350 0.046113 0.640889 0.162176
H46   H     H_    0.212949 0.672109 0.313764 0.263259
H47   H     H_    0.567797 0.077578 0.267864 0.124022
H48   H     H_    0.501594 0.027218 0.106673 0.135872
H49   H     H_    0.312862 0.986689 0.062710 0.127806
H50   H     H_    0.189991 0.996934 0.180794 0.131391
H51   H     H_    0.254839 0.048189 0.342069 0.122949
H52   H     H_    0.683415 0.036343 0.409988 0.118528
H53   H     H_    0.855251 0.111925 0.449628 0.138066
H54   H     H_    0.974218 0.068992 0.598140 0.121238
H55   H     H_    0.920300 0.949656 0.707541 0.126589
H56   H     H_    0.332435 0.941186 0.462645 0.134508
H57   H     H_    0.747770 0.874272 0.670138 0.129732
H58   H     H_    0.337386 0.321083 0.077358 0.120414
H59   H     H_    0.427797 0.244076 0.149596 0.161535
H60   H     H_    0.461293 0.172202 0.002596 0.255910
H61   H     H_    0.322290 0.171039 0.012988 0.211713
H62   H     H_    0.372650 0.249658 0.931057 0.245937
H63   H     H_    0.662312 0.727201 0.991817 0.161816
H64   H     H_    0.599611 0.710989 0.873167 0.119113
H65   H     H_    0.777021 0.674824 0.827396 0.271376
H66   H     H_    0.775892 0.783243 0.877261 0.206168
H67   H     H_    0.419496 0.231427 0.356374 0.178333
H68   H     H_    0.837698 0.690523 0.948895 0.256682
H69   H     H_    0.667191 0.773786 0.536646 0.148526
H70   H     H_    0.486022 0.359313 0.248881 0.154410
N1    N     N_R   0.500000 0.499980 0.252470 -0.120983
N2    N     N_R   0.500000 0.500020 0.747530 -0.125850
O1    O     O_R   0.500010 0.369070 0.579480 -0.583159
O2    O     O_3   0.173503 0.449194 0.305687 -0.582250
O3    O     O_3   0.952045 0.448618 0.289286 -0.607035
O4    O     O_3   0.043157 0.596794 0.688846 -0.631294
O5    O     O_3   0.588165 0.217452 0.665084 -0.625139
O6    O     O_3   0.310230 0.762243 0.454979 -0.627415
O7    O     O_3   0.498439 0.335602 0.064624 -0.608190
O8    O     O_3   0.662790 0.595946 0.955985 -0.628302
O9    O     O_R   0.499990 0.630930 0.420520 -0.613667
O10   O     O_R   0.500010 0.369060 0.420520 -0.641336
O11   O     O_R   0.499990 0.630940 0.579480 -0.628439
O12   O     O_R   0.346360 0.499990 0.566340 -0.628607
O13   O     O_R   0.653640 0.500010 0.433660 -0.639278
O14   O     O_R   0.346360 0.499980 0.407390 -0.570002
O15   O     O_R   0.653640 0.500020 0.592610 -0.578581
O16   O     O_3   0.837861 0.537988 0.699341 -0.600746
Zn1   Zn    Zn3+2 0.500000 0.500010 0.606140 0.977815
Zn2   Zn    Zn3+2 0.500000 0.499990 0.393860 0.954390

loop_
_geom_bond_atom_site_label_1
_geom_bond_atom_site_label_2
_ccdc_geom_bond_type
C55   O6    S    
C66   C68   A    
C34   C56   A    
C16   C21   A    
C23   C45   A    
C27   C29   A    
C41   C42   A    
C35   C36   A    
C18   C26   A    
C3    C11   A    
C71   H58   S    
C27   H45   S    
C44   H14   S    
C53   C54   S    
C50   H28   S    
C48   H21   S    
C43   H13   S    
C5    N1    A    
C23   C29   A    
C15   O15   A    
C1    O10   A    
O15   Zn1   S    
C24   C26   A    
C39   H8    S    
C69   C70   A    
C49   H25   S    
C38   C39   A    
C72   H60   S    
C46   H16   S    
C15   C16   S    
C56   H69   S    
C17   C20   A    
C73   C74   S    
C4    C13   A    
C60   H48   S    
C57   H46   S    
O14   Zn2   S    
C31   C32   A    
C36   H6    S    
C68   C69   A    
C22   C25   A    
C54   H40   S    
C45   C67   A    
C50   H29   S    
C47   H20   S    
C1    O1    A    
C22   H12   S    
C12   O9    A    
O13   Zn2   S    
C57   H43   S    
C66   H53   S    
C72   H62   S    
C74   H66   S    
C59   C60   A    
C16   C24   A    
C56   C75   A    
N2    Zn1   S    
C14   C17   S    
C8    N2    A    
C8    C38   S    
C53   H37   S    
C7    N1    A    
C59   H47   S    
C48   H24   S    
C7    C31   S    
C49   O3    S    
C51   C52   S    
C65   H52   S    
O1    Zn1   S    
C4    C6    A    
C39   C40   A    
C62   H50   S    
C30   C34   A    
C73   H63   S    
C52   H35   S    
C25   C26   A    
C31   C37   A    
C14   O12   A    
C60   C61   A    
C28   H56   S    
C40   H9    S    
C14   O14   A    
C62   C63   A    
C41   H10   S    
N1    Zn2   S    
C70   H57   S    
C6    N2    A    
C58   C67   S    
C47   C48   S    
C46   H18   S    
C47   O2    S    
C30   O6    S    
C69   H55   S    
C71   O7    S    
C54   H39   S    
C3    O7    S    
C19   O4    S    
O12   Zn1   S    
C68   H54   S    
C9    C11   A    
C44   H15   S    
C57   H44   S    
C53   H36   S    
C51   H31   S    
C72   H61   S    
C4    O8    S    
C74   H65   S    
C51   O4    S    
C1    C23   S    
C64   C70   A    
C55   C57   S    
C49   C50   S    
C42   C43   A    
C12   C34   S    
C18   O3    S    
C49   H26   S    
C2    C76   S    
O10   Zn2   S    
C29   O5    S    
C55   H41   S    
C58   C63   A    
C7    C9    A    
C74   H68   S    
C53   O5    S    
C40   C41   A    
C5    H70   S    
C19   C21   A    
C15   O13   A    
C8    C10   A    
C3    C5    A    
C10   C13   A    
O9    Zn2   S    
C61   H49   S    
C33   H4    S    
C42   H11   S    
C73   H64   S    
C36   C37   A    
C48   H22   S    
C17   C22   A    
C35   H5    S    
C64   C65   A    
C28   C30   A    
C58   C59   A    
C38   C43   A    
C32   C33   A    
C32   H3    S    
C71   H59   S    
C11   C13   S    
C46   H17   S    
C52   H33   S    
C51   H30   S    
C54   H38   S    
C73   O8    S    
C33   C35   A    
C64   C75   S    
C20   O2    S    
C10   H34   S    
C18   C20   A    
C12   O11   A    
C61   C62   A    
C19   C25   A    
C6    H2    S    
O11   Zn1   S    
C24   H1    S    
C50   H27   S    
C71   C72   S    
C52   H32   S    
C9    H23   S    
C65   C66   A    
C45   H67   S    
C47   H19   S    
C37   H7    S    
C2    C28   A    
C67   C76   A    
C44   O16   S    
C44   C46   S    
C63   H51   S    
C2    C75   A    
C27   C76   A    
C21   O16   S    
C55   H42   S    
