data_mof_unit_18411.cif
_audit_creation_date              2012-12-10T16:53:52-0500
_audit_creation_method            fapswitch 2.2
_symmetry_space_group_name_H-M    P1
_symmetry_Int_Tables_number       1
_space_group_crystal_system       triclinic
_cell_length_a                    7.768639
_cell_length_b                    8.566268
_cell_length_c                    10.616242
_cell_angle_alpha                 91.275941
_cell_angle_beta                  85.174602
_cell_angle_gamma                 93.845403
_cell_volume                      702.305062153

loop_
_atom_site_label
_atom_site_type_symbol
_atom_type_description
_atom_site_fract_x
_atom_site_fract_y
_atom_site_fract_z
_atom_type_partial_charge
Br1   Br    Br    0.740715 0.235852 0.853451 -0.494875
C1    C     C_R   0.545934 0.794802 0.496804 0.952991
C2    C     C_3   0.468308 0.657485 0.931078 -0.435930
C3    C     C_3   0.458434 0.658285 0.076228 0.219889
C4    C     C_3   0.356076 0.373588 0.934163 -0.323752
C5    C     C_3   0.680906 0.444206 0.916609 0.125559
C6    C     C_3   0.502082 0.491090 0.878063 -0.077900
C7    C     C_3   0.499424 0.494065 0.121083 -0.025664
C8    C     C_3   0.359578 0.369051 0.078706 0.213741
C9    C     C_3   0.680901 0.452471 0.059923 -0.327727
C10   C     C_2   0.570078 0.958391 0.494897 -0.340564
C11   C     C_2   0.429934 0.041619 0.505014 -0.370650
C12   C     C_R   0.500426 0.494930 0.741965 0.906229
C13   C     C_R   0.454071 0.205198 0.503232 0.974478
C14   C     C_R   0.498873 0.496858 0.257801 0.853987
H1    H     H_    0.344533 0.696281 0.900458 0.171532
H2    H     H_    0.227435 0.410227 0.911521 0.153430
H3    H     H_    0.228821 0.397052 0.121898 0.087743
H4    H     H_    0.785473 0.528573 0.876320 0.135939
H5    H     H_    0.782347 0.542869 0.085829 0.185968
H6    H     H_    0.347978 0.204501 0.203313 0.323935
H7    H     H_    0.528660 0.812426 0.202891 0.336734
H8    H     H_    0.716647 0.339440 0.096731 0.235630
H9    H     H_    0.369725 0.254986 0.891095 0.242973
H10   H     H_    0.702320 0.009778 0.485245 0.190858
H11   H     H_    0.297692 0.990239 0.514646 0.182556
H12   H     H_    0.014065 0.382505 0.404332 0.186677
H13   H     H_    0.985921 0.617433 0.595708 0.194104
H14   H     H_    0.573292 0.742646 0.892574 0.229755
H15   H     H_    0.323733 0.683534 0.112685 0.102874
N1    N     N_2   0.950330 0.457950 0.465890 -0.165363
N2    N     N_2   0.049670 0.542050 0.534110 -0.164804
O1    O     O_R   0.389250 0.738570 0.508370 -0.615246
O2    O     O_3   0.576650 0.775776 0.118584 -0.718188
O3    O     O_R   0.678390 0.711620 0.486510 -0.623644
O4    O     O_R   0.355430 0.513500 0.696140 -0.623149
O5    O     O_R   0.644580 0.486550 0.674270 -0.606307
O6    O     O_R   0.321610 0.288380 0.513490 -0.630028
O7    O     O_R   0.610750 0.261430 0.491630 -0.596335
O8    O     O_R   0.355420 0.513450 0.325730 -0.663188
O9    O     O_R   0.644570 0.486500 0.303860 -0.611920
O10   O     O_3   0.395696 0.218053 0.114228 -0.712503
Zn1   Zn    Zn3+2 0.306940 0.517990 0.514600 0.946673
Zn2   Zn    Zn3+2 0.693060 0.482010 0.485400 0.973482

loop_
_geom_bond_atom_site_label_1
_geom_bond_atom_site_label_2
_ccdc_geom_bond_type
C1    O3    A    
C5    C9    S    
C10   C11   D    
C4    C8    S    
C5    C6    S    
O3    Zn2   S    
C9    H8    S    
C13   O6    A    
C4    C6    S    
C12   O5    A    
N1    N2    D    
H13   N2    S    
C3    C7    S    
O5    Zn2   S    
O6    Zn1   S    
C5    H4    S    
C8    O10   S    
O7    Zn2   S    
C4    H9    S    
C1    C10   S    
C1    O1    A    
N2    Zn1   S    
C11   C13   S    
C7    C14   S    
C2    C6    S    
H7    O2    S    
O9    Zn2   S    
C3    O2    S    
C14   O8    A    
C4    H2    S    
N1    Zn2   S    
C10   H10   S    
H12   N1    S    
C2    C3    S    
O1    Zn1   S    
C8    H3    S    
C6    C12   S    
C14   O9    A    
C12   O4    A    
C7    C9    S    
C9    H5    S    
C2    H14   S    
O4    Zn1   S    
H6    O10   S    
C13   O7    A    
O8    Zn1   S    
C3    H15   S    
C2    H1    S    
Br1   C5    S    
C11   H11   S    
C7    C8    S    
