data_mof_unit_8601.cif
_audit_creation_date              2012-10-26T19:52:29-0400
_audit_creation_method            fapswitch 2.2
_symmetry_space_group_name_H-M    P1
_symmetry_Int_Tables_number       1
_space_group_crystal_system       triclinic
_cell_length_a                    9.658154
_cell_length_b                    10.962355
_cell_length_c                    13.408881
_cell_angle_alpha                 92.521228
_cell_angle_beta                  73.739927
_cell_angle_gamma                 92.188313
_cell_volume                      1361.07929643

loop_
_atom_site_label
_atom_site_type_symbol
_atom_type_description
_atom_site_fract_x
_atom_site_fract_y
_atom_site_fract_z
_atom_type_partial_charge
C1    C     C_R   0.501852 0.736917 0.500641 0.582446
C2    C     C_R   0.384144 0.434331 0.804744 0.030797
C3    C     C_R   0.409992 0.930213 0.460915 0.013611
C4    C     C_R   0.424164 0.478736 0.696517 0.558799
C5    C     C_R   0.504781 0.869587 0.501460 -0.003628
C6    C     C_R   0.594028 0.942558 0.549611 0.232466
C7    C     C_R   0.593116 0.071459 0.546606 -0.142874
C8    C     C_R   0.494198 0.129635 0.505575 -0.065388
C9    C     C_R   0.401239 0.053573 0.466701 -0.047545
C10   C     C_3   0.274369 0.046832 0.422025 0.365556
C11   C     C_3   0.293496 0.905476 0.407882 0.592620
C12   C     C_R   0.443655 0.428490 0.969659 0.047208
C13   C     C_R   0.956859 0.451790 0.417174 0.118932
C14   C     C_R   0.898002 0.562774 0.574512 0.221920
C15   C     C_R   0.045514 0.562715 0.575443 0.227442
C16   C     C_R   0.497279 0.262740 0.501596 0.531451
C17   C     C_R   0.104334 0.455968 0.415735 0.064900
C18   C     C_3   0.127578 0.331048 0.371205 -0.203958
C19   C     C_3   0.968032 0.321126 0.378540 -0.040160
C20   C     C_R   0.576394 0.501040 0.300068 0.533274
C21   C     C_R   0.799797 0.444688 0.024809 -0.146272
C22   C     C_R   0.617241 0.489832 0.185486 0.002478
C23   C     C_R   0.488674 0.424455 0.859886 -0.008961
C24   C     C_R   0.241506 0.396417 0.854876 0.083496
C25   C     C_R   0.201520 0.374613 0.961451 -0.142162
C26   C     C_R   0.298737 0.398116 0.019411 -0.115933
C27   C     C_3   0.428609 0.135593 0.268752 -0.125722
C28   C     C_3   0.048666 0.834563 0.450869 -0.078268
C29   C     C_3   0.269031 0.850052 0.240707 -0.115596
C30   C     C_3   0.604463 0.896163 0.709834 -0.114342
C31   C     C_R   0.548261 0.448193 0.024970 0.074795
C32   C     C_R   0.694725 0.429622 0.971843 0.024980
C33   C     C_R   0.734089 0.397069 0.866098 -0.160636
C34   C     C_R   0.633424 0.397348 0.810171 -0.132484
C35   C     C_R   0.512278 0.490452 0.129713 0.073297
C36   C     C_R   0.761487 0.471894 0.130779 -0.161953
Cu1   Cu    Cu3+1 0.359330 0.500020 0.500010 0.973184
Cu2   Cu    Cu3+1 0.640670 0.499980 0.499990 0.961743
H1    H     H_    0.845459 0.481128 0.169531 0.128578
H2    H     H_    0.669277 0.367566 0.729438 0.154690
H3    H     H_    0.059197 0.094251 0.470359 0.227497
H4    H     H_    0.158480 0.152987 0.548541 0.232674
H5    H     H_    0.501118 0.057059 0.258905 0.150699
H6    H     H_    0.472647 0.216166 0.303760 0.132527
H7    H     H_    0.426170 0.160650 0.190020 0.132121
H8    H     H_    0.019914 0.744351 0.420399 0.128688
H9    H     H_    0.040391 0.905036 0.396253 0.102553
H10   H     H_    0.966870 0.855289 0.525313 0.185914
H11   H     H_    0.205610 0.933002 0.244535 0.159050
H12   H     H_    0.665981 0.125385 0.580472 0.138074
H13   H     H_    0.197041 0.767679 0.256429 0.128371
H14   H     H_    0.337042 0.840049 0.159232 0.134970
H15   H     H_    0.795513 0.600748 0.725113 0.220444
H16   H     H_    0.834680 0.722389 0.649389 0.248262
H17   H     H_    0.093987 0.577459 0.714120 0.252914
H18   H     H_    0.169925 0.691547 0.630293 0.302604
H19   H     H_    0.832035 0.307195 0.285839 0.256873
H20   H     H_    0.996463 0.368995 0.226582 0.218216
H21   H     H_    0.308551 0.507113 0.226927 0.241086
H22   H     H_    0.407800 0.639014 0.203674 0.277877
H23   H     H_    0.200632 0.327994 0.290932 0.156595
H24   H     H_    0.098195 0.282759 0.810714 0.224818
H25   H     H_    0.057136 0.432320 0.825335 0.206411
H26   H     H_    0.502266 0.840444 0.726410 0.127020
H27   H     H_    0.582276 0.992131 0.739032 0.108348
H28   H     H_    0.673055 0.858659 0.754335 0.137675
H29   H     H_    0.161002 0.277303 0.426236 0.185943
H30   H     H_    0.842645 0.372613 0.825397 0.107370
H31   H     H_    0.905931 0.255748 0.436789 0.154462
H32   H     H_    0.911608 0.435635 0.984336 0.107673
H33   H     H_    0.262942 0.379671 0.101184 0.125695
H34   H     H_    0.095643 0.337875 0.999853 0.112865
N1    N     N_R   0.852320 0.499070 0.499340 -0.239440
N2    N     N_R   0.148230 0.499110 0.499340 -0.230436
N3    N     N_3   0.141662 0.076395 0.503667 -0.621992
N4    N     N_3   0.796619 0.631999 0.652435 -0.529920
N5    N     N_3   0.081149 0.633685 0.657455 -0.644651
N6    N     N_3   0.942609 0.301037 0.276552 -0.633130
N7    N     N_3   0.381938 0.556718 0.170269 -0.650058
N8    N     N_3   0.140102 0.371699 0.796565 -0.618883
O1    O     O_R   0.381190 0.680360 0.500000 -0.470854
O2    O     O_3   0.184658 0.828386 0.470527 -0.550955
O3    O     O_3   0.360746 0.856745 0.306442 -0.581769
O4    O     O_3   0.678289 0.889594 0.602775 -0.573726
O5    O     O_R   0.618780 0.680320 0.499990 -0.443445
O6    O     O_R   0.323230 0.500000 0.650990 -0.486332
O7    O     O_R   0.560820 0.499960 0.650980 -0.491751
O8    O     O_R   0.381220 0.319680 0.500010 -0.503856
O9    O     O_R   0.618810 0.319640 0.500000 -0.528748
O10   O     O_R   0.439180 0.500040 0.349020 -0.503039
O11   O     O_R   0.676770 0.500000 0.349010 -0.516264
O12   O     O_3   0.285824 0.107235 0.327665 -0.599820

loop_
_geom_bond_atom_site_label_1
_geom_bond_atom_site_label_2
_ccdc_geom_bond_type
Cu1   N2    S    
H22   N7    S    
C30   H26   S    
Cu1   O8    S    
C7    C8    A    
C28   H9    S    
C4    O7    A    
C29   H11   S    
C22   C35   A    
C12   C23   A    
C28   H8    S    
H4    N3    S    
Cu1   O10   S    
C1    C5    S    
H24   N8    S    
C29   O3    S    
C5    C6    A    
H17   N5    S    
C4    O6    A    
C1    O1    A    
C18   C19   S    
C27   H6    S    
C24   N8    S    
C8    C9    A    
C9    C10   S    
C27   H7    S    
C10   O12   S    
C16   O9    A    
C8    C16   S    
C26   H33   S    
Cu1   O1    S    
C20   O11   A    
C33   C34   A    
H25   N8    S    
C11   O2    S    
C1    O5    A    
C21   C32   A    
C6    O4    S    
C13   C19   S    
Cu2   O5    S    
C28   O2    S    
C14   N1    A    
Cu1   O6    S    
C24   C25   A    
H21   N7    S    
C21   C36   A    
C11   O3    S    
C25   C26   A    
C20   O10   A    
Cu2   O11   S    
H18   N5    S    
C12   C26   A    
C14   N4    S    
C19   N6    S    
C2    C4    S    
Cu1   Cu2   S    
C3    C9    A    
H3    N3    S    
C10   N3    S    
C31   C32   A    
Cu2   O9    S    
C23   C34   A    
C17   C18   S    
C27   O12   S    
C25   H34   S    
C30   H28   S    
H16   N4    S    
C20   C22   S    
C12   C31   A    
C2    C24   A    
C17   N2    A    
C31   C35   A    
C19   H31   S    
H15   N4    S    
C29   H13   S    
C28   H10   S    
H19   N6    S    
C36   H1    S    
C7    H12   S    
C13   N1    A    
C3    C5    A    
C18   H23   S    
C6    C7    A    
C22   C36   A    
Cu2   O7    S    
C13   C17   A    
C21   H32   S    
C32   C33   A    
C18   H29   S    
C15   N5    S    
C35   N7    S    
C30   O4    S    
C30   H27   S    
C3    C11   S    
C10   C11   S    
H20   N6    S    
C27   H5    S    
C15   N2    A    
C2    C23   A    
C16   O8    A    
C14   C15   A    
C34   H2    S    
Cu2   N1    S    
C33   H30   S    
C29   H14   S    
