data_mof_unit_41468.cif
_audit_creation_date              2012-12-11T15:13:44-0500
_audit_creation_method            fapswitch 2.2
_symmetry_space_group_name_H-M    P1
_symmetry_Int_Tables_number       1
_space_group_crystal_system       triclinic
_cell_length_a                    6.983502
_cell_length_b                    14.075952
_cell_length_c                    19.878436
_cell_angle_alpha                 103.933224
_cell_angle_beta                  89.469851
_cell_angle_gamma                 91.512964
_cell_volume                      1895.87582758

loop_
_atom_site_label
_atom_site_type_symbol
_atom_type_description
_atom_site_fract_x
_atom_site_fract_y
_atom_site_fract_z
_atom_type_partial_charge
O1    O     O_R   0.506780 0.600060 0.449950 -0.542940
O2    O     O_R   0.179840 0.597110 0.589410 -0.550576
O3    O     O_R   0.004570 0.399940 0.550050 -0.532743
C1    C     C_R   0.348168 0.614363 0.618133 0.665472
O4    O     O_R   0.177380 0.612160 0.452890 -0.540242
O5    O     O_R   0.002100 0.415100 0.412560 -0.520285
C2    C     C_R   0.349002 0.638666 0.436996 0.712496
O6    O     O_R   0.509250 0.584900 0.587440 -0.553026
O7    O     O_3   0.337570 0.435330 0.486930 -0.365717
V1    V     V_3+5 0.064650 0.512000 0.502430 1.466669
O8    O     O_R   0.672090 0.402890 0.410590 -0.548675
C3    C     C_R   0.840688 0.380861 0.383262 0.725874
O9    O     O_R   0.674540 0.387840 0.547110 -0.559390
C4    C     C_R   0.842059 0.360385 0.561102 0.709488
V2    V     V_3+5 0.564040 0.488000 0.497570 1.431492
O10   O     O_3   0.840990 0.564670 0.513070 -0.388650
C5    C     C_R   0.882468 0.118696 0.601847 0.246818
H1    H     H_    0.834785 0.170294 0.510239 0.125169
H2    H     H_    0.989686 0.005898 0.683513 0.169071
C6    C     C_R   0.846540 0.288280 0.601590 -0.139115
C7    C     C_R   0.797698 0.305921 0.931603 -0.185940
C8    C     C_R   0.747979 0.374637 0.895577 -0.137408
C9    C     C_R   0.764591 0.353282 0.823743 -0.082272
C10   C     C_R   0.843920 0.265371 0.785949 0.055112
C11   C     C_R   0.883295 0.192675 0.822180 -0.019083
C12   C     C_R   0.864148 0.243809 0.712047 -0.039378
C13   C     C_R   0.896874 0.146419 0.674742 0.003606
C14   C     C_R   0.946942 0.078522 0.710883 -0.248805
C15   C     C_R   0.932892 0.099568 0.782844 0.351798
C16   C     C_R   0.863501 0.316835 0.674480 0.344113
C17   C     C_R   0.847789 0.190206 0.566196 -0.255125
C18   C     C_R   0.860271 0.213819 0.896009 -0.076943
H3    H     H_    0.776543 0.322549 0.987274 0.096063
H4    H     H_    0.700460 0.402704 0.797850 0.140615
H5    H     H_    0.687828 0.443258 0.923170 0.116035
C19   C     C_3   0.731937 0.171991 0.248086 -0.161266
C20   C     C_3   0.901273 0.201679 0.298415 0.202016
H6    H     H_    0.628217 0.110522 0.246498 0.113621
C21   C     C_3   0.850071 0.309851 0.313021 -0.068228
C22   C     C_3   0.679725 0.281734 0.262094 -0.209453
C23   C     C_3   0.812486 0.294497 0.201243 -0.222625
C24   C     C_3   0.981801 0.320222 0.252464 0.443898
C25   C     C_3   0.037576 0.211638 0.239110 -0.199667
C26   C     C_3   0.865667 0.185487 0.188391 -0.088715
H7    H     H_    0.530709 0.306057 0.272938 0.156750
H8    H     H_    0.777502 0.333079 0.160550 0.106173
H9    H     H_    0.183650 0.181518 0.230951 0.115577
C27   C     C_3   0.510114 0.759811 0.715770 -0.133312
C28   C     C_3   0.351949 0.833513 0.744213 -0.146842
H10   H     H_    0.347090 0.909787 0.738151 0.116750
H11   H     H_    0.632551 0.772753 0.682846 0.098212
C29   C     C_3   0.356829 0.803686 0.813897 -0.021491
C30   C     C_3   0.513578 0.729979 0.786400 -0.123736
C31   C     C_3   0.360923 0.648947 0.759221 -0.123939
C32   C     C_3   0.204233 0.722440 0.788424 -0.163006
C33   C     C_3   0.197696 0.752494 0.717963 -0.114530
C34   C     C_3   0.356075 0.680185 0.689952 0.010372
H12   H     H_    0.627681 0.721195 0.822229 0.110909
H13   H     H_    0.364704 0.572352 0.764627 0.112909
H14   H     H_    0.087737 0.710962 0.823881 0.111360
H15   H     H_    0.069482 0.760435 0.687406 0.111773
C35   C     C_R   0.543304 0.862744 0.387133 -0.154663
H16   H     H_    0.549255 0.808527 0.478886 0.109532
H17   H     H_    0.647771 0.968136 0.298706 0.117724
H18   H     H_    0.639282 0.923919 0.409104 0.109086
C36   C     C_R   0.370855 0.716724 0.399879 -0.040363
C37   C     C_R   0.213010 0.709790 0.076299 -0.153572
C38   C     C_R   0.126981 0.654110 0.117572 -0.118111
C39   C     C_R   0.164214 0.675411 0.188263 -0.182283
C40   C     C_R   0.300639 0.748861 0.218745 0.072925
C41   C     C_R   0.383022 0.808570 0.176662 0.073671
C42   C     C_R   0.355352 0.765872 0.289821 0.063749
C43   C     C_R   0.481658 0.846056 0.318237 0.149839
C44   C     C_R   0.551307 0.907043 0.277132 -0.207403
C45   C     C_R   0.504510 0.888200 0.207331 -0.211669
C46   C     C_R   0.298536 0.702649 0.332624 -0.228821
C47   C     C_R   0.491000 0.797601 0.427164 -0.157228
C48   C     C_R   0.335794 0.789187 0.105241 -0.084248
H19   H     H_    0.210983 0.637667 0.313561 0.133138
H20   H     H_    0.172628 0.695337 0.022179 0.105144
H21   H     H_    0.083406 0.633153 0.217822 0.128345
H22   H     H_    0.025129 0.596092 0.095036 0.117913
H23   H     H_    0.566523 0.936195 0.177490 0.130420
O11   O     O_R   0.203580 0.914920 0.912610 -0.528760
O12   O     O_R   0.535710 0.887810 0.047120 -0.548239
O13   O     O_R   0.710730 0.084950 0.087430 -0.542163
C49   C     C_R   0.363851 0.863525 0.064964 0.679772
O14   O     O_R   0.533010 0.902850 0.910600 -0.557564
O15   O     O_R   0.708010 0.100090 0.949930 -0.550064
C50   C     C_R   0.363756 0.877953 0.884001 0.668355
O16   O     O_R   0.206300 0.899780 0.050100 -0.540341
O17   O     O_3   0.375170 0.064580 0.013100 -0.374095
V3    V     V_3+5 0.648200 0.988020 0.997570 1.400475
O18   O     O_R   0.038030 0.112330 0.952840 -0.524216
C51   C     C_R   0.870312 0.138601 0.936452 0.776660
O19   O     O_R   0.040730 0.097300 0.089360 -0.550963
C52   C     C_R   0.872736 0.117008 0.117425 0.691015
V4    V     V_3+5 0.148780 0.012220 0.002360 1.446755
O20   O     O_3   0.871930 0.935430 0.986900 -0.381362
O21   O     O_3   0.114431 0.399189 0.256985 -0.560190
C53   C     C_3   0.219676 0.385845 0.194391 0.080018
H24   H     H_    0.128331 0.401078 0.152830 0.117954
H25   H     H_    0.274993 0.310410 0.176963 0.118431
C54   C     C_3   0.393309 0.455572 0.204550 -0.714577
H26   H     H_    0.475017 0.451812 0.251270 0.222959
H27   H     H_    0.488169 0.437202 0.158353 0.175473
H28   H     H_    0.348509 0.531520 0.211503 0.219446
N1    N     N_3   0.900783 0.018111 0.564590 -0.675901
H29   H     H_    0.779675 0.979463 0.575945 0.214154
H30   H     H_    0.899336 0.011782 0.511083 0.229841
O22   O     O_3   0.938460 0.408393 0.706847 -0.561733
C55   C     C_3   0.818588 0.485006 0.700982 0.108750
H31   H     H_    0.664473 0.462342 0.692686 0.091467
H32   H     H_    0.869857 0.516650 0.657877 0.154868
C56   C     C_3   0.837855 0.564999 0.766765 -0.774890
H33   H     H_    0.969951 0.556299 0.795118 0.249948
H34   H     H_    0.845452 0.635986 0.752395 0.188420
H35   H     H_    0.714247 0.562717 0.801733 0.184155
O23   O     O_3   0.961017 0.025733 0.814406 -0.566421
C57   C     C_3   0.805158 0.958411 0.798724 0.073086
H36   H     H_    0.759984 0.941040 0.743389 0.095306
H37   H     H_    0.678643 0.986560 0.830369 0.150055
C58   C     C_3   0.871886 0.865619 0.813320 -0.665054
H38   H     H_    0.827724 0.853527 0.863752 0.229274
H39   H     H_    0.841124 0.802534 0.770385 0.148794
H40   H     H_    0.025119 0.872054 0.814442 0.256250
N2    N     N_3   0.948887 0.151346 0.351774 -0.671087
H41   H     H_    0.977228 0.078814 0.326858 0.228521
H42   H     H_    0.825765 0.149536 0.381750 0.207207

loop_
_geom_bond_atom_site_label_1
_geom_bond_atom_site_label_2
_ccdc_geom_bond_type
C48   C49   S    
C32   C33   S    
C20   C25   S    
C53   H24   S    
C30   H12   S    
C49   O16   A    
C23   C24   S    
C35   C47   A    
C29   C50   S    
O22   C55   S    
C46   H19   S    
C42   C46   A    
C55   H32   S    
O17   V4    S    
C27   C34   S    
C6    C16   A    
C30   C31   S    
C33   C34   S    
C8    H5    S    
C15   O23   S    
C14   C15   A    
C12   C13   A    
C7    C8    A    
C19   C20   S    
O21   C53   S    
C10   C12   A    
O5    C3    A    
C58   H39   S    
C7    H3    S    
O18   V4    S    
V2    O10   S    
V4    O20   S    
N1    H29   S    
C43   C44   A    
O13   C52   A    
C55   H31   S    
C31   C32   S    
O12   V3    S    
C27   H11   S    
C38   C39   A    
C56   H34   S    
O19   V4    S    
C1    C34   S    
C23   H8    S    
C35   C43   A    
C40   C41   A    
O1    V2    S    
O7    V1    S    
V3    O20   S    
C57   C58   S    
C1    O6    A    
C41   C48   A    
C28   C29   S    
C11   C18   A    
C53   H25   S    
O9    C4    A    
C27   C30   S    
C37   C48   A    
O11   C50   A    
C54   H27   S    
C54   H26   S    
C57   H37   S    
C21   C24   S    
C31   H13   S    
O12   C49   A    
C11   C15   A    
C22   H7    S    
C7    C18   A    
C44   C45   A    
C37   C38   A    
C5    C13   A    
C4    C6    S    
C58   H38   S    
C10   C11   A    
C5    N1    S    
C21   C22   S    
O4    C2    A    
C58   H40   S    
O15   C51   A    
O2    C1    A    
C25   C26   S    
N2    H42   S    
O13   V3    S    
C24   O21   S    
C26   C52   S    
C19   C22   S    
C9    C10   A    
C56   H35   S    
C36   C46   A    
O19   C52   A    
O18   C51   A    
C33   H15   S    
H2    C14   S    
O3    C4    A    
C22   C23   S    
O14   C50   A    
C12   C16   A    
C53   C54   S    
O8    V2    S    
O9    V2    S    
C5    C17   A    
C23   C26   S    
C19   C26   S    
C24   C25   S    
N2    H41   S    
O2    V1    S    
C29   C30   S    
H16   C47   S    
C36   C47   A    
O14   V3    S    
C27   C28   S    
C9    H4    S    
C35   H18   S    
O1    C2    A    
C8    C9    A    
C37   H20   S    
C42   C43   A    
O5    V1    S    
O23   C57   S    
C29   C32   S    
O6    V2    S    
C28   C33   S    
C16   O22   S    
C38   H22   S    
C3    C21   S    
C19   H6    S    
O7    V2    S    
O11   V4    S    
O4    V1    S    
C20   C21   S    
O3    V1    S    
V1    O10   S    
C2    C36   S    
C41   C45   A    
C45   H23   S    
O17   V3    S    
N1    H30   S    
C55   C56   S    
O16   V4    S    
O15   V3    S    
C39   C40   A    
C39   H21   S    
C18   C51   S    
C28   H10   S    
C13   C14   A    
H17   C44   S    
C57   H36   S    
C40   C42   A    
H1    C17   S    
C32   H14   S    
C25   H9    S    
C6    C17   A    
C54   H28   S    
C56   H33   S    
O8    C3    A    
C20   N2    S    
C31   C34   S    
