data_mof_unit_24723.cif
_audit_creation_date              2012-12-10T16:57:09-0500
_audit_creation_method            fapswitch 2.2
_symmetry_space_group_name_H-M    P1
_symmetry_Int_Tables_number       1
_space_group_crystal_system       triclinic
_cell_length_a                    7.765185
_cell_length_b                    8.568968
_cell_length_c                    16.51947
_cell_angle_alpha                 91.676772
_cell_angle_beta                  80.280528
_cell_angle_gamma                 93.858122
_cell_volume                      1080.78710221

loop_
_atom_site_label
_atom_site_type_symbol
_atom_type_description
_atom_site_fract_x
_atom_site_fract_y
_atom_site_fract_z
_atom_type_partial_charge
C1    C     C_R   0.546341 0.794876 0.497855 0.946675
C2    C     C_R   0.453533 0.673761 0.240889 -0.259874
C3    C     C_R   0.635992 0.586889 0.854515 -0.144576
C4    C     C_R   0.493529 0.741324 0.164309 -0.180607
C5    C     C_R   0.499712 0.668940 0.899515 0.123472
C6    C     C_R   0.628531 0.685614 0.105729 0.126824
C7    C     C_R   0.348431 0.687137 0.866431 -0.285534
C8    C     C_R   0.728485 0.566695 0.125505 -0.254071
C9    C     C_R   0.335611 0.632735 0.787014 0.474894
C10   C     C_R   0.687804 0.496771 0.202091 0.469595
C11   C     C_2   0.499409 0.715714 0.985504 -0.196318
C12   C     C_R   0.453663 0.205115 0.502075 0.968754
C13   C     C_2   0.644609 0.726167 0.019520 -0.223242
C14   C     C_3   0.702517 0.233672 0.207605 0.090168
C15   C     C_3   0.802106 0.105121 0.236742 -0.794563
C16   C     C_3   0.181317 0.808816 0.732224 0.097954
C17   C     C_3   0.994260 0.844834 0.727170 -0.819637
C18   C     C_2   0.570757 0.958384 0.496395 -0.385640
C19   C     C_2   0.429230 0.041574 0.503441 -0.401404
C20   C     C_R   0.478027 0.509086 0.654993 0.870650
C21   C     C_R   0.524350 0.503225 0.345270 0.884432
C22   C     C_R   0.474165 0.551220 0.741743 -0.156172
C23   C     C_R   0.549585 0.551383 0.260286 -0.154751
C24   C     C_R   0.623001 0.528769 0.776573 -0.271764
H1    H     H_    0.731147 0.467228 0.743143 0.194571
H2    H     H_    0.295693 0.990201 0.510378 0.179067
H3    H     H_    0.022639 0.379022 0.439765 0.197233
H4    H     H_    0.977305 0.621418 0.559748 0.189321
H5    H     H_    0.698549 0.213856 0.140976 0.141589
H6    H     H_    0.566379 0.224575 0.242640 0.116797
H7    H     H_    0.805572 0.120968 0.303472 0.256400
H8    H     H_    0.736212 0.989064 0.226132 0.214951
H9    H     H_    0.938257 0.108841 0.202437 0.250279
H10   H     H_    0.263392 0.825086 0.670692 0.162501
H11   H     H_    0.230113 0.895461 0.776135 0.122393
H12   H     H_    0.350781 0.720511 0.285853 0.181327
H13   H     H_    0.912872 0.839015 0.789249 0.252469
H14   H     H_    0.992522 0.964189 0.702996 0.207682
H15   H     H_    0.937264 0.759069 0.685923 0.252959
H16   H     H_    0.773316 0.725371 0.981827 0.147957
H17   H     H_    0.371655 0.716104 0.024428 0.156576
H18   H     H_    0.239284 0.744022 0.902281 0.141756
H19   H     H_    0.831792 0.522124 0.080006 0.146304
H20   H     H_    0.416595 0.834565 0.150044 0.142698
H21   H     H_    0.750952 0.562461 0.879623 0.155169
H22   H     H_    0.704286 0.009744 0.489482 0.180544
N1    N     N_2   0.953500 0.457650 0.478520 -0.167684
N2    N     N_2   0.046500 0.542350 0.521480 -0.167021
O1    O     O_R   0.388470 0.738640 0.505270 -0.621825
O2    O     O_3   0.183293 0.651961 0.756363 -0.602237
O3    O     O_R   0.611530 0.261360 0.494730 -0.611009
O4    O     O_R   0.679650 0.711510 0.491500 -0.630181
O5    O     O_R   0.320350 0.288490 0.508500 -0.629492
O6    O     O_R   0.337210 0.515200 0.623500 -0.565258
O7    O     O_R   0.662790 0.484800 0.376500 -0.563921
O8    O     O_R   0.628380 0.488060 0.609730 -0.632005
O9    O     O_R   0.371620 0.511940 0.390270 -0.629686
O10   O     O_3   0.788812 0.380283 0.220777 -0.600067
Zn1   Zn    Zn3+2 0.305580 0.518120 0.509190 0.950269
Zn2   Zn    Zn3+2 0.694420 0.481880 0.490810 0.954313

loop_
_geom_bond_atom_site_label_1
_geom_bond_atom_site_label_2
_ccdc_geom_bond_type
C16   O2    S    
C2    C4    A    
C21   O9    A    
C10   C23   A    
C4    H20   S    
C12   O5    A    
O1    Zn1   S    
C8    H19   S    
C20   O8    A    
C1    C18   S    
C15   H8    S    
C16   H11   S    
C17   H13   S    
O7    Zn2   S    
C6    C13   S    
C15   H7    S    
C11   C13   D    
C3    C24   A    
C14   H6    S    
C18   H22   S    
C12   C19   S    
C8    C10   A    
C10   O10   S    
C20   C22   S    
C11   H17   S    
C5    C7    A    
C17   H14   S    
C21   C23   S    
C5    C11   S    
O5    Zn1   S    
C14   O10   S    
C1    O4    A    
C22   C24   A    
C9    C22   A    
O9    Zn1   S    
C4    C6    A    
C14   H5    S    
C2    H12   S    
C7    C9    A    
C12   O3    A    
O8    Zn2   S    
C24   H1    S    
N2    Zn1   S    
C20   O6    A    
C18   C19   D    
C17   H15   S    
C7    H18   S    
H3    N1    S    
C2    C23   A    
C21   O7    A    
C19   H2    S    
C14   C15   S    
H4    N2    S    
C13   H16   S    
C6    C8    A    
O3    Zn2   S    
O4    Zn2   S    
C16   H10   S    
N1    Zn2   S    
O6    Zn1   S    
C1    O1    A    
C3    H21   S    
C9    O2    S    
N1    N2    D    
C15   H9    S    
C16   C17   S    
C3    C5    A    
