data_mof_unit_65643.cif
_audit_creation_date              2012-12-10T20:11:17-0500
_audit_creation_method            fapswitch 2.2
_symmetry_space_group_name_H-M    P1
_symmetry_Int_Tables_number       1
_space_group_crystal_system       triclinic
_cell_length_a                    15.94145
_cell_length_b                    15.940855
_cell_length_c                    51.50097
_cell_angle_alpha                 89.999916
_cell_angle_beta                  89.999916
_cell_angle_gamma                 90.004134
_cell_volume                      13087.444124

loop_
_atom_site_label
_atom_site_type_symbol
_atom_type_description
_atom_site_fract_x
_atom_site_fract_y
_atom_site_fract_z
_atom_type_partial_charge
C1    C     C_R   0.924051 0.497025 0.637095 -0.192059
C2    C     C_R   0.924051 0.497017 0.362905 -0.192060
C3    C     C_R   0.498199 0.075983 0.637111 -0.192871
C4    C     C_R   0.501800 0.924017 0.362889 -0.192871
C5    C     C_R   0.075950 0.502975 0.637095 -0.192058
C6    C     C_R   0.075949 0.502983 0.362905 -0.192060
C7    C     C_R   0.501801 0.924017 0.637111 -0.192871
C8    C     C_R   0.498200 0.075983 0.362889 -0.192872
C9    C     C_R   0.575976 0.002168 0.137098 -0.192254
C10   C     C_R   0.575975 0.002182 0.862902 -0.192254
C11   C     C_R   0.998919 0.424000 0.137101 -0.192463
C12   C     C_R   0.998929 0.423999 0.862899 -0.192460
C13   C     C_R   0.424025 0.997831 0.137098 -0.192254
C14   C     C_R   0.424025 0.997818 0.862902 -0.192254
C15   C     C_R   0.001081 0.576001 0.137101 -0.192463
C16   C     C_R   0.001071 0.576000 0.862899 -0.192460
C17   C     C_R   0.500000 0.999999 0.986166 -0.103690
C18   C     C_R   0.500001 0.999999 0.013834 -0.103691
C19   C     C_R   0.000000 0.500000 0.986168 -0.103857
C20   C     C_R   0.000000 0.500001 0.013832 -0.103858
C21   C     C_R   1.000000 0.500000 0.486164 -0.103613
C22   C     C_R   0.000000 0.500000 0.513836 -0.103614
C23   C     C_R   0.500000 1.000000 0.486173 -0.104291
C24   C     C_R   0.500000 1.000000 0.513827 -0.104290
C25   C     C_R   0.442491 0.857236 0.986351 0.354000
C26   C     C_R   0.557511 0.142763 0.013649 0.354001
C27   C     C_R   0.140336 0.563157 0.986350 0.353980
C28   C     C_R   0.859664 0.436846 0.013649 0.353981
C29   C     C_R   0.557511 0.142762 0.986350 0.354000
C30   C     C_R   0.442492 0.857235 0.013649 0.354001
C31   C     C_R   0.859664 0.436845 0.986351 0.353980
C32   C     C_R   0.140337 0.563156 0.013649 0.353980
C33   C     C_R   0.947584 0.355270 0.486351 0.355225
C34   C     C_R   0.052416 0.644730 0.513649 0.355225
C35   C     C_R   0.634332 0.075026 0.486350 0.355221
C36   C     C_R   0.365667 0.924974 0.513650 0.355220
C37   C     C_R   0.052416 0.644730 0.486351 0.355225
C38   C     C_R   0.947584 0.355270 0.513649 0.355225
C39   C     C_R   0.365668 0.924974 0.486351 0.355221
C40   C     C_R   0.634332 0.075026 0.513649 0.355220
C41   C     C_R   0.924126 0.496941 0.609936 -0.083835
C42   C     C_R   0.924126 0.496932 0.390064 -0.083831
C43   C     C_R   0.498141 0.075916 0.609957 -0.082956
C44   C     C_R   0.501858 0.924083 0.390043 -0.082955
C45   C     C_R   0.075874 0.503059 0.609936 -0.083833
C46   C     C_R   0.075873 0.503068 0.390064 -0.083832
C47   C     C_R   0.501859 0.924084 0.609957 -0.082957
C48   C     C_R   0.498142 0.075916 0.390043 -0.082956
C49   C     C_R   0.575903 0.002228 0.109940 -0.083856
C50   C     C_R   0.575902 0.002242 0.890060 -0.083855
C51   C     C_R   0.998892 0.424070 0.109945 -0.083631
C52   C     C_R   0.998902 0.424069 0.890055 -0.083633
C53   C     C_R   0.424097 0.997771 0.109940 -0.083856
C54   C     C_R   0.424097 0.997757 0.890060 -0.083855
C55   C     C_R   0.001108 0.575931 0.109945 -0.083631
C56   C     C_R   0.001098 0.575930 0.890055 -0.083634
C57   C     C_R   0.000000 0.500000 0.596194 0.279540
C58   C     C_R   1.000000 0.500000 0.403806 0.279533
C59   C     C_R   0.500000 0.000000 0.596195 0.277001
C60   C     C_R   0.500000 1.000000 0.403805 0.277001
C61   C     C_R   0.500000 1.000000 0.096194 0.279489
C62   C     C_R   0.500000 1.000000 0.903806 0.279484
C63   C     C_R   0.000000 0.500000 0.096194 0.278839
C64   C     C_R   0.000001 0.500000 0.903806 0.278847
C65   C     C_R   0.000000 0.500000 0.820227 0.801965
C66   C     C_R   0.000000 0.500000 0.179773 0.801966
C67   C     C_R   0.500000 1.000000 0.820228 0.801911
C68   C     C_R   0.500000 0.000000 0.179772 0.801911
C69   C     C_R   0.500000 1.000000 0.320225 0.801959
C70   C     C_R   0.500000 1.000000 0.679775 0.801959
C71   C     C_R   1.000000 0.500000 0.320229 0.801827
C72   C     C_R   1.000000 0.500000 0.679771 0.801827
C73   C     C_R   0.839686 0.660315 0.750000 0.857488
C74   C     C_R   0.160314 0.339685 0.250000 0.857488
C75   C     C_R   0.339687 0.839686 0.750000 0.858174
C76   C     C_R   0.660313 0.160314 0.250000 0.858175
C77   C     C_R   0.160314 0.339685 0.750000 0.857489
C78   C     C_R   0.839686 0.660315 0.250000 0.857489
C79   C     C_R   0.660313 0.160314 0.750000 0.858175
C80   C     C_R   0.339687 0.839686 0.250000 0.858174
C81   C     C_R   0.839687 0.339686 0.250000 0.858123
C82   C     C_R   0.160313 0.660313 0.750000 0.858124
C83   C     C_R   0.339686 0.160314 0.250000 0.857407
C84   C     C_R   0.660314 0.839685 0.750000 0.857408
C85   C     C_R   0.160313 0.660313 0.250000 0.858124
C86   C     C_R   0.839687 0.339686 0.750000 0.858123
C87   C     C_R   0.660314 0.839685 0.250000 0.857409
C88   C     C_R   0.339686 0.160314 0.750000 0.857409
C89   C     C_R   0.000000 0.500000 0.650988 -0.024543
C90   C     C_R   1.000000 0.500000 0.349012 -0.024543
C91   C     C_R   0.500000 0.000000 0.650999 -0.024405
C92   C     C_R   0.500000 1.000000 0.349000 -0.024405
C93   C     C_R   0.500000 1.000000 0.150991 -0.024345
C94   C     C_R   0.500000 1.000000 0.849009 -0.024347
C95   C     C_R   0.000000 0.500000 0.150993 -0.024335
C96   C     C_R   0.000000 0.500000 0.849007 -0.024335
C97   C     C_1   0.776581 0.276580 0.750000 -0.144015
C98   C     C_1   0.223419 0.723420 0.250000 -0.144015
C99   C     C_1   0.723419 0.776580 0.750000 -0.145664
C100  C     C_1   0.276581 0.223420 0.250000 -0.145664
C101  C     C_1   0.223419 0.723419 0.750000 -0.144015
C102  C     C_1   0.776581 0.276581 0.250000 -0.144015
C103  C     C_1   0.276581 0.223420 0.750000 -0.145664
C104  C     C_1   0.723419 0.776580 0.250000 -0.145664
C105  C     C_1   0.776581 0.723420 0.250000 -0.145636
C106  C     C_1   0.223419 0.276580 0.750000 -0.145636
C107  C     C_1   0.723419 0.223420 0.250000 -0.143985
C108  C     C_1   0.276581 0.776580 0.750000 -0.143985
C109  C     C_1   0.223419 0.276580 0.250000 -0.145635
C110  C     C_1   0.776581 0.723420 0.750000 -0.145635
C111  C     C_1   0.276582 0.776580 0.250000 -0.143985
C112  C     C_1   0.723418 0.223419 0.750000 -0.143985
C113  C     C_R   0.524873 0.070390 0.944758 0.576493
C114  C     C_R   0.475120 0.929612 0.055242 0.576493
C115  C     C_R   0.930452 0.472868 0.944769 0.576430
C116  C     C_R   0.069549 0.527132 0.055231 0.576429
C117  C     C_R   0.475127 0.929609 0.944758 0.576494
C118  C     C_R   0.524881 0.070387 0.055242 0.576494
C119  C     C_R   0.069549 0.527132 0.944769 0.576430
C120  C     C_R   0.930452 0.472869 0.055231 0.576429
C121  C     C_R   0.022965 0.571036 0.444748 0.577060
C122  C     C_R   0.977035 0.428964 0.555252 0.577060
C123  C     C_R   0.432623 0.967852 0.444792 0.576797
C124  C     C_R   0.567377 0.032147 0.555208 0.576797
C125  C     C_R   0.977034 0.428964 0.444748 0.577060
C126  C     C_R   0.022966 0.571036 0.555252 0.577061
C127  C     C_R   0.567377 0.032147 0.444792 0.576797
C128  C     C_R   0.432623 0.967854 0.555208 0.576797
C129  C     C_R   0.472196 0.928003 0.972311 -0.158399
C130  C     C_R   0.527807 0.071995 0.027689 -0.158398
C131  C     C_R   0.070900 0.530462 0.972316 -0.157813
C132  C     C_R   0.929100 0.469539 0.027684 -0.157811
C133  C     C_R   0.527805 0.071996 0.972311 -0.158397
C134  C     C_R   0.472194 0.928003 0.027689 -0.158398
C135  C     C_R   0.929101 0.469539 0.972316 -0.157812
C136  C     C_R   0.070901 0.530462 0.027684 -0.157810
C137  C     C_R   0.974545 0.427128 0.472307 -0.158872
C138  C     C_R   0.025455 0.572872 0.527693 -0.158873
C139  C     C_R   0.568153 0.036146 0.472326 -0.156616
C140  C     C_R   0.431847 0.963854 0.527674 -0.156616
C141  C     C_R   0.025455 0.572872 0.472307 -0.158872
C142  C     C_R   0.974545 0.427128 0.527693 -0.158873
C143  C     C_R   0.431847 0.963853 0.472326 -0.156616
C144  C     C_R   0.568153 0.036147 0.527674 -0.156616
H1    H     H_    0.864529 0.494679 0.647199 0.172634
H2    H     H_    0.864529 0.494664 0.352801 0.172634
H3    H     H_    0.496702 0.135534 0.647216 0.172669
H4    H     H_    0.503296 0.864466 0.352784 0.172669
H5    H     H_    0.135471 0.505321 0.647199 0.172634
H6    H     H_    0.135470 0.505336 0.352801 0.172635
H7    H     H_    0.503298 0.864466 0.647216 0.172669
H8    H     H_    0.496704 0.135534 0.352784 0.172669
H9    H     H_    0.635520 0.003865 0.147202 0.172505
H10   H     H_    0.635519 0.003890 0.852798 0.172505
H11   H     H_    0.998098 0.364435 0.147205 0.172530
H12   H     H_    0.998116 0.364434 0.852795 0.172529
H13   H     H_    0.364480 0.996135 0.147202 0.172505
H14   H     H_    0.364481 0.996110 0.852798 0.172505
H15   H     H_    0.001902 0.635566 0.147205 0.172530
H16   H     H_    0.001884 0.635565 0.852795 0.172529
N1    N     N_R   0.500000 1.000000 0.931844 -0.370460
N2    N     N_R   0.500000 1.000000 0.068156 -0.370460
N3    N     N_R   0.000001 0.500000 0.931847 -0.370303
N4    N     N_R   0.000000 0.500000 0.068152 -0.370301
N5    N     N_R   1.000000 0.500000 0.431841 -0.370668
N6    N     N_R   0.000000 0.500000 0.568159 -0.370669
N7    N     N_R   0.500000 1.000000 0.431854 -0.370031
N8    N     N_R   0.500000 0.000000 0.568146 -0.370031
O1    O     O_3   0.000000 0.500000 0.750000 -0.484596
O2    O     O_3   0.000000 0.500000 0.250000 -0.484596
O3    O     O_3   0.500000 0.000000 0.750000 -0.484606
O4    O     O_3   0.500000 1.000000 0.250000 -0.484606
O5    O     O_R   1.000000 0.430630 0.807650 -0.641691
O6    O     O_R   1.000000 0.569370 0.192350 -0.641692
O7    O     O_R   0.569370 0.000000 0.807650 -0.641673
O8    O     O_R   0.430630 1.000000 0.192350 -0.641673
O9    O     O_R   1.000000 0.569370 0.807650 -0.641691
O10   O     O_R   1.000000 0.430630 0.192350 -0.641691
O11   O     O_R   0.430630 0.000000 0.807650 -0.641673
O12   O     O_R   0.569370 1.000000 0.192350 -0.641673
O13   O     O_R   0.500000 0.930630 0.307650 -0.641668
O14   O     O_R   0.500000 0.069370 0.692350 -0.641669
O15   O     O_R   0.069370 0.500000 0.307650 -0.641643
O16   O     O_R   0.930630 0.500000 0.692350 -0.641643
O17   O     O_R   0.500000 0.069370 0.307650 -0.641668
O18   O     O_R   0.500000 0.930630 0.692350 -0.641668
O19   O     O_R   0.930630 0.500000 0.307650 -0.641644
O20   O     O_R   0.069370 0.500000 0.692350 -0.641644
O21   O     O_R   0.902350 0.666510 0.764820 -0.635319
O22   O     O_R   0.097650 0.333490 0.235180 -0.635319
O23   O     O_R   0.333490 0.902350 0.764820 -0.634996
O24   O     O_R   0.666510 0.097650 0.235180 -0.634995
O25   O     O_R   0.097650 0.333490 0.764820 -0.635320
O26   O     O_R   0.902350 0.666510 0.235180 -0.635319
O27   O     O_R   0.666510 0.097650 0.764820 -0.634996
O28   O     O_R   0.333490 0.902350 0.235180 -0.634995
O29   O     O_R   0.902350 0.333490 0.235180 -0.634915
O30   O     O_R   0.097650 0.666510 0.764820 -0.634915
O31   O     O_R   0.333490 0.097650 0.235180 -0.635230
O32   O     O_R   0.666510 0.902350 0.764820 -0.635230
O33   O     O_R   0.097650 0.666510 0.235180 -0.634916
O34   O     O_R   0.902350 0.333490 0.764820 -0.634915
O35   O     O_R   0.666510 0.902350 0.235180 -0.635231
O36   O     O_R   0.333490 0.097650 0.764820 -0.635230
O37   O     O_R   0.402350 0.166510 0.264820 -0.635411
O38   O     O_R   0.597650 0.833490 0.735180 -0.635411
O39   O     O_R   0.833490 0.402350 0.264820 -0.634891
O40   O     O_R   0.166510 0.597650 0.735180 -0.634891
O41   O     O_R   0.597650 0.833490 0.264820 -0.635411
O42   O     O_R   0.402350 0.166510 0.735180 -0.635411
O43   O     O_R   0.166510 0.597650 0.264820 -0.634891
O44   O     O_R   0.833490 0.402350 0.735180 -0.634891
O45   O     O_R   0.402350 0.833490 0.735180 -0.634676
O46   O     O_R   0.597650 0.166510 0.264820 -0.634677
O47   O     O_R   0.833490 0.597650 0.735180 -0.635197
O48   O     O_R   0.166510 0.402350 0.264820 -0.635196
O49   O     O_R   0.597650 0.166510 0.735180 -0.634677
O50   O     O_R   0.402350 0.833490 0.264820 -0.634677
O51   O     O_R   0.166510 0.402350 0.735180 -0.635197
O52   O     O_R   0.833490 0.597650 0.264820 -0.635196
O53   O     O_2   0.545453 0.138514 0.930655 -0.462825
O54   O     O_2   0.454524 0.861494 0.069345 -0.462826
O55   O     O_2   0.862836 0.450532 0.930688 -0.463034
O56   O     O_2   0.137165 0.549468 0.069312 -0.463037
O57   O     O_2   0.454546 0.861486 0.930655 -0.462825
O58   O     O_2   0.545477 0.138506 0.069345 -0.462826
O59   O     O_2   0.137166 0.549467 0.930688 -0.463034
O60   O     O_2   0.862836 0.450533 0.069312 -0.463037
O61   O     O_2   0.042192 0.639510 0.430625 -0.462462
O62   O     O_2   0.957807 0.360491 0.569375 -0.462460
O63   O     O_2   0.366420 0.941351 0.430758 -0.463276
O64   O     O_2   0.633580 0.058648 0.569242 -0.463276
O65   O     O_2   0.957807 0.360490 0.430625 -0.462462
O66   O     O_2   0.042194 0.639509 0.569375 -0.462460
O67   O     O_2   0.633580 0.058648 0.430757 -0.463277
O68   O     O_2   0.366419 0.941353 0.569243 -0.463276
Zn1   Zn    Zn3+2 0.900880 0.500000 0.727850 0.991439
Zn2   Zn    Zn3+2 0.099120 0.500000 0.272150 0.991439
Zn3   Zn    Zn3+2 0.500000 0.900880 0.727850 0.991414
Zn4   Zn    Zn3+2 0.500000 0.099120 0.272150 0.991414
Zn5   Zn    Zn3+2 0.099120 0.500000 0.727850 0.991439
Zn6   Zn    Zn3+2 0.900880 0.500000 0.272150 0.991439
Zn7   Zn    Zn3+2 0.500000 0.099120 0.727850 0.991414
Zn8   Zn    Zn3+2 0.500000 0.900880 0.272150 0.991414
Zn9   Zn    Zn3+2 0.400880 0.000000 0.227850 0.991332
Zn10  Zn    Zn3+2 0.599120 1.000000 0.772150 0.991332
Zn11  Zn    Zn3+2 0.000000 0.400880 0.227850 0.991340
Zn12  Zn    Zn3+2 1.000000 0.599120 0.772150 0.991340
Zn13  Zn    Zn3+2 0.599120 0.000000 0.227850 0.991332
Zn14  Zn    Zn3+2 0.400880 1.000000 0.772150 0.991332
Zn15  Zn    Zn3+2 0.000000 0.599120 0.227850 0.991340
Zn16  Zn    Zn3+2 0.000000 0.400880 0.772150 0.991340
Cl1   Cl    Cl    0.401765 0.766602 0.970645 -0.321501
Cl2   Cl    Cl    0.598228 0.233402 0.029354 -0.321497
Cl3   Cl    Cl    0.228917 0.608113 0.970633 -0.324950
Cl4   Cl    Cl    0.771081 0.391895 0.029367 -0.324948
Cl5   Cl    Cl    0.598239 0.233396 0.970645 -0.321503
Cl6   Cl    Cl    0.401778 0.766595 0.029355 -0.321496
Cl7   Cl    Cl    0.771084 0.391889 0.970633 -0.324948
Cl8   Cl    Cl    0.228919 0.608108 0.029367 -0.324949
Cl9   Cl    Cl    0.910849 0.262915 0.470657 -0.319081
Cl10  Cl    Cl    0.089151 0.737086 0.529343 -0.319080
Cl11  Cl    Cl    0.717985 0.128499 0.470607 -0.332646
Cl12  Cl    Cl    0.282015 0.871500 0.529393 -0.332647
Cl13  Cl    Cl    0.089151 0.737085 0.470657 -0.319082
Cl14  Cl    Cl    0.910850 0.262914 0.529343 -0.319081
Cl15  Cl    Cl    0.282015 0.871500 0.470608 -0.332646
Cl16  Cl    Cl    0.717985 0.128500 0.529392 -0.332646
H17   H     H_    0.865137 0.494733 0.599536 0.154836
H18   H     H_    0.865137 0.494718 0.400464 0.154840
H19   H     H_    0.496423 0.134958 0.599574 0.156000
H20   H     H_    0.503576 0.865042 0.400426 0.156000
H21   H     H_    0.134863 0.505267 0.599536 0.154836
H22   H     H_    0.134862 0.505282 0.400464 0.154840
H23   H     H_    0.503577 0.865042 0.599574 0.156000
H24   H     H_    0.496424 0.134958 0.400426 0.156000
H25   H     H_    0.634921 0.003770 0.099544 0.154606
H26   H     H_    0.634919 0.003795 0.900456 0.154608
H27   H     H_    0.998245 0.365025 0.099553 0.154908
H28   H     H_    0.998263 0.365024 0.900448 0.154902
H29   H     H_    0.365080 0.996229 0.099544 0.154606
H30   H     H_    0.365080 0.996204 0.900456 0.154608
H31   H     H_    0.001756 0.634976 0.099553 0.154907
H32   H     H_    0.001737 0.634975 0.900447 0.154901

loop_
_geom_bond_atom_site_label_1
_geom_bond_atom_site_label_2
_ccdc_geom_bond_type
C128  O68   S    
O34   Zn16  S    
C88   O42   A    
C3    H3    S    
C122  N6    A    
C9    C93   A    
O28   Zn9   S    
C16   H16   S    
C34   C37   A    
C27   C131  A    
C5    C89   A    
C1    H1    S    
C19   C20   A    
C21   C137  A    
O4    Zn4   S    
C25   C129  A    
O14   Zn7   S    
C42   C58   A    
C74   C109  S    
C82   O40   A    
C68   O8    A    
C17   C133  A    
C119  O59   S    
C73   C110  S    
O1    Zn5   S    
C24   C140  A    
C66   O10   A    
O3    Zn14  S    
C3    C43   A    
O22   Zn11  S    
C46   H22   S    
C37   C141  A    
C79   C112  S    
C14   H14   S    
C78   C105  S    
C76   O24   A    
C36   Cl12  S    
O1    Zn16  S    
C23   C139  A    
C77   C106  S    
C8    H8    S    
C66   O6    A    
C86   O44   A    
O42   Zn7   S    
C82   O30   A    
O19   Zn6   S    
O15   Zn2   S    
C15   C95   A    
C47   H23   S    
O6    Zn15  S    
C79   O49   A    
O17   Zn4   S    
C123  O63   S    
C10   C94   A    
C39   Cl15  S    
C19   C135  A    
O24   Zn13  S    
C4    H4    S    
C33   Cl9   S    
O4    Zn13  S    
C124  C144  A    
O23   Zn14  S    
C79   O27   A    
O30   Zn12  S    
C3    C91   A    
C78   O26   A    
O25   Zn16  S    
C35   Cl11  S    
C2    C90   A    
C58   N5    S    
C77   O25   A    
C126  N6    A    
C72   O20   A    
C119  N3    A    
C85   C98   S    
C35   C139  A    
C124  N8    A    
C5    H5    S    
C53   C61   A    
C70   O14   A    
C65   C96   S    
C118  N2    A    
C70   C91   S    
C115  C135  A    
C67   O7    A    
O48   Zn2   S    
C30   C134  A    
C55   C63   A    
C17   C18   A    
C67   C94   S    
C119  C131  A    
C23   C24   A    
C56   C64   A    
C41   H17   S    
O38   Zn3   S    
O47   Zn1   S    
O50   Zn8   S    
C116  O56   S    
C103  C106  T    
C69   C92   S    
C117  C129  A    
C86   O34   A    
C43   H19   S    
O44   Zn1   S    
C26   C130  A    
O13   Zn8   S    
C85   O33   A    
C52   H28   S    
C123  N7    A    
C101  C108  T    
O2    Zn2   S    
C9    H9    S    
C100  C109  T    
C5    C45   A    
C21   C22   A    
C46   C58   A    
O21   Zn12  S    
C55   H31   S    
C87   O41   A    
C23   C143  A    
O20   Zn5   S    
C27   Cl3   S    
C127  C139  A    
C16   C56   A    
C12   H12   S    
C64   N3    S    
C122  O62   S    
C75   O23   A    
C85   O43   A    
O41   Zn8   S    
C87   O35   A    
C104  C105  T    
C12   C52   A    
C120  C132  A    
C48   C60   A    
C13   C53   A    
C81   C102  S    
C36   C39   A    
O5    Zn16  S    
C19   C131  A    
C63   N4    S    
C80   O28   A    
O27   Zn10  S    
C16   C96   A    
C60   N7    S    
C49   C61   A    
C34   Cl10  S    
O3    Zn10  S    
C17   C129  A    
C61   N2    S    
C71   O15   A    
C32   Cl8   S    
C9    C49   A    
O40   Zn5   S    
C72   O16   A    
C121  O61   S    
C31   C135  A    
C26   Cl2   S    
O39   Zn6   S    
C33   C137  A    
C32   C136  A    
O11   Zn14  S    
C25   Cl1   S    
C77   O51   A    
C4    C92   A    
C37   Cl13  S    
C57   N6    S    
C54   C62   A    
C114  N2    A    
O33   Zn15  S    
C6    C90   A    
C99   C110  T    
O52   Zn6   S    
C68   O12   A    
C118  O58   S    
O10   Zn11  S    
C13   C93   A    
C28   C132  A    
C44   C60   A    
C15   C55   A    
C20   C132  A    
O37   Zn4   S    
C125  N5    A    
C8    C48   A    
O49   Zn7   S    
C125  O65   S    
C15   H15   S    
C118  C130  A    
C121  C141  A    
C47   C59   A    
O12   Zn13  S    
C49   H25   S    
C45   C57   A    
C22   C142  A    
C74   O22   A    
C29   C133  A    
C114  C134  A    
O43   Zn2   S    
C51   C63   A    
C102  C107  T    
C127  N7    A    
O35   Zn13  S    
C20   C136  A    
C78   O52   A    
C125  C137  A    
C36   C140  A    
C113  O53   S    
C124  O64   S    
C8    C92   A    
C40   Cl16  S    
C1    C41   A    
C14   C54   A    
C42   H18   S    
C39   C143  A    
C76   C107  S    
C83   C100  S    
C40   C144  A    
O46   Zn4   S    
C52   C64   A    
C50   C62   A    
C7    H7    S    
O2    Zn11  S    
C18   C130  A    
C122  C142  A    
O32   Zn10  S    
C10   C50   A    
C76   O46   A    
C69   O17   A    
O16   Zn1   S    
C88   C103  S    
C121  N5    A    
C43   C59   A    
C48   H24   S    
C38   Cl14  S    
C120  N4    A    
C11   C95   A    
C25   C30   A    
C97   C112  T    
C120  O60   S    
C126  C138  A    
C1    C89   A    
C98   C111  T    
C6    C46   A    
C74   O48   A    
C27   C32   A    
C30   Cl6   S    
C84   C99   S    
C116  N4    A    
C28   C31   A    
C12   C96   A    
C81   O39   A    
C28   Cl4   S    
C71   O19   A    
C62   N1    S    
O45   Zn3   S    
C69   O13   A    
C75   O45   A    
C51   H27   S    
C65   O5    A    
C53   H29   S    
O8    Zn9   S    
C116  C136  A    
C80   O50   A    
C11   H11   S    
C2    H2    S    
O3    Zn7   S    
C4    C44   A    
C50   H26   S    
C127  O67   S    
C68   C93   S    
C44   H20   S    
O9    Zn12  S    
C56   H32   S    
C117  N1    A    
C35   C40   A    
C128  C140  A    
C70   O18   A    
C41   C57   A    
C83   O37   A    
C67   O11   A    
O18   Zn3   S    
C7    C91   A    
C81   O29   A    
C10   H10   S    
C34   C138  A    
C22   C138  A    
C71   C90   S    
C65   O9    A    
O4    Zn9   S    
C2    C42   A    
C45   H21   S    
C80   C111  S    
C86   C97   S    
O3    Zn3   S    
C82   C101  S    
O29   Zn11  S    
O2    Zn15  S    
C38   C142  A    
C18   C134  A    
O1    Zn1   S    
C84   O32   A    
O1    Zn12  S    
C115  N3    A    
O36   Zn14  S    
C126  O66   S    
C29   Cl5   S    
O7    Zn10  S    
C11   C51   A    
O31   Zn9   S    
C113  N1    A    
C87   C104  S    
C6    H6    S    
C113  C133  A    
C84   O38   A    
C75   C108  S    
O2    Zn6   S    
O4    Zn8   S    
C26   C29   A    
C21   C141  A    
C123  C143  A    
O51   Zn5   S    
C128  N8    A    
C24   C144  A    
O26   Zn15  S    
C73   O47   A    
C33   C38   A    
C72   C89   S    
C88   O36   A    
C54   H30   S    
C13   H13   S    
C83   O31   A    
C14   C94   A    
C73   O21   A    
C59   N8    S    
C117  O57   S    
C115  O55   S    
C7    C47   A    
C66   C95   S    
C114  O54   S    
C31   Cl7   S    
