data_mof_unit_37527.cif
_audit_creation_date              2012-10-26T20:05:00-0400
_audit_creation_method            fapswitch 2.2
_symmetry_space_group_name_H-M    P1
_symmetry_Int_Tables_number       1
_space_group_crystal_system       triclinic
_cell_length_a                    15.847809
_cell_length_b                    15.033073
_cell_length_c                    13.864715
_cell_angle_alpha                 88.553953
_cell_angle_beta                  91.091649
_cell_angle_gamma                 86.906638
_cell_volume                      3296.59444262

loop_
_atom_site_label
_atom_site_type_symbol
_atom_type_description
_atom_site_fract_x
_atom_site_fract_y
_atom_site_fract_z
_atom_type_partial_charge
C1    C     C_R   0.500125 0.328888 0.500855 0.550073
C2    C     C_R   0.500880 0.046584 0.501122 0.030933
C3    C     C_R   0.457285 0.907083 0.571267 0.005842
C4    C     C_R   0.544474 0.092867 0.429531 -0.009861
C5    C     C_R   0.587488 0.953161 0.355031 0.112311
C6    C     C_R   0.414318 0.046752 0.645798 0.113217
C7    C     C_R   0.587524 0.046285 0.357655 -0.092626
C8    C     C_R   0.414612 0.953631 0.643408 -0.057211
C9    C     C_R   0.532207 0.425594 0.798891 0.375570
C10   C     C_R   0.467759 0.574473 0.201201 0.376802
C11   C     C_R   0.472043 0.574343 0.790632 0.054659
C12   C     C_R   0.500076 0.671110 0.499152 0.549458
C13   C     C_R   0.527131 0.425416 0.209255 0.057353
C14   C     C_R   0.476740 0.578612 0.893003 -0.011651
C15   C     C_R   0.522058 0.421204 0.106910 -0.011124
C16   C     C_R   0.340013 0.499362 0.499310 0.561815
C17   C     C_R   0.659988 0.500629 0.500691 0.561458
C18   C     C_R   0.499078 0.500148 0.948394 -0.031037
C19   C     C_R   0.500507 0.499884 0.051570 -0.031276
C20   C     C_R   0.520798 0.421828 0.900785 -0.043094
C21   C     C_R   0.478910 0.578223 0.099221 -0.042900
C22   C     C_R   0.460903 0.658825 0.941855 0.257168
C23   C     C_R   0.499800 0.767819 0.498135 -0.004262
C24   C     C_R   0.536391 0.340755 0.058062 0.258781
C25   C     C_R   0.465023 0.657975 0.043014 -0.047916
C26   C     C_R   0.533691 0.341890 0.956864 -0.046962
C27   C     C_3   0.976320 0.435062 0.557654 0.281126
C28   C     C_3   0.023683 0.564968 0.442363 0.281397
C29   C     C_3   0.030573 0.420812 0.467637 -0.121090
C30   C     C_3   0.969428 0.579218 0.532381 -0.121421
C31   C     C_1   0.250348 0.498689 0.498038 0.052145
C32   C     C_1   0.749654 0.501317 0.501967 0.051717
C33   C     C_3   0.029998 0.511770 0.590392 -0.121593
C34   C     C_R   0.500912 0.232168 0.501993 0.000567
C35   C     C_3   0.970005 0.488260 0.409626 -0.121144
C36   C     C_3   0.083143 0.498654 0.499373 -0.016383
C37   C     C_3   0.916859 0.501375 0.500645 -0.016305
C38   C     C_1   0.174811 0.498327 0.498292 0.037520
C39   C     C_1   0.825190 0.501691 0.501719 0.037413
C40   C     C_R   0.457092 0.814563 0.569937 -0.096466
C41   C     C_R   0.544223 0.185447 0.430606 -0.109852
C42   C     C_R   0.543652 0.813130 0.427399 -0.065269
C43   C     C_R   0.457192 0.186797 0.572754 -0.064041
C44   C     C_R   0.544205 0.906259 0.426580 0.061706
C45   C     C_R   0.457247 0.093662 0.573983 0.060230
C46   C     C_R   0.500800 0.953346 0.499595 0.027408
Cu1   Cu    Cu3+1 0.500010 0.499990 0.597420 1.074358
Cu2   Cu    Cu3+1 0.499990 0.500010 0.402580 1.075209
H1    H     H_    0.056379 0.355557 0.442329 0.167720
H2    H     H_    0.422239 0.224767 0.625681 0.179389
H3    H     H_    0.620719 0.082587 0.302961 0.171147
H4    H     H_    0.381727 0.917352 0.698284 0.148253
H5    H     H_    0.448938 0.631452 0.747634 0.207957
H6    H     H_    0.550023 0.368106 0.252090 0.203750
H7    H     H_    0.318313 0.815175 0.814515 0.369725
H8    H     H_    0.479286 0.159207 0.217224 0.370115
H9    H     H_    0.006486 0.244390 0.725211 0.387142
H10   H     H_    0.993530 0.755643 0.274808 0.387271
H11   H     H_    0.585109 0.881818 0.233990 0.270834
H12   H     H_    0.943623 0.644473 0.557689 0.167662
H13   H     H_    0.665299 0.949915 0.238170 0.264717
H14   H     H_    0.416677 0.118413 0.766622 0.276079
H15   H     H_    0.336784 0.049913 0.762915 0.255112
H16   H     H_    0.679939 0.293142 0.637697 0.376760
H17   H     H_    0.320231 0.707020 0.362759 0.375286
H18   H     H_    0.457056 0.721221 0.077458 0.226547
H19   H     H_    0.541216 0.278666 0.922272 0.226636
H20   H     H_    0.944631 0.479863 0.335425 0.169781
H21   H     H_    0.055373 0.520168 0.664592 0.169792
H22   H     H_    0.423134 0.778726 0.624417 0.171150
H23   H     H_    0.578128 0.221359 0.376142 0.170235
H24   H     H_    0.578240 0.775120 0.374213 0.180104
N1    N     N_R   0.499960 0.499930 0.743810 -0.272146
N2    N     N_R   0.500040 0.500070 0.256190 -0.271080
N3    N     N_3   0.631021 0.906226 0.279965 -0.596821
N4    N     N_3   0.370777 0.093673 0.720874 -0.600438
O1    O     O_R   0.500020 0.370250 0.582280 -0.441849
O2    O     O_2   0.506078 0.780950 0.810980 -0.283607
O3    O     O_3   0.345520 0.754278 0.816315 -0.546408
O4    O     O_2   0.557405 0.161238 0.051430 -0.241500
O5    O     O_2   0.636079 0.236104 0.176628 -0.296025
O6    O     O_3   0.474495 0.223087 0.197541 -0.537480
O7    O     O_2   0.890722 0.387181 0.714117 -0.220046
O8    O     O_2   0.891943 0.285897 0.577833 -0.257094
O9    O     O_3   0.029149 0.291551 0.683473 -0.498181
O10   O     O_2   0.108064 0.714130 0.422194 -0.259678
O11   O     O_2   0.109290 0.612849 0.285908 -0.219968
O12   O     O_R   0.499980 0.629750 0.417720 -0.441242
O13   O     O_3   0.970864 0.708483 0.316544 -0.497220
O14   O     O_2   0.669218 0.314305 0.829708 -0.237689
O15   O     O_2   0.549614 0.255550 0.744509 -0.336439
O16   O     O_3   0.651972 0.351833 0.651598 -0.461221
O17   O     O_2   0.450179 0.744587 0.255376 -0.339628
O18   O     O_2   0.330364 0.685428 0.170894 -0.239178
O19   O     O_3   0.348254 0.648338 0.348940 -0.461251
O20   O     O_R   0.500010 0.370270 0.417740 -0.524855
O21   O     O_R   0.499990 0.629730 0.582260 -0.527308
O22   O     O_R   0.379080 0.499980 0.582260 -0.516760
O23   O     O_R   0.620920 0.500020 0.417740 -0.518745
O24   O     O_R   0.379070 0.500000 0.417710 -0.424333
O25   O     O_R   0.620930 0.500000 0.582290 -0.425589
O26   O     O_2   0.426845 0.836778 0.948925 -0.250103
S1    S     S_3+6 0.436509 0.761842 0.879421 -0.002620
S2    S     S_3+6 0.553894 0.236719 0.120646 -0.001377
S3    S     S_3+6 0.943377 0.347848 0.635167 0.052894
S4    S     S_3+6 0.056632 0.652182 0.364855 0.052221
S5    S     S_3+6 0.600937 0.336055 0.754591 0.064063
S6    S     S_3+6 0.398968 0.663944 0.245699 0.062785

loop_
_geom_bond_atom_site_label_1
_geom_bond_atom_site_label_2
_ccdc_geom_bond_type
Cu1   O25   S    
C6    C45   A    
C27   C29   S    
C1    O1    A    
C14   C18   A    
C10   S6    S    
H14   N4    S    
C29   H1    S    
H13   N3    S    
C16   C31   S    
C15   C19   A    
C29   C36   S    
O18   S6    D    
Cu1   O22   S    
C40   H22   S    
O4    S2    D    
C26   H19   S    
C35   C37   S    
C24   C26   A    
O14   S5    D    
O17   S6    D    
C11   C14   A    
C4    C41   A    
C27   S3    S    
C23   C40   A    
C33   C36   S    
C18   C19   A    
C32   C39   T    
C17   O25   A    
O16   S5    S    
C28   C35   S    
C28   S4    S    
C22   C25   A    
C30   H12   S    
O13   S4    S    
Cu2   O12   S    
C8    H4    S    
C2    C46   A    
C11   H5    S    
C33   H21   S    
C41   H23   S    
C2    C45   A    
O3    S1    S    
O10   S4    D    
C34   C41   A    
C42   C44   A    
C4    C7    A    
O9    S3    S    
C44   C46   A    
C1    C34   S    
C10   C21   A    
Cu2   O24   S    
C12   O12   A    
O15   S5    D    
Cu1   N1    S    
C3    C8    A    
C11   N1    A    
C5    C7    A    
C16   O24   A    
C6    C8    A    
C17   O23   A    
C27   C33   S    
C22   S1    S    
O7    S3    D    
C30   C37   S    
C24   S2    S    
C5    N3    S    
C2    C4    A    
Cu2   N2    S    
H7    O3    S    
C9    C20   A    
C23   C42   A    
Cu1   Cu2   S    
C12   C23   S    
C42   H24   S    
O8    S3    D    
C6    N4    S    
C43   C45   A    
C12   O21   A    
C15   C24   A    
C5    C44   A    
C3    C40   A    
C13   C15   A    
Cu1   O1    S    
H11   N3    S    
C13   H6    S    
Cu2   O23   S    
C21   C25   A    
Cu2   O20   S    
C30   C33   S    
C19   C21   A    
O2    S1    D    
C9    N1    A    
C25   H18   S    
C43   H2    S    
H8    O6    S    
C9    S5    S    
C29   C35   S    
C3    C46   A    
Cu1   O21   S    
C31   C38   T    
C14   C22   A    
C28   C30   S    
C7    H3    S    
C37   C39   S    
C10   N2    A    
C16   O22   A    
O11   S4    D    
C20   C26   A    
C35   H20   S    
C27   C37   S    
C1    O20   A    
C36   C38   S    
H9    O9    S    
C18   C20   A    
O26   S1    D    
H10   O13   S    
O19   S6    S    
H17   O19   S    
C13   N2    A    
C28   C36   S    
H15   N4    S    
C17   C32   S    
O6    S2    S    
H16   O16   S    
C34   C43   A    
O5    S2    D    
