data_mof_unit_32862.cif
_audit_creation_date              2012-12-11T14:59:41-0500
_audit_creation_method            fapswitch 2.2
_symmetry_space_group_name_H-M    P1
_symmetry_Int_Tables_number       1
_space_group_crystal_system       triclinic
_cell_length_a                    8.300267
_cell_length_b                    15.219246
_cell_length_c                    18.735702
_cell_angle_alpha                 99.9365
_cell_angle_beta                  91.254827
_cell_angle_gamma                 99.701653
_cell_volume                      2294.75280513

loop_
_atom_site_label
_atom_site_type_symbol
_atom_type_description
_atom_site_fract_x
_atom_site_fract_y
_atom_site_fract_z
_atom_type_partial_charge
Ba1   Ba    Ba6+2 0.854120 0.540280 0.465540 1.637631
Ba2   Ba    Ba6+2 0.335710 0.459790 0.534460 1.628739
C1    C     C_3   0.606549 0.849945 0.263579 -0.186979
C2    C     C_R   0.893727 0.420624 0.097263 -0.085408
C3    C     C_R   0.760439 0.444057 0.956901 -0.113057
C4    C     C_3   0.130971 0.709607 0.267800 0.369918
C5    C     C_R   0.926606 0.475311 0.980089 0.017968
C6    C     C_R   0.704619 0.442504 0.886159 -0.087773
C7    C     C_R   0.810941 0.473500 0.835327 -0.029046
C8    C     C_R   0.973059 0.515932 0.859242 -0.000083
C9    C     C_R   0.032098 0.515930 0.931671 0.025014
C10   C     C_R   0.761348 0.461705 0.760984 0.012032
C11   C     C_R   0.872060 0.490741 0.711653 -0.303292
C12   C     C_3   0.567056 0.750023 0.270580 0.325401
C13   C     C_R   0.027037 0.539779 0.734632 0.037173
C14   C     C_R   0.078837 0.553531 0.809438 -0.042111
C15   C     C_R   0.154903 0.504748 0.072349 0.020014
C16   C     C_3   0.144995 0.731541 0.191580 -0.417170
C17   C     C_R   0.215579 0.500230 0.143736 0.006573
C18   C     C_R   0.110247 0.460361 0.192655 -0.040718
C19   C     C_R   0.953859 0.416174 0.166075 -0.030230
C20   C     C_R   0.234196 0.600913 0.835849 -0.030194
C21   C     C_R   0.292691 0.600555 0.906125 -0.091103
C22   C     C_R   0.197154 0.554179 0.954253 0.011757
C23   C     C_3   0.589265 0.242947 0.296546 0.325418
C24   C     C_R   0.260141 0.546314 0.024179 0.017416
C25   C     C_R   0.426878 0.575927 0.046966 -0.105684
C26   C     C_R   0.381091 0.536076 0.166186 -0.037472
C27   C     C_R   0.485514 0.570786 0.116046 -0.105236
C28   C     C_3   0.247247 0.740875 0.622945 0.311970
C29   C     C_R   0.436682 0.537704 0.238521 -0.020609
C30   C     C_R   0.328984 0.501645 0.286813 -0.276808
C31   C     C_R   0.166898 0.462083 0.265464 -0.002477
C32   C     C_R   0.758990 0.234055 0.513997 -0.253540
C33   C     C_R   0.853316 0.177072 0.537924 0.015865
C34   C     C_3   0.608141 0.143231 0.276167 -0.351470
C35   C     C_R   0.797903 0.083419 0.523009 -0.145056
C36   C     C_R   0.634942 0.046129 0.496473 0.010070
C37   C     C_R   0.541641 0.106625 0.472333 -0.132108
C38   C     C_R   0.608568 0.198406 0.477178 0.018875
C39   C     C_R   0.420934 0.906203 0.448626 -0.148140
C40   C     C_3   0.298359 0.842975 0.645192 -0.423454
C41   C     C_R   0.352756 0.815056 0.444160 0.001238
C42   C     C_R   0.584625 0.792343 0.514779 0.077650
C43   C     C_R   0.636683 0.888115 0.532606 -0.007062
C44   C     C_R   0.566314 0.945637 0.491748 0.008177
C45   C     C_3   0.987228 0.253204 0.724803 0.369146
C46   C     C_R   0.442540 0.757411 0.470870 -0.280476
C47   C     C_3   0.101396 0.248746 0.291461 0.340650
C48   C     C_3   0.094405 0.235715 0.208150 -0.446845
C49   C     C_3   0.736883 0.669825 0.684289 0.312363
C50   C     C_3   0.751156 0.700596 0.766289 -0.399557
C51   C     C_3   0.081659 0.153714 0.312133 -0.171633
C52   C     C_3   0.015597 0.149290 0.386693 -0.307891
C53   C     C_3   0.754410 0.903208 0.312474 -0.157548
C54   C     C_3   0.906187 0.917289 0.268778 -0.341531
C55   C     C_3   0.553254 0.287728 0.230513 -0.169335
C56   C     C_3   0.114173 0.332911 0.761716 -0.304548
C57   C     C_3   0.582935 0.237606 0.155163 -0.475080
C58   C     C_3   0.918333 0.201754 0.784834 -0.182396
C59   C     C_3   0.816079 0.109837 0.755399 -0.390408
C60   C     C_3   0.727999 0.927586 0.605606 -0.226545
C61   C     C_3   0.910226 0.920985 0.608193 -0.375297
C62   C     C_3   0.482189 0.233124 0.692250 0.335536
C63   C     C_3   0.415654 0.143684 0.715959 -0.383570
C64   C     C_R   0.989262 0.467944 0.049983 0.009888
H1    H     H_    0.522745 0.746121 0.325661 -0.022567
H2    H     H_    0.641742 0.607918 0.670860 0.070842
H3    H     H_    0.783653 0.646897 0.793859 0.062512
H4    H     H_    0.468629 0.718369 0.228820 -0.023468
H5    H     H_    0.497257 0.880811 0.279293 0.048727
H6    H     H_    0.701567 0.282184 0.325747 0.091925
H7    H     H_    0.496970 0.102409 0.245204 0.108645
H8    H     H_    0.717244 0.136533 0.243921 0.095435
H9    H     H_    0.623323 0.114680 0.325862 0.069786
H10   H     H_    0.623763 0.855217 0.205632 0.093656
H11   H     H_    0.193730 0.677976 0.155489 0.090481
H12   H     H_    0.407395 0.858322 0.683381 0.120007
H13   H     H_    0.884998 0.278636 0.700076 -0.032386
H14   H     H_    0.153695 0.379409 0.723923 0.157730
H15   H     H_    0.063239 0.369738 0.809150 0.045508
H16   H     H_    0.219956 0.308245 0.782889 0.153853
H17   H     H_    0.604055 0.229841 0.669715 -0.039901
H18   H     H_    0.418269 0.086387 0.670605 0.078952
H19   H     H_    0.288185 0.142387 0.732562 0.154845
H20   H     H_    0.022164 0.656882 0.268137 0.121799
H21   H     H_    0.489395 0.135131 0.763478 0.115493
H22   H     H_    0.576988 0.415292 0.871951 0.121365
H23   H     H_    0.325978 0.874901 0.597037 0.067587
H24   H     H_    0.876571 0.376061 0.197868 0.093740
H25   H     H_    0.314949 0.637172 0.802206 0.101602
H26   H     H_    0.614434 0.595043 0.129602 0.102620
H27   H     H_    0.372636 0.503931 0.342064 0.080547
H28   H     H_    0.669094 0.419942 0.992246 0.072157
H29   H     H_    0.772016 0.384049 0.082080 0.058761
H30   H     H_    0.414280 0.637921 0.921206 0.058157
H31   H     H_    0.239844 0.681959 0.282435 -0.083334
H32   H     H_    0.516987 0.602422 0.012069 0.072339
H33   H     H_    0.354844 0.944926 0.419280 0.067590
H34   H     H_    0.199078 0.872708 0.673486 0.120826
H35   H     H_    0.883917 0.041117 0.532311 0.094268
H36   H     H_    0.418828 0.084964 0.448795 0.073650
H37   H     H_    0.394171 0.685565 0.462394 0.064524
H38   H     H_    0.806439 0.305940 0.521322 0.073961
H39   H     H_    0.022985 0.735721 0.168384 0.118676
H40   H     H_    0.229370 0.796741 0.192695 0.115863
H41   H     H_    0.146787 0.726549 0.580356 0.067333
H42   H     H_    0.056293 0.213828 0.424467 0.168935
H43   H     H_    0.880226 0.136930 0.382375 0.083925
H44   H     H_    0.056124 0.092931 0.408755 0.103210
H45   H     H_    0.220741 0.288146 0.312899 0.075225
H46   H     H_    0.995255 0.104963 0.272357 0.079374
H47   H     H_    0.200892 0.129729 0.309209 0.101367
H48   H     H_    0.928804 0.851430 0.239733 0.188054
H49   H     H_    0.887290 0.959292 0.227493 0.087224
H50   H     H_    0.014228 0.950868 0.305311 0.132046
H51   H     H_    0.728018 0.970842 0.336872 0.087886
H52   H     H_    0.778932 0.868155 0.357915 0.158205
H53   H     H_    0.847488 0.761810 0.780968 0.120092
H54   H     H_    0.632529 0.716972 0.785940 0.119253
H55   H     H_    0.711954 0.228656 0.151057 0.123514
H56   H     H_    0.966494 0.214978 0.185936 0.116654
H57   H     H_    0.501209 0.170677 0.142366 0.136341
H58   H     H_    0.553958 0.277571 0.113822 0.125699
H59   H     H_    0.424108 0.296972 0.228892 0.098086
H60   H     H_    0.623516 0.357598 0.238816 0.102925
H61   H     H_    0.734829 0.115327 0.709549 0.116548
H62   H     H_    0.897335 0.060633 0.737656 0.145062
H63   H     H_    0.741291 0.085150 0.798676 0.109674
H64   H     H_    0.019297 0.191325 0.820834 0.096772
H65   H     H_    0.840578 0.243364 0.818805 0.086238
H66   H     H_    0.396226 0.242665 0.649464 0.124230
H67   H     H_    0.164783 0.182437 0.184982 0.096441
H68   H     H_    0.833323 0.479472 0.654783 0.070859
H69   H     H_    0.931104 0.864583 0.635365 0.151711
H70   H     H_    0.957546 0.911453 0.553523 0.170278
H71   H     H_    0.983966 0.984024 0.639125 0.109598
H72   H     H_    0.712451 0.998268 0.622652 0.098778
H73   H     H_    0.668049 0.894807 0.648647 0.124628
H74   H     H_    0.353133 0.711279 0.601660 0.010588
H75   H     H_    0.151763 0.297288 0.189017 0.078167
H76   H     H_    0.856332 0.655508 0.665180 0.011656
O1    O     O_2   0.871030 0.438240 0.324420 -0.466663
O2    O     O_2   0.188782 0.183699 0.547309 -0.498289
O3    O     O_3   0.063261 0.196659 0.673153 -0.608848
O4    O     O_3   0.120590 0.445310 0.413740 -0.465893
O5    O     O_3   0.582100 0.611510 0.537680 -0.485477
O6    O     O_2   0.334040 0.276520 0.462890 -0.438304
O7    O     O_3   0.456522 0.247266 0.340585 -0.665947
O8    O     O_2   0.430595 0.466730 0.757950 -0.498506
O9    O     O_3   0.494181 0.303558 0.752319 -0.628323
O10   O     O_3   0.663040 0.605930 0.370050 -0.456011
O11   O     O_2   0.776951 0.543301 0.244272 -0.505579
O12   O     O_3   0.693709 0.740198 0.653402 -0.647153
O13   O     O_3   0.977429 0.293968 0.321627 -0.642768
O14   O     O_3   0.702125 0.705709 0.257793 -0.592913
O15   O     O_2   0.855660 0.723510 0.537160 -0.471987
O16   O     O_3   0.086340 0.654970 0.406630 -0.481366
O17   O     O_2   0.014999 0.817497 0.447384 -0.491919
O18   O     O_3   0.115044 0.788290 0.316609 -0.607154
O19   O     O_2   0.318670 0.561790 0.675630 -0.463930
O20   O     O_3   0.069120 0.554770 0.586270 -0.494102
O21   O     O_3   0.526680 0.394150 0.629950 -0.485218
O22   O     O_3   0.194964 0.706187 0.684398 -0.640206
O23   O     O_3   0.607620 0.388570 0.462320 -0.460495
O24   O     O_3   0.103380 0.345110 0.593380 -0.483235
P1    P     P_3+3 0.038110 0.412300 0.335300 0.976157
P2    P     P_3+3 0.679950 0.711710 0.558590 0.979580
P3    P     P_3+3 0.143238 0.769957 0.405158 0.945961
P4    P     P_3+3 0.151600 0.587780 0.664700 0.969265
P5    P     P_3+3 0.051520 0.226627 0.586712 0.925729
P6    P     P_3+3 0.643699 0.595703 0.276114 0.949487
P7    P     P_3+3 0.509419 0.275050 0.433384 0.943077
P8    P     P_3+3 0.553675 0.407846 0.724373 0.910142

loop_
_geom_bond_atom_site_label_1
_geom_bond_atom_site_label_2
_ccdc_geom_bond_type
C57   H55   S    
C2    C64   A    
O4    P1    S    
O3    P5    S    
C49   O12   S    
C28   H41   S    
C25   C27   A    
C33   P5    S    
C11   H68   S    
C9    C22   A    
O22   P4    S    
C17   C18   A    
C48   H56   S    
C28   O22   S    
C53   C54   S    
Ba2   O20   S    
C45   O3    S    
C3    H28   S    
C41   P3    S    
C25   H32   S    
C43   C44   A    
C5    C9    A    
C10   C11   A    
O2    P5    D    
C52   H44   S    
C15   C64   A    
C60   C61   S    
C39   C44   A    
C32   C38   A    
C15   C24   A    
C26   C27   A    
C33   C35   A    
C22   C24   A    
C32   C33   A    
C56   H16   S    
C55   H59   S    
C36   C37   A    
O10   P6    S    
C55   C57   S    
C29   P6    S    
Ba1   P1    S    
C12   H1    S    
O23   P7    S    
C13   C14   A    
C43   C60   S    
C21   H30   S    
O15   P2    D    
Ba1   O10   S    
C23   O7    S    
Ba1   Ba2   S    
C42   P2    S    
C50   H3    S    
C45   C58   S    
C1    C53   S    
C62   H66   S    
O13   P1    S    
C6    C7    A    
C20   H25   S    
C39   H33   S    
C45   H13   S    
C60   H73   S    
C7    C8    A    
Ba2   O24   S    
C48   H75   S    
C59   H63   S    
C47   H45   S    
C30   H27   S    
C61   H71   S    
O24   P5    S    
O9    P8    S    
C12   H4    S    
O12   P2    S    
Ba1   O4    S    
C31   P1    S    
C23   C55   S    
Ba2   O19   S    
C51   H47   S    
C63   H21   S    
C19   H24   S    
C57   H57   S    
C4    C16   S    
C28   H74   S    
C62   O9    S    
C49   C50   S    
C4    H31   S    
C8    C9    A    
C56   H15   S    
C58   H64   S    
C37   C38   A    
C3    C5    A    
C63   H18   S    
C23   C34   S    
Ba1   P2    S    
C53   H51   S    
Ba2   O5    S    
C51   C52   S    
C46   H37   S    
O14   P6    S    
C32   H38   S    
C13   P4    S    
C58   C59   S    
C6    H22   S    
C61   H69   S    
C1    H5    S    
C16   H40   S    
C62   H17   S    
C35   C36   A    
Ba1   O1    S    
C34   H9    S    
C40   H34   S    
C2    H29   S    
C29   C30   A    
O20   P4    S    
Ba1   O23   S    
O18   P3    S    
C54   H50   S    
C59   H61   S    
C23   H6    S    
C60   H72   S    
C17   C26   A    
Ba2   O23   S    
O1    P1    D    
C1    C12   S    
C34   H8    S    
Ba2   P4    S    
C18   C31   A    
C50   H54   S    
C51   H46   S    
O8    P8    D    
Ba1   O20   S    
C40   H12   S    
C11   C13   A    
C24   C25   A    
Ba1   O5    S    
O19   P4    D    
C55   H60   S    
C42   C43   A    
C37   H36   S    
C10   P8    S    
C41   C46   A    
C49   H76   S    
C57   H58   S    
Ba1   O16   S    
C14   C20   A    
O17   P3    D    
C12   O14   S    
C47   O13   S    
C26   C29   A    
C39   C41   A    
C48   H67   S    
Ba2   O21   S    
C3    C6    A    
C4    O18   S    
O16   P3    S    
C63   H19   S    
C56   H14   S    
Ba2   O4    S    
O6    P7    D    
C4    H20   S    
C52   H42   S    
C40   H23   S    
C62   C63   S    
Ba1   O15   S    
C16   H39   S    
C8    C14   A    
C30   C31   A    
C45   C56   S    
C35   H35   S    
C2    C19   A    
C38   P7    S    
C16   H11   S    
C47   C51   S    
O11   P6    D    
C15   C17   A    
C54   H49   S    
C59   H62   S    
O7    P7    S    
C49   H2    S    
C7    C10   A    
C36   C44   S    
O5    P2    S    
C21   C22   A    
C50   H53   S    
C54   H48   S    
C18   C19   A    
C52   H43   S    
C47   C48   S    
C1    H10   S    
C20   C21   A    
C28   C40   S    
C61   H70   S    
O21   P8    S    
Ba2   O6    S    
C34   H7    S    
C27   H26   S    
C58   H65   S    
C42   C46   A    
C5    C64   A    
C53   H52   S    
