data_mof_unit_12333.cif
_audit_creation_date              2012-12-11T16:12:59-0500
_audit_creation_method            fapswitch 2.2
_symmetry_space_group_name_H-M    P1
_symmetry_Int_Tables_number       1
_space_group_crystal_system       triclinic
_cell_length_a                    23.471167
_cell_length_b                    13.582821
_cell_length_c                    28.434209
_cell_angle_alpha                 89.943511
_cell_angle_beta                  90.367799
_cell_angle_gamma                 90.020813
_cell_volume                      9064.76657886

loop_
_atom_site_label
_atom_site_type_symbol
_atom_type_description
_atom_site_fract_x
_atom_site_fract_y
_atom_site_fract_z
_atom_type_partial_charge
C1    C     C_R   0.284676 0.005379 0.816084 0.540604
C2    C     C_3   0.510476 0.734356 0.971394 -0.238559
C3    C     C_R   0.206963 0.029118 0.525791 -0.097194
C4    C     C_R   0.295449 0.535450 0.523281 0.281962
C5    C     C_R   0.702969 0.537934 0.476727 0.281709
C6    C     C_R   0.795449 0.035450 0.523281 0.281961
C7    C     C_R   0.202969 0.037935 0.476727 0.281710
C8    C     C_R   0.258901 0.601100 0.546431 0.044364
C9    C     C_R   0.742229 0.598025 0.453081 0.046214
C10   C     C_R   0.758901 0.101100 0.546431 0.044361
C11   C     C_R   0.242229 0.098025 0.453081 0.046215
C12   C     C_R   0.253848 0.586078 0.448777 -0.010220
C13   C     C_3   0.020455 0.235501 0.025233 -0.237739
C14   C     C_R   0.747540 0.584024 0.550736 -0.007013
C15   C     C_R   0.753849 0.086079 0.448777 -0.010221
C16   C     C_R   0.247540 0.084025 0.550736 -0.007012
C17   C     C_1   0.244597 0.567512 0.399961 -0.061277
C18   C     C_1   0.756159 0.566113 0.599667 -0.056415
C19   C     C_1   0.744598 0.067513 0.399961 -0.061277
C20   C     C_1   0.256159 0.066114 0.599667 -0.056415
C21   C     C_1   0.262435 0.614469 0.596161 -0.012946
C22   C     C_1   0.738202 0.612326 0.403439 -0.011969
C23   C     C_1   0.762435 0.114469 0.596161 -0.012951
C24   C     C_3   0.010477 0.234356 0.971394 -0.238558
C25   C     C_1   0.238202 0.112326 0.403439 -0.011968
C26   C     C_1   0.233309 0.544648 0.360315 -0.014742
C27   C     C_1   0.767032 0.543995 0.639482 -0.010523
C28   C     C_1   0.733309 0.044648 0.360315 -0.014742
C29   C     C_1   0.267032 0.043995 0.639482 -0.010523
C30   C     C_R   0.284428 0.007395 0.684091 0.545695
C31   C     C_R   0.715585 0.007367 0.315910 0.546272
C32   C     C_R   0.784428 0.507395 0.684091 0.545695
C33   C     C_R   0.215585 0.507367 0.315910 0.546272
C34   C     C_R   0.445911 0.825270 0.684436 0.542319
C35   C     C_1   0.517497 0.837395 0.096665 -0.021533
C36   C     C_R   0.554005 0.825151 0.315493 0.541750
C37   C     C_R   0.945911 0.325271 0.684436 0.542318
C38   C     C_R   0.054005 0.325151 0.315493 0.541750
C39   C     C_R   0.274375 0.674390 0.682828 0.542993
C40   C     C_R   0.725658 0.674194 0.317110 0.543928
C41   C     C_R   0.774375 0.174390 0.682828 0.542994
C42   C     C_R   0.225658 0.174194 0.317110 0.543928
C43   C     C_3   0.439528 0.871544 0.977340 -0.241914
C44   C     C_3   0.553931 0.909388 0.022870 -0.247633
C45   C     C_3   0.939528 0.371542 0.977340 -0.241913
C46   C     C_1   0.486319 0.836424 0.902359 -0.012288
C47   C     C_3   0.053931 0.409389 0.022870 -0.247634
C48   C     C_3   0.544367 0.912509 0.967854 0.172598
C49   C     C_3   0.448850 0.879468 0.031542 0.175118
C50   C     C_3   0.044366 0.412510 0.967854 0.172598
C51   C     C_3   0.948849 0.379466 0.031542 0.175118
C52   C     C_1   0.530183 0.832252 0.137485 -0.011782
C53   C     C_1   0.471896 0.831782 0.861860 -0.005448
C54   C     C_1   0.030183 0.332252 0.137485 -0.011782
C55   C     C_1   0.971896 0.331782 0.861860 -0.005448
C56   C     C_3   0.568650 0.041598 0.445560 0.002789
C57   C     C_1   0.017497 0.337395 0.096665 -0.021533
C58   C     C_3   0.573547 0.121650 0.408351 -0.356629
C59   C     C_3   0.447501 0.057903 0.551994 0.003963
C60   C     C_3   0.449339 0.147795 0.583820 -0.362801
C61   C     C_3   0.068650 0.541597 0.445560 0.002789
C62   C     C_3   0.073548 0.621649 0.408351 -0.356629
C63   C     C_3   0.947501 0.557904 0.551994 0.003963
C64   C     C_3   0.949340 0.647797 0.583820 -0.362802
C65   C     C_3   0.387932 0.515980 0.544957 -0.014194
C66   C     C_3   0.428946 0.453692 0.573959 -0.366435
C67   C     C_3   0.608862 0.524172 0.458288 -0.014283
C68   C     C_1   0.986319 0.336423 0.902359 -0.012288
C69   C     C_3   0.566008 0.469433 0.427654 -0.363882
C70   C     C_3   0.887931 0.015985 0.544961 -0.014192
C71   C     C_3   0.928946 0.953688 0.573958 -0.366435
C72   C     C_3   0.108861 0.024171 0.458290 -0.014284
C73   C     C_3   0.066007 0.969435 0.427654 -0.363881
C74   C     C_3   0.640472 0.854762 0.956696 0.002118
C75   C     C_3   0.680004 0.825899 0.916876 -0.338071
C76   C     C_3   0.382529 0.750826 0.051123 0.008426
C77   C     C_3   0.382044 0.692423 0.096818 -0.365547
C78   C     C_3   0.140472 0.354766 0.956696 0.002118
C79   C     C_1   0.264606 0.628979 0.859660 -0.011942
C80   C     C_3   0.180004 0.325904 0.916876 -0.338069
C81   C     C_3   0.882530 0.250823 0.051123 0.008427
C82   C     C_3   0.882045 0.192421 0.096818 -0.365547
C83   C     C_3   0.311334 0.361561 0.049682 -0.010391
C84   C     C_3   0.352359 0.308701 0.082718 -0.355212
C85   C     C_3   0.610108 0.509944 0.956516 -0.022354
C86   C     C_3   0.570465 0.489548 0.915120 -0.367588
C87   C     C_3   0.811334 0.861562 0.049683 -0.010391
C88   C     C_3   0.852358 0.808702 0.082719 -0.355212
C89   C     C_3   0.110113 0.009939 0.956510 -0.022353
C90   C     C_1   0.733937 0.631780 0.139480 -0.017272
C91   C     C_3   0.070470 0.989554 0.915113 -0.367586
C92   C     C_1   0.764606 0.128978 0.859660 -0.011942
C93   C     C_R   0.715138 0.005033 0.183715 0.540752
C94   C     C_1   0.233937 0.131781 0.139480 -0.017272
C95   C     C_R   0.290854 0.523651 0.972684 -0.108806
C96   C     C_R   0.693862 0.588935 0.021506 -0.118497
C97   C     C_R   0.790854 0.023651 0.972684 -0.108806
C98   C     C_R   0.193862 0.088940 0.021506 -0.118494
C99   C     C_R   0.287183 0.512558 0.021592 0.257212
C100  C     C_R   0.698099 0.577135 0.972397 0.270174
C101  C     C_R   0.787183 0.012558 0.021592 0.257212
C102  C     C_R   0.198099 0.077140 0.972397 0.270169
C103  C     C_R   0.203131 0.617214 0.021730 -0.168066
C104  C     C_R   0.784676 0.505378 0.816084 0.540604
C105  C     C_R   0.800969 0.562434 0.981109 -0.165733
C106  C     C_R   0.703130 0.117214 0.021730 -0.168065
C107  C     C_R   0.300969 0.062432 0.981109 -0.165732
C108  C     C_R   0.206368 0.626403 0.972982 -0.116989
C109  C     C_R   0.796184 0.570176 0.029763 -0.122988
C110  C     C_R   0.706368 0.126402 0.972982 -0.116988
C111  C     C_R   0.296183 0.070174 0.029763 -0.122989
C112  C     C_R   0.250431 0.580384 0.948447 -0.011789
C113  C     C_R   0.742773 0.584750 0.049989 -0.007812
C114  C     C_R   0.750431 0.080383 0.948447 -0.011789
C115  C     C_R   0.215138 0.505033 0.183715 0.540753
C116  C     C_R   0.242773 0.084751 0.049988 -0.007814
C117  C     C_R   0.244007 0.562144 0.046268 0.025004
C118  C     C_R   0.752360 0.567341 0.952381 0.044878
C119  C     C_R   0.744007 0.062144 0.046268 0.025004
C120  C     C_R   0.252360 0.067343 0.952381 0.044875
C121  C     C_R   0.446321 0.824175 0.816453 0.542706
C122  C     C_R   0.553929 0.824263 0.183437 0.541197
C123  C     C_R   0.946321 0.324175 0.816453 0.542706
C124  C     C_R   0.053929 0.324263 0.183437 0.541197
C125  C     C_1   0.238461 0.550609 0.096245 -0.040629
C126  C     C_3   0.496005 0.838918 0.953314 0.044061
C127  C     C_1   0.759076 0.554315 0.902631 -0.016178
C128  C     C_1   0.738461 0.050609 0.096245 -0.040629
C129  C     C_1   0.259076 0.054316 0.902631 -0.016182
C130  C     C_1   0.257670 0.601894 0.899477 -0.059175
C131  C     C_1   0.738636 0.605991 0.099251 -0.063729
C132  C     C_1   0.757670 0.101893 0.899477 -0.059173
C133  C     C_1   0.238636 0.105992 0.099251 -0.063729
C134  C     C_1   0.230357 0.534692 0.137260 -0.016613
C135  C     C_1   0.768411 0.536871 0.861970 -0.009170
C136  C     C_1   0.730357 0.034692 0.137260 -0.016613
C137  C     C_3   0.509109 0.839686 0.045669 0.045878
C138  C     C_1   0.268411 0.036872 0.861970 -0.009172
C139  C     C_1   0.470753 0.833495 0.638962 -0.008130
C140  C     C_1   0.528860 0.833000 0.360833 -0.010409
C141  C     C_1   0.970753 0.333495 0.638962 -0.008131
C142  C     C_1   0.028860 0.333000 0.360833 -0.010409
C143  C     C_R   0.494150 0.750999 0.524024 -0.185023
C144  C     C_R   0.498431 0.751056 0.475224 -0.185260
C145  C     C_R   0.994148 0.250999 0.524023 -0.185024
C146  C     C_R   0.998429 0.251056 0.475223 -0.185259
C147  C     C_R   0.506316 0.929727 0.475469 0.286017
C148  C     C_3   0.996005 0.338917 0.953314 0.044060
C149  C     C_R   0.500078 0.929900 0.524697 0.287835
C150  C     C_R   0.006316 0.429727 0.475469 0.286016
C151  C     C_R   0.000077 0.429900 0.524697 0.287835
C152  C     C_R   0.495362 0.839800 0.548873 0.004870
C153  C     C_R   0.504014 0.839908 0.450832 0.003759
C154  C     C_R   0.995361 0.339800 0.548872 0.004870
C155  C     C_R   0.004013 0.339908 0.450832 0.003760
C156  C     C_1   0.514441 0.837090 0.401219 -0.023082
C157  C     C_1   0.484959 0.837708 0.598510 -0.020516
C158  C     C_1   0.014440 0.337090 0.401219 -0.023082
C159  C     C_3   0.009109 0.339686 0.045669 0.045877
C160  C     C_1   0.984958 0.337708 0.598509 -0.020517
C161  C     C_1   0.266609 0.635350 0.636935 -0.000756
C162  C     C_1   0.733675 0.634162 0.362795 -0.001253
C163  C     C_1   0.766609 0.135350 0.636935 -0.000758
C164  C     C_1   0.233675 0.134162 0.362795 -0.001253
C165  C     C_R   0.222024 0.661838 0.520656 -0.156171
C166  C     C_R   0.782309 0.653436 0.478299 -0.157211
C167  C     C_R   0.722025 0.161839 0.520656 -0.156170
C168  C     C_R   0.282309 0.153436 0.478299 -0.157211
C169  C     C_R   0.274359 0.673444 0.814884 0.545820
C170  C     C_3   0.520455 0.735501 0.025233 -0.237741
C171  C     C_R   0.725440 0.673946 0.184903 0.544922
C172  C     C_R   0.774359 0.173444 0.814884 0.545821
C173  C     C_R   0.225440 0.173946 0.184903 0.544922
C174  C     C_R   0.219733 0.654761 0.471882 -0.128690
C175  C     C_R   0.784821 0.646719 0.527067 -0.123488
C176  C     C_R   0.719733 0.154762 0.471882 -0.128690
C177  C     C_R   0.284821 0.146719 0.527067 -0.123488
C178  C     C_R   0.291522 0.526291 0.474282 -0.094817
C179  C     C_R   0.706963 0.529117 0.525791 -0.097193
C180  C     C_R   0.791522 0.026291 0.474282 -0.094815
Cr1   Cr    Cr6+3 0.250680 0.837130 0.748990 1.033064
Cr2   Cr    Cr6+3 0.623910 0.707720 0.250330 1.029074
Cr3   Cr    Cr6+3 0.876090 0.207720 0.749670 1.028240
Cr4   Cr    Cr6+3 0.123910 0.207720 0.250330 1.029074
Cr5   Cr    Cr6+3 0.749320 0.837130 0.251010 1.026524
Cr6   Cr    Cr6+3 0.750680 0.337130 0.748990 1.033066
Cr7   Cr    Cr6+3 0.249320 0.337130 0.251010 1.026524
Cr8   Cr    Cr6+3 0.378160 0.960100 0.750430 1.030327
Cr9   Cr    Cr6+3 0.621840 0.960100 0.249570 1.026042
Cr10  Cr    Cr6+3 0.878160 0.460100 0.750430 1.030327
Cr11  Cr    Cr6+3 0.121840 0.460100 0.249570 1.026042
Cr12  Cr    Cr6+3 0.376090 0.707720 0.749670 1.028241
H1    H     H_    0.450484 0.960059 0.038666 0.124028
H2    H     H_    0.498004 0.681614 0.456505 0.118346
H3    H     H_    0.164650 0.404613 0.980547 0.135864
H4    H     H_    0.193413 0.392444 0.897086 0.160071
H5    H     H_    0.218509 0.289083 0.931444 0.102603
H6    H     H_    0.157849 0.274446 0.892543 0.188082
H7    H     H_    0.906420 0.208963 0.024439 0.122506
H8    H     H_    0.838020 0.256861 0.037914 0.154355
H9    H     H_    0.854543 0.229653 0.122992 0.162020
H10   H     H_    0.865242 0.117367 0.090406 0.160535
H11   H     H_    0.925915 0.186292 0.111327 0.152969
H12   H     H_    0.312190 0.324581 0.014751 0.130168
H13   H     H_    0.989333 0.181585 0.542403 0.116018
H14   H     H_    0.267689 0.355300 0.064705 0.132236
H15   H     H_    0.352672 0.345398 0.117616 0.173669
H16   H     H_    0.338930 0.231174 0.087463 0.106766
H17   H     H_    0.396062 0.310014 0.067989 0.148109
H18   H     H_    0.584117 0.537730 0.986227 0.120441
H19   H     H_    0.630493 0.438778 0.966795 0.131843
H20   H     H_    0.595175 0.459512 0.885201 0.167584
H21   H     H_    0.537626 0.434955 0.925503 0.096954
H22   H     H_    0.548910 0.558370 0.903721 0.155772
H23   H     H_    0.812190 0.824580 0.014752 0.130168
H24   H     H_    0.998002 0.181614 0.456505 0.118346
H25   H     H_    0.767689 0.855301 0.064705 0.132236
H26   H     H_    0.852672 0.845400 0.117617 0.173669
H27   H     H_    0.838929 0.731175 0.087465 0.106767
H28   H     H_    0.896062 0.810014 0.067990 0.148108
H29   H     H_    0.084122 0.037707 0.986224 0.120444
H30   H     H_    0.130504 0.938773 0.966781 0.131844
H31   H     H_    0.095182 0.959544 0.885189 0.167589
H32   H     H_    0.037639 0.934943 0.925490 0.096955
H33   H     H_    0.048906 0.058375 0.903724 0.155762
H34   H     H_    0.195059 0.714794 0.538310 0.127013
H35   H     H_    0.811527 0.702106 0.460223 0.124876
H36   H     H_    0.695060 0.214795 0.538310 0.127013
H37   H     H_    0.311527 0.202105 0.460223 0.124876
H38   H     H_    0.190455 0.701213 0.452401 0.136024
H39   H     H_    0.816576 0.688725 0.546180 0.132467
H40   H     H_    0.690456 0.201214 0.452401 0.136024
H41   H     H_    0.527015 0.987279 0.960491 0.125686
H42   H     H_    0.316577 0.188724 0.546180 0.132466
H43   H     H_    0.317126 0.471691 0.456388 0.115373
H44   H     H_    0.679235 0.478407 0.544182 0.111788
H45   H     H_    0.817126 0.971691 0.456387 0.115376
H46   H     H_    0.179235 0.978408 0.544182 0.111786
H47   H     H_    0.426333 0.944710 0.963379 0.074424
H48   H     H_    0.549196 0.985185 0.037214 0.079684
H49   H     H_    0.926332 0.444707 0.963380 0.074425
H50   H     H_    0.049195 0.485186 0.037215 0.079684
H51   H     H_    0.596994 0.885962 0.034338 0.109304
H52   H     H_    0.950483 0.460057 0.038666 0.124029
H53   H     H_    0.404359 0.820562 0.967755 0.126799
H54   H     H_    0.096994 0.385964 0.034338 0.109304
H55   H     H_    0.904360 0.320559 0.967755 0.126799
H56   H     H_    0.475125 0.682678 0.962786 0.104322
H57   H     H_    0.565344 0.713961 0.032695 0.103283
H58   H     H_    0.975126 0.182677 0.962786 0.104321
H59   H     H_    0.065345 0.213962 0.032695 0.103286
H60   H     H_    0.548765 0.705746 0.953292 0.164967
H61   H     H_    0.494414 0.678293 0.042755 0.123674
H62   H     H_    0.048766 0.205747 0.953293 0.164972
H63   H     H_    0.027013 0.487279 0.960491 0.125686
H64   H     H_    0.994415 0.178293 0.042755 0.123674
H65   H     H_    0.325753 0.489710 0.953927 0.119272
H66   H     H_    0.652858 0.603063 0.037367 0.093659
H67   H     H_    0.825753 0.989710 0.953927 0.119273
H68   H     H_    0.152858 0.103070 0.037366 0.093664
H69   H     H_    0.168934 0.653566 0.040338 0.118020
H70   H     H_    0.842703 0.552683 0.965780 0.110842
H71   H     H_    0.668933 0.153565 0.040338 0.118020
H72   H     H_    0.342703 0.052679 0.965781 0.110844
H73   H     H_    0.594403 0.977403 0.433594 0.124876
H74   H     H_    0.175311 0.671380 0.954539 0.129284
H75   H     H_    0.586740 0.069570 0.479267 0.167168
H76   H     H_    0.552049 0.189791 0.420484 0.148909
H77   H     H_    0.618994 0.138036 0.401416 0.108491
H78   H     H_    0.553346 0.096553 0.375019 0.177653
H79   H     H_    0.416581 0.004402 0.567161 0.128048
H80   H     H_    0.432293 0.081311 0.516530 0.165990
H81   H     H_    0.478826 0.203766 0.569154 0.153613
H82   H     H_    0.406206 0.180460 0.586725 0.097560
H83   H     H_    0.464320 0.126285 0.619511 0.172421
H84   H     H_    0.094403 0.477402 0.433594 0.124876
H85   H     H_    0.834269 0.567126 0.051445 0.135028
H86   H     H_    0.086740 0.569570 0.479266 0.167168
H87   H     H_    0.052049 0.689791 0.420484 0.148909
H88   H     H_    0.118994 0.638034 0.401416 0.108491
H89   H     H_    0.053346 0.596552 0.375019 0.177653
H90   H     H_    0.916581 0.504404 0.567161 0.128048
H91   H     H_    0.932294 0.581312 0.516530 0.165990
H92   H     H_    0.978827 0.703767 0.569154 0.153613
H93   H     H_    0.906207 0.680462 0.586724 0.097561
H94   H     H_    0.964320 0.626286 0.619511 0.172420
H95   H     H_    0.389417 0.592812 0.558700 0.136082
H96   H     H_    0.675311 0.171379 0.954539 0.129286
H97   H     H_    0.402694 0.515331 0.507791 0.119051
H98   H     H_    0.428907 0.376793 0.560740 0.150645
H99   H     H_    0.472733 0.484099 0.571218 0.089370
H100  H     H_    0.415985 0.453923 0.611459 0.169685
H101  H     H_    0.608056 0.603428 0.447994 0.136656
H102  H     H_    0.595317 0.516739 0.495584 0.120295
H103  H     H_    0.565567 0.390104 0.437179 0.153489
H104  H     H_    0.522730 0.500323 0.432974 0.087058
H105  H     H_    0.577553 0.477192 0.390009 0.169845
H106  H     H_    0.889413 0.092811 0.558711 0.136085
H107  H     H_    0.334268 0.067121 0.051445 0.135030
H108  H     H_    0.902694 0.015354 0.507795 0.119049
H109  H     H_    0.928910 0.876795 0.560731 0.150642
H110  H     H_    0.972733 0.984101 0.571221 0.089371
H111  H     H_    0.915984 0.953901 0.611457 0.169685
H112  H     H_    0.108054 0.103429 0.447998 0.136655
H113  H     H_    0.095316 0.016732 0.495586 0.120295
H114  H     H_    0.065567 0.890105 0.437175 0.153491
H115  H     H_    0.022729 0.000323 0.432975 0.087059
H116  H     H_    0.077551 0.977202 0.390009 0.169845
H117  H     H_    0.628439 0.786491 0.975579 0.145331
H118  H     H_    0.489335 0.681585 0.542403 0.116019
H119  H     H_    0.664650 0.904609 0.980547 0.135864
H120  H     H_    0.693413 0.892438 0.897086 0.160071
H121  H     H_    0.718509 0.789078 0.931445 0.102602
H122  H     H_    0.657849 0.774441 0.892543 0.188080
H123  H     H_    0.406419 0.708965 0.024439 0.122507
H124  H     H_    0.338019 0.756866 0.037913 0.154354
H125  H     H_    0.354542 0.729656 0.122991 0.162019
H126  H     H_    0.365240 0.617371 0.090405 0.160534
H127  H     H_    0.425914 0.686294 0.111327 0.152969
H128  H     H_    0.128439 0.286494 0.975579 0.145334
O1    O     O_R   0.237900 0.735050 0.799950 -0.504509
O2    O     O_R   0.566580 0.739640 0.301090 -0.509526
O3    O     O_R   0.933420 0.239640 0.698910 -0.509941
O4    O     O_R   0.066580 0.239640 0.301090 -0.509526
O5    O     O_R   0.323550 0.666510 0.701520 -0.494530
O6    O     O_R   0.676450 0.666510 0.298480 -0.493028
O7    O     O_R   0.823550 0.166510 0.701520 -0.494531
O8    O     O_R   0.176450 0.166510 0.298480 -0.493028
O9    O     O_3   0.334980 0.834990 0.749700 -0.251721
O10   O     O_3   0.665020 0.834990 0.250300 -0.250626
O11   O     O_3   0.834980 0.334990 0.749700 -0.251721
O12   O     O_R   0.762100 0.735050 0.200050 -0.511857
O13   O     O_3   0.165020 0.334990 0.250300 -0.250626
O14   O     O_R   0.256160 0.936210 0.796950 -0.492517
O15   O     O_R   0.743840 0.936210 0.203050 -0.496095
O16   O     O_R   0.756160 0.436210 0.796950 -0.492515
O17   O     O_R   0.243840 0.436210 0.203050 -0.496095
O18   O     O_R   0.333710 0.029860 0.801630 -0.510104
O19   O     O_R   0.666290 0.029860 0.198370 -0.507713
O20   O     O_R   0.833710 0.529860 0.801630 -0.510104
O21   O     O_R   0.166290 0.529860 0.198370 -0.507713
O22   O     O_R   0.425340 0.901920 0.798280 -0.493682
O23   O     O_R   0.737900 0.235050 0.799950 -0.504508
O24   O     O_R   0.574660 0.901920 0.201720 -0.494473
O25   O     O_R   0.925340 0.401920 0.798280 -0.493682
O26   O     O_R   0.074660 0.401920 0.201720 -0.494473
O27   O     O_R   0.433530 0.738890 0.801610 -0.510064
O28   O     O_R   0.566470 0.738890 0.198390 -0.510672
O29   O     O_R   0.933530 0.238890 0.801610 -0.510064
O30   O     O_R   0.066470 0.238890 0.198390 -0.510672
O31   O     O_R   0.323650 0.665810 0.796720 -0.496449
O32   O     O_R   0.676350 0.665810 0.203280 -0.493938
O33   O     O_R   0.823650 0.165810 0.796720 -0.496450
O34   O     O_R   0.262100 0.235050 0.200050 -0.511856
O35   O     O_R   0.176350 0.165810 0.203280 -0.493938
O36   O     O_R   0.237790 0.735800 0.697250 -0.508160
O37   O     O_R   0.762210 0.735800 0.302750 -0.508231
O38   O     O_R   0.737790 0.235800 0.697250 -0.508159
O39   O     O_R   0.262210 0.235800 0.302750 -0.508231
O40   O     O_R   0.256050 0.936910 0.701750 -0.495368
O41   O     O_R   0.743950 0.936910 0.298250 -0.493875
O42   O     O_R   0.756050 0.436910 0.701750 -0.495368
O43   O     O_R   0.243950 0.436910 0.298250 -0.493875
O44   O     O_R   0.333600 0.030610 0.698930 -0.510035
O45   O     O_R   0.425240 0.902610 0.703070 -0.493415
O46   O     O_R   0.666400 0.030610 0.301070 -0.512879
O47   O     O_R   0.833600 0.530610 0.698930 -0.510035
O48   O     O_R   0.166400 0.530610 0.301070 -0.512879
O49   O     O_3   0.510535 0.017711 0.451248 -0.556303
O50   O     O_3   0.502767 0.017415 0.549386 -0.551462
O51   O     O_3   0.010535 0.517711 0.451248 -0.556304
O52   O     O_3   0.002767 0.517415 0.549386 -0.551461
O53   O     O_3   0.332477 0.476480 0.548711 -0.558002
O54   O     O_3   0.663518 0.483264 0.451536 -0.559441
O55   O     O_3   0.832477 0.976479 0.548710 -0.558003
O56   O     O_R   0.574760 0.902610 0.296930 -0.495511
O57   O     O_3   0.163518 0.983265 0.451536 -0.559440
O58   O     O_3   0.592854 0.905034 0.937797 -0.552444
O59   O     O_3   0.403099 0.846821 0.060389 -0.559297
O60   O     O_3   0.092854 0.405036 0.937798 -0.552444
O61   O     O_3   0.903099 0.346818 0.060389 -0.559296
O62   O     O_3   0.328796 0.460562 0.045499 -0.579577
O63   O     O_3   0.650644 0.581527 0.943128 -0.577927
O64   O     O_3   0.828796 0.960562 0.045499 -0.579578
O65   O     O_3   0.150644 0.081536 0.943128 -0.577932
O66   O     O_R   0.925240 0.402610 0.703070 -0.493414
O67   O     O_R   0.074760 0.402610 0.296930 -0.495511
O68   O     O_R   0.433420 0.739640 0.698910 -0.509941

loop_
_geom_bond_atom_site_label_1
_geom_bond_atom_site_label_2
_ccdc_geom_bond_type
C125  C134  T    
C44   C137  S    
C104  C135  S    
Cr9   O10   S    
C45   C148  S    
C61   H86   S    
C51   H52   S    
C93   C136  S    
Cr1   O14   S    
C123  O25   A    
C102  C120  A    
C33   O48   A    
C60   H83   S    
C83   H14   S    
C95   C99   A    
C4    O53   S    
C115  O17   A    
C25   C164  T    
C143  C144  A    
C176  H40   S    
C44   H48   S    
C6    O55   S    
C56   H75   S    
C5    C179  A    
C50   H63   S    
C81   O61   S    
C52   C122  S    
Cr3   O7    S    
C5    O54   S    
C119  C128  S    
C57   C159  S    
C59   C60   S    
C155  C158  S    
C103  C117  A    
C142  C158  T    
C59   O50   S    
C37   O3    A    
Cr5   O12   S    
C145  C146  A    
C39   O5    A    
C36   O56   A    
C55   C123  S    
Cr1   O40   S    
C175  H39   S    
C74   C75   S    
C82   H10   S    
C65   O53   S    
C84   H17   S    
C72   C73   S    
C116  C133  S    
C98   C102  A    
C79   C130  T    
Cr10  O47   S    
C170  H57   S    
Cr4   O8    S    
C40   C162  S    
C14   C175  A    
C72   O57   S    
Cr1   O1    S    
C33   O43   A    
C102  O65   S    
C16   C20   S    
Cr3   O11   S    
C103  H69   S    
C153  C156  S    
C108  H74   S    
C43   H47   S    
C140  C156  T    
C90   C131  T    
C105  C118  A    
C49   O59   S    
C143  H118  S    
C107  C120  A    
C12   C174  A    
C152  C157  S    
C71   H111  S    
C83   H12   S    
C56   O49   S    
C115  C134  S    
C78   O60   S    
C58   H78   S    
C88   H27   S    
C65   H95   S    
C72   H112  S    
C171  O32   A    
C34   O68   A    
C35   C137  S    
C167  H36   S    
C76   H123  S    
C92   C172  S    
C77   H126  S    
C46   C53   T    
C147  C153  A    
C104  O20   A    
C51   O61   S    
C139  C157  T    
Cr10  O20   S    
C67   C69   S    
C91   H32   S    
C44   C48   S    
C12   C178  A    
Cr2   O2    S    
C49   C137  S    
C150  O51   S    
C71   H110  S    
C70   O55   S    
C81   H8    S    
C145  H13   S    
C47   C159  S    
C85   C86   S    
C60   H82   S    
C63   O52   S    
C9    C166  A    
C92   C132  T    
C38   O4    A    
C89   H29   S    
C78   C80   S    
C85   O63   S    
C144  H2    S    
C11   C25   S    
C172  O23   A    
C64   H92   S    
C74   H119  S    
Cr12  O27   S    
C30   O44   A    
C76   O59   S    
C166  H35   S    
C90   C171  S    
C89   C91   S    
C110  C114  A    
C48   H41   S    
C68   C148  S    
C85   H19   S    
C47   C50   S    
C173  O34   A    
C13   H59   S    
C120  C129  S    
Cr10  O25   S    
Cr8   O9    S    
C34   O45   A    
C165  C174  A    
Cr12  O9    S    
C86   H22   S    
C5    C9    A    
C29   C30   S    
C99   C117  A    
C100  O63   S    
C174  H38   S    
C84   H16   S    
C26   C33   S    
C83   C84   S    
Cr8   O44   S    
C69   H104  S    
C19   C28   T    
C121  O27   A    
C137  C170  S    
C75   H121  S    
C145  C154  A    
C66   H99   S    
C150  C155  A    
Cr1   O36   S    
C48   O58   S    
C36   O2    A    
C118  C127  S    
C73   H115  S    
C35   C52   T    
C101  O64   S    
C37   O66   A    
Cr9   O19   S    
C50   C148  S    
C105  C109  A    
C87   H23   S    
C170  H61   S    
C6    C180  A    
Cr4   O4    S    
C107  C111  A    
Cr7   O43   S    
C4    C178  A    
C179  H44   S    
C61   O51   S    
C47   H50   S    
C109  H85   S    
C177  H42   S    
Cr10  O66   S    
C111  C116  A    
Cr3   O33   S    
C24   H58   S    
C74   H117  S    
C32   O42   A    
Cr12  O5    S    
C43   H53   S    
C96   C100  A    
C67   H102  S    
C61   H84   S    
C88   H26   S    
C59   H80   S    
C61   C62   S    
C8    C165  A    
C94   C173  S    
C48   C126  S    
C63   C64   S    
C93   O15   A    
Cr12  O68   S    
C96   H66   S    
C62   H87   S    
C150  C151  A    
C112  C130  S    
C1    O18   A    
C117  C125  S    
C13   C159  S    
C3    C16   A    
C63   H90   S    
C54   C57   T    
C64   H93   S    
C87   C88   S    
C106  C119  A    
Cr5   O37   S    
Cr7   O39   S    
C121  O22   A    
C42   O8    A    
C55   C68   T    
C16   C177  A    
C15   C19   S    
C166  C175  A    
C37   C141  S    
C15   C176  A    
C147  C149  A    
C127  C135  T    
C3    C7    A    
C95   C112  A    
C104  O16   A    
C106  C110  A    
C82   H11   S    
C22   C162  T    
C64   H94   S    
C168  C177  A    
C94   C133  T    
Cr7   O34   S    
C2    H56   S    
Cr4   O35   S    
Cr12  O31   S    
C168  H37   S    
C146  C155  A    
C105  H70   S    
C12   C17   S    
C62   H89   S    
C70   C71   S    
C38   O67   A    
C69   H105  S    
Cr4   O30   S    
C39   O36   A    
C122  O28   A    
Cr8   O45   S    
C80   H4    S    
C124  O30   A    
C67   O54   S    
Cr4   O13   S    
C30   O40   A    
Cr11  O48   S    
C151  O52   S    
C13   H64   S    
Cr8   O18   S    
C88   H28   S    
C93   O19   A    
C6    C10   A    
Cr6   O38   S    
C2    H60   S    
Cr2   O32   S    
C76   H124  S    
Cr6   O16   S    
C80   H6    S    
C42   O39   A    
C72   H113  S    
C2    C170  S    
C143  C152  A    
C128  C136  T    
C111  H107  S    
C41   C163  S    
C11   C168  A    
C96   C113  A    
C100  C118  A    
C91   H31   S    
C89   O65   S    
C65   H97   S    
C54   C124  S    
C74   O58   S    
C27   C32   S    
C28   C31   S    
C71   H109  S    
C122  O24   A    
C81   H7    S    
C82   H9    S    
C86   H20   S    
Cr9   O24   S    
C172  O33   A    
C79   C169  S    
C53   C121  S    
C123  O29   A    
C106  H71   S    
C124  O26   A    
C108  C112  A    
C50   O60   S    
C115  O21   A    
Cr11  O13   S    
C58   H76   S    
C171  O12   A    
C107  H72   S    
C70   H108  S    
C47   H54   S    
Cr1   O9    S    
Cr7   O17   S    
C149  O50   S    
Cr3   O3    S    
Cr11  O67   S    
C14   C18   S    
C4    C8    A    
C85   H18   S    
C45   H55   S    
C81   C82   S    
C63   H91   S    
C7    C11   A    
C58   H77   S    
C169  O31   A    
C17   C26   T    
Cr11  O26   S    
C178  H43   S    
C9    C22   S    
C45   C51   S    
C83   O62   S    
C77   H127  S    
C34   C139  S    
C78   H128  S    
C151  C154  A    
C144  C153  A    
C87   O64   S    
C129  C138  T    
C56   C58   S    
C10   C167  A    
Cr5   O41   S    
C69   H103  S    
C103  C108  A    
C39   C161  S    
Cr5   O15   S    
C14   C179  A    
C109  C113  A    
Cr3   O29   S    
Cr6   O23   S    
Cr7   O13   S    
C77   H125  S    
C15   C180  A    
C91   H33   S    
C38   C142  S    
C62   H88   S    
C73   H114  S    
C43   C126  S    
C31   O46   A    
C23   C163  T    
C20   C29   T    
C21   C161  T    
C60   H81   S    
C147  O49   S    
C101  C119  A    
C76   C77   S    
C24   C148  S    
C149  C152  A    
C80   H5    S    
C89   H30   S    
C43   C49   S    
C3    H46   S    
Cr2   O10   S    
C13   C24   S    
Cr9   O56   S    
C24   H62   S    
C154  C160  S    
C32   O47   A    
C141  C160  T    
C98   C116  A    
C67   H101  S    
C8    C21   S    
C70   H106  S    
C42   C164  S    
C59   H79   S    
Cr11  O21   S    
C56   H73   S    
C36   C140  S    
C40   O6    A    
C75   H120  S    
C2    C126  S    
Cr6   O11   S    
Cr9   O46   S    
C45   H49   S    
C41   O38   A    
C97   H67   S    
C173  O35   A    
C98   H68   S    
C95   H65   S    
Cr8   O22   S    
C169  O1    A    
C113  C131  S    
C40   O37   A    
C114  C132  S    
C46   C126  S    
C18   C27   T    
Cr6   O42   S    
Cr5   O10   S    
Cr2   O28   S    
C10   C23   S    
Cr2   O6    S    
C41   O7    A    
C97   C114  A    
C86   H21   S    
C1    O14   A    
C31   O41   A    
C84   H15   S    
C49   H1    S    
C180  H45   S    
C7    O57   S    
C51   C159  S    
C165  H34   S    
C99   O62   S    
C78   H3    S    
C87   H25   S    
C97   C101  A    
Cr10  O11   S    
C75   H122  S    
C66   H100  S    
C110  H96   S    
C66   H98   S    
C65   C66   S    
C73   H116  S    
C146  H24   S    
C1    C138  S    
C44   H51   S    
C167  C176  A    
