data_mof_unit_63912.cif
_audit_creation_date              2012-12-10T21:23:21-0500
_audit_creation_method            fapswitch 2.2
_symmetry_space_group_name_H-M    P1
_symmetry_Int_Tables_number       1
_space_group_crystal_system       triclinic
_cell_length_a                    24.916582
_cell_length_b                    24.85276
_cell_length_c                    16.725505
_cell_angle_alpha                 89.999773
_cell_angle_beta                  89.999774
_cell_angle_gamma                 89.994806
_cell_volume                      10357.1992244

loop_
_atom_site_label
_atom_site_type_symbol
_atom_type_description
_atom_site_fract_x
_atom_site_fract_y
_atom_site_fract_z
_atom_type_partial_charge
C1    C     C_R   0.073362 0.426695 0.500003 0.983640
C2    C     C_R   0.926637 0.573305 0.500003 0.983640
C3    C     C_R   0.926667 0.426669 0.499999 0.983688
C4    C     C_R   0.073332 0.573332 0.499999 0.983688
C5    C     C_R   0.573228 0.926608 0.500006 0.985359
C6    C     C_R   0.426772 0.073392 0.500006 0.985361
C7    C     C_R   0.426764 0.926620 0.499997 0.985317
C8    C     C_R   0.573236 0.073381 0.499997 0.985315
C9    C     C_R   0.999420 0.452439 0.748051 0.059820
C10   C     C_R   0.999359 0.547560 0.251948 0.059875
C11   C     C_R   0.000580 0.547561 0.748051 0.059821
C12   C     C_R   0.000641 0.452440 0.251949 0.059876
C13   C     C_R   0.500037 0.952438 0.748054 0.068010
C14   C     C_R   0.500037 0.047566 0.251950 0.043577
C15   C     C_R   0.499963 0.047562 0.748053 0.068011
C16   C     C_R   0.499963 0.952433 0.251950 0.043578
C17   C     C_R   1.000000 0.500000 0.875563 0.152559
C18   C     C_R   1.000000 0.500000 0.124436 0.152421
C19   C     C_R   0.500000 0.000000 0.875568 0.151715
C20   C     C_R   0.500000 0.000000 0.124440 0.155254
C21   C     C_1   1.000000 0.500000 0.963413 -0.034174
C22   C     C_1   1.000000 0.500000 0.036587 -0.034148
C23   C     C_1   0.500000 0.000000 0.963417 -0.034833
C24   C     C_1   0.500000 0.000000 0.036591 -0.035952
C25   C     C_R   0.195000 0.652560 0.558064 -0.278354
C26   C     C_R   0.845603 0.306190 0.441264 -0.274385
C27   C     C_R   0.804995 0.347447 0.558064 -0.278354
C28   C     C_R   0.154390 0.693816 0.441264 -0.274384
C29   C     C_R   0.804122 0.651439 0.442488 -0.277894
C30   C     C_R   0.155465 0.307032 0.559229 -0.274191
C31   C     C_R   0.195872 0.348553 0.442484 -0.277893
C32   C     C_R   0.844528 0.692962 0.559232 -0.274190
C33   C     C_R   0.694426 0.153491 0.557009 -0.283154
C34   C     C_R   0.348483 0.804054 0.442979 -0.279733
C35   C     C_R   0.305569 0.846516 0.557008 -0.283156
C36   C     C_R   0.651510 0.195951 0.442979 -0.279733
C37   C     C_R   0.349504 0.196823 0.443895 -0.279544
C38   C     C_R   0.693567 0.845499 0.557894 -0.282844
C39   C     C_R   0.650488 0.803172 0.443899 -0.279544
C40   C     C_R   0.306427 0.154493 0.557891 -0.282845
C41   C     C_R   0.155276 0.612963 0.558882 0.374076
C42   C     C_R   0.885889 0.345216 0.440856 0.378710
C43   C     C_R   0.844722 0.387040 0.558883 0.374076
C44   C     C_R   0.114106 0.654786 0.440856 0.378710
C45   C     C_R   0.844293 0.612288 0.441348 0.374571
C46   C     C_R   0.114749 0.345613 0.559319 0.379308
C47   C     C_R   0.155705 0.387708 0.441346 0.374570
C48   C     C_R   0.885246 0.654384 0.559320 0.379308
C49   C     C_R   0.655364 0.113237 0.557607 0.370498
C50   C     C_R   0.388114 0.843747 0.442411 0.374433
C51   C     C_R   0.344633 0.886767 0.557608 0.370499
C52   C     C_R   0.611882 0.156255 0.442410 0.374433
C53   C     C_R   0.388673 0.156662 0.442791 0.374847
C54   C     C_R   0.654977 0.886210 0.557956 0.370969
C55   C     C_R   0.611322 0.843336 0.442792 0.374847
C56   C     C_R   0.345020 0.113785 0.557955 0.370969
C57   C     C_R   0.114801 0.614328 0.499969 -0.126721
C58   C     C_R   0.885197 0.385674 0.499970 -0.126720
C59   C     C_R   0.884874 0.614008 0.500087 -0.126902
C60   C     C_R   0.115123 0.385990 0.500086 -0.126902
C61   C     C_R   0.614117 0.114879 0.499981 -0.140664
C62   C     C_R   0.385881 0.885123 0.499982 -0.140664
C63   C     C_R   0.386138 0.115143 0.500109 -0.140995
C64   C     C_R   0.613860 0.884855 0.500110 -0.140996
C65   C     C_R   0.194142 0.692285 0.499558 0.059557
C66   C     C_R   0.805851 0.307722 0.499557 0.059558
C67   C     C_R   0.804655 0.691069 0.501143 0.061537
C68   C     C_R   0.195337 0.308923 0.501138 0.061537
C69   C     C_R   0.692102 0.194138 0.499969 0.062700
C70   C     C_R   0.307891 0.805870 0.499968 0.062701
C71   C     C_R   0.309076 0.195316 0.501166 0.064586
C72   C     C_R   0.690916 0.804675 0.501171 0.064585
C73   C     C_1   0.234315 0.732077 0.499596 -0.007786
C74   C     C_1   0.765676 0.267932 0.499596 -0.007785
C75   C     C_1   0.764229 0.730610 0.501224 -0.007429
C76   C     C_1   0.235761 0.269380 0.501220 -0.007429
C77   C     C_1   0.731946 0.234260 0.499733 -0.007808
C78   C     C_1   0.268045 0.765749 0.499733 -0.007808
C79   C     C_1   0.269490 0.235701 0.501220 -0.007466
C80   C     C_1   0.730500 0.764289 0.501224 -0.007466
C81   C     C_R   0.999413 0.451568 0.832319 -0.267041
C82   C     C_R   0.999351 0.548431 0.167681 -0.267065
C83   C     C_R   0.000587 0.548432 0.832318 -0.267041
C84   C     C_R   0.000649 0.451569 0.167681 -0.267065
C85   C     C_R   0.500038 0.951566 0.832323 -0.264954
C86   C     C_R   0.500038 0.048437 0.167684 -0.270409
C87   C     C_R   0.499962 0.048434 0.832323 -0.264954
C88   C     C_R   0.499962 0.951563 0.167684 -0.270410
H1    H     H_    0.226626 0.652339 0.602608 0.146778
H2    H     H_    0.845346 0.274537 0.396634 0.146174
H3    H     H_    0.773368 0.347669 0.602608 0.146778
H4    H     H_    0.154645 0.725469 0.396635 0.146174
H5    H     H_    0.772428 0.650967 0.398056 0.144668
H6    H     H_    0.155946 0.275422 0.603923 0.143773
H7    H     H_    0.227566 0.349024 0.398051 0.144668
H8    H     H_    0.844044 0.724572 0.603927 0.143772
H9    H     H_    0.726710 0.153030 0.600488 0.146907
H10   H     H_    0.349334 0.771736 0.399433 0.146134
H11   H     H_    0.273284 0.846978 0.600487 0.146907
H12   H     H_    0.650658 0.228269 0.399433 0.146134
H13   H     H_    0.350569 0.229242 0.400525 0.143943
H14   H     H_    0.725765 0.845756 0.601522 0.144720
H15   H     H_    0.649422 0.770752 0.400530 0.143943
H16   H     H_    0.274228 0.154235 0.601518 0.144720
H17   H     H_    0.998949 0.413338 0.863396 0.145849
H18   H     H_    0.998838 0.586661 0.136604 0.145986
H19   H     H_    0.001051 0.586662 0.863395 0.145849
H20   H     H_    0.001162 0.413339 0.136605 0.145986
H21   H     H_    0.500068 0.913334 0.863402 0.143297
H22   H     H_    0.500067 0.086671 0.136609 0.147350
H23   H     H_    0.499932 0.086666 0.863401 0.143297
H24   H     H_    0.499933 0.913329 0.136610 0.147350
H25   H     H_    0.998955 0.414934 0.715233 0.161297
H26   H     H_    0.998846 0.585064 0.284766 0.161595
H27   H     H_    0.001045 0.585065 0.715232 0.161295
H28   H     H_    0.001154 0.414936 0.284767 0.161594
H29   H     H_    0.500066 0.914931 0.715232 0.126333
H30   H     H_    0.500066 0.085075 0.284762 0.190732
H31   H     H_    0.499934 0.085069 0.715231 0.126333
H32   H     H_    0.499934 0.914925 0.284763 0.190733
N1    N     N_R   0.000000 0.500000 0.707230 -0.097571
N2    N     N_R   0.000000 0.500000 0.292770 -0.097580
N3    N     N_R   0.500000 0.000000 0.707230 -0.088266
N4    N     N_R   0.500000 0.000000 0.292770 -0.106666
O1    O     O_R   0.055440 0.444550 0.566570 -0.589937
O2    O     O_R   0.944560 0.555450 0.433430 -0.593787
O3    O     O_R   0.944560 0.555450 0.566570 -0.589938
O4    O     O_R   0.055440 0.444550 0.433430 -0.593789
O5    O     O_R   0.944560 0.444550 0.433430 -0.589671
O6    O     O_R   0.055440 0.555450 0.566570 -0.593988
O7    O     O_R   0.055440 0.555450 0.433430 -0.589671
O8    O     O_R   0.944560 0.444550 0.566570 -0.593986
O9    O     O_R   0.555440 0.944550 0.566570 -0.594158
O10   O     O_R   0.444560 0.055450 0.433430 -0.594615
O11   O     O_R   0.444560 0.055450 0.566570 -0.594158
O12   O     O_R   0.555440 0.944550 0.433430 -0.594615
O13   O     O_R   0.444560 0.944550 0.433430 -0.594665
O14   O     O_R   0.555440 0.055450 0.566570 -0.594132
O15   O     O_R   0.555440 0.055450 0.433430 -0.594665
O16   O     O_R   0.444560 0.944550 0.566570 -0.594132
Zn1   Zn    Zn3+2 0.000000 0.500000 0.588860 1.033535
Zn2   Zn    Zn3+2 1.000000 0.500000 0.411140 1.033835
Zn3   Zn    Zn3+2 0.500000 0.000000 0.588860 1.033894
Zn4   Zn    Zn3+2 0.500000 0.000000 0.411140 1.022506
O17   O     O_3   0.155878 0.572147 0.615051 -0.747289
H33   H     H_    0.186927 0.577304 0.651356 0.334795
O18   O     O_3   0.926711 0.343943 0.384891 -0.768320
H34   H     H_    0.921006 0.313052 0.348327 0.331720
O19   O     O_3   0.844122 0.427856 0.615053 -0.747288
H35   H     H_    0.813072 0.422701 0.651357 0.334794
O20   O     O_3   0.073285 0.656057 0.384890 -0.768320
H36   H     H_    0.078988 0.686950 0.348326 0.331720
O21   O     O_3   0.844022 0.571548 0.385052 -0.747397
H37   H     H_    0.812836 0.576413 0.348917 0.334436
O22   O     O_3   0.073830 0.343986 0.615106 -0.768508
H38   H     H_    0.079799 0.313216 0.651804 0.331366
O23   O     O_3   0.155978 0.428448 0.385051 -0.747398
H39   H     H_    0.187163 0.423581 0.348914 0.334437
O24   O     O_3   0.926166 0.656013 0.615106 -0.768508
H40   H     H_    0.920195 0.686783 0.651804 0.331366
O25   O     O_3   0.657337 0.071526 0.612236 -0.722007
H41   H     H_    0.688828 0.076546 0.647728 0.335864
O26   O     O_3   0.429772 0.842297 0.387837 -0.743360
H42   H     H_    0.425206 0.810656 0.352351 0.332535
O27   O     O_3   0.342663 0.928478 0.612236 -0.722004
H43   H     H_    0.311171 0.923459 0.647728 0.335864
O28   O     O_3   0.570224 0.157703 0.387836 -0.743359
H44   H     H_    0.574789 0.189345 0.352350 0.332535
O29   O     O_3   0.430195 0.157802 0.387973 -0.743267
H45   H     H_    0.425892 0.189609 0.352739 0.332457
O30   O     O_3   0.657271 0.928068 0.612309 -0.722217
H46   H     H_    0.688605 0.922796 0.648032 0.335600
O31   O     O_3   0.569801 0.842198 0.387974 -0.743266
H47   H     H_    0.574102 0.810390 0.352741 0.332457
O32   O     O_3   0.342728 0.071927 0.612309 -0.722214
H48   H     H_    0.311394 0.077197 0.648031 0.335599

loop_
_geom_bond_atom_site_label_1
_geom_bond_atom_site_label_2
_ccdc_geom_bond_type
C5    O12   A    
C37   H13   S    
O30   H46   S    
O27   H43   S    
C40   C71   A    
C70   C78   S    
O29   H45   S    
C69   C77   S    
O26   H42   S    
C1    O4    A    
C42   C58   A    
C71   C79   S    
O17   H33   S    
C10   C82   A    
O31   H47   S    
C5    O9    A    
C46   O22   S    
O23   H39   S    
C15   N3    A    
C8    O15   A    
C86   H22   S    
C1    O1    A    
C85   H21   S    
O14   Zn3   S    
C16   H32   S    
C52   O28   S    
C7    O16   A    
C13   N3    A    
C87   H23   S    
C33   C49   A    
C66   C74   S    
C65   C73   S    
C12   C84   A    
C8    O14   A    
O3    Zn1   S    
O2    Zn2   S    
O6    Zn1   S    
C55   O31   S    
C43   C58   A    
C18   C82   A    
C47   C60   A    
C29   C67   A    
C39   C55   A    
O18   H34   S    
C35   C70   A    
O1    Zn1   S    
C40   C56   A    
C74   C77   T    
C20   C86   A    
C4    C57   S    
C9    N1    A    
O20   H36   S    
C76   C79   T    
C27   H3    S    
C84   H20   S    
C11   H27   S    
C75   C80   T    
C34   C70   A    
C49   O25   S    
C10   H26   S    
C33   C69   A    
C8    C61   S    
C38   H14   S    
C37   C53   A    
C2    O3    A    
O11   Zn3   S    
C83   H19   S    
C31   C47   A    
C21   C22   T    
C32   C48   A    
C11   N1    A    
C51   C62   A    
C35   H11   S    
C42   O18   S    
O25   H41   S    
C4    O7    A    
C81   H17   S    
C31   C68   A    
C48   O24   S    
C38   C72   A    
O9    Zn3   S    
C44   O20   S    
C49   C61   A    
C56   O32   S    
C3    O8    A    
C26   C66   A    
C20   C24   S    
C14   N4    A    
C14   C86   A    
C12   N2    A    
C28   H4    S    
C16   C88   A    
C1    C60   S    
C25   C41   A    
O28   H44   S    
C7    O13   A    
C2    C59   S    
C4    O6    A    
O5    Zn2   S    
C11   C83   A    
C19   C85   A    
C28   C44   A    
C17   C21   S    
C72   C80   S    
C5    C64   S    
C29   C45   A    
C17   C83   A    
C6    C63   S    
C19   C23   S    
C7    C62   S    
C6    O11   A    
N1    Zn1   S    
C40   H16   S    
O15   Zn4   S    
C18   C84   A    
O24   H40   S    
C38   C54   A    
C44   C57   A    
C73   C78   T    
C55   C64   A    
C56   C63   A    
C25   C65   A    
C36   H12   S    
O16   Zn3   S    
O7    Zn2   S    
C39   C72   A    
C32   C67   A    
C2    O2    A    
C32   H8    S    
O13   Zn4   S    
C14   H30   S    
C37   C71   A    
C35   C51   A    
C50   C62   A    
C51   O27   S    
C67   C75   S    
N2    Zn2   S    
N3    Zn3   S    
C36   C69   A    
C26   C42   A    
C48   C59   A    
C15   C87   A    
C47   O23   S    
O8    Zn1   S    
C45   C59   A    
C46   C60   A    
C50   O26   S    
C3    O5    A    
C54   O30   S    
C30   C46   A    
C45   O21   S    
C10   N2    A    
C36   C52   A    
C34   C50   A    
C13   H29   S    
C39   H15   S    
C53   O29   S    
C68   C76   S    
C25   H1    S    
C52   C61   A    
C9    H25   S    
C18   C22   S    
C28   C65   A    
C16   N4    A    
C19   C87   A    
C41   C57   A    
O12   Zn4   S    
O32   H48   S    
O19   H35   S    
C29   H5    S    
C53   C63   A    
C54   C64   A    
C31   H7    S    
C20   C88   A    
C34   H10   S    
C15   H31   S    
C43   O19   S    
C17   C81   A    
C82   H18   S    
C23   C24   T    
O10   Zn4   S    
C88   H24   S    
C3    C58   S    
C27   C43   A    
C6    O10   A    
C41   O17   S    
C30   H6    S    
C13   C85   A    
O22   H38   S    
C27   C66   A    
N4    Zn4   S    
C26   H2    S    
C33   H9    S    
O21   H37   S    
O4    Zn2   S    
C30   C68   A    
C9    C81   A    
C12   H28   S    
