data_mof_unit_7189.cif
_audit_creation_date              2012-12-10T16:50:17-0500
_audit_creation_method            fapswitch 2.2
_symmetry_space_group_name_H-M    P1
_symmetry_Int_Tables_number       1
_space_group_crystal_system       triclinic
_cell_length_a                    23.472017
_cell_length_b                    8.760728
_cell_length_c                    7.62897
_cell_angle_alpha                 103.221745
_cell_angle_beta                  95.740365
_cell_angle_gamma                 95.062899
_cell_volume                      1509.4840116

loop_
_atom_site_label
_atom_site_type_symbol
_atom_type_description
_atom_site_fract_x
_atom_site_fract_y
_atom_site_fract_z
_atom_type_partial_charge
C1    C     C_R   0.496382 0.200740 0.454817 0.851093
C2    C     C_R   0.502338 0.799439 0.545772 0.815647
C3    C     C_R   0.249587 0.622331 0.643708 -0.122328
C4    C     C_R   0.767675 0.552862 0.663935 -0.108555
C5    C     C_R   0.308824 0.619292 0.640904 -0.221710
C6    C     C_R   0.708382 0.553835 0.663881 -0.240829
C7    C     C_R   0.329712 0.516112 0.498767 -0.019686
C8    C     C_R   0.671227 0.500692 0.500699 -0.019817
C9    C     C_R   0.290920 0.424052 0.354121 -0.260821
C10   C     C_R   0.694318 0.446664 0.337747 -0.235031
C11   C     C_R   0.232227 0.435202 0.351180 -0.097168
C12   C     C_R   0.753622 0.446692 0.337927 -0.116863
C13   C     C_R   0.210735 0.529063 0.498855 0.351165
C14   C     C_R   0.790492 0.499873 0.500884 0.372489
C15   C     C_2   0.483290 0.034047 0.440578 -0.097359
C16   C     C_2   0.512288 0.967471 0.564204 -0.112623
C17   C     C_R   0.391612 0.504472 0.500069 0.763673
C18   C     C_R   0.608703 0.500883 0.500364 0.775182
C19   C     C_R   0.885047 0.644356 0.546678 0.512579
C20   C     C_R   0.116094 0.383918 0.470446 0.518814
C21   C     C_R   0.874810 0.363014 0.453408 0.513567
C22   C     C_R   0.125160 0.664889 0.534680 0.505945
C23   C     C_R   0.934851 0.362197 0.443056 -0.050173
C24   C     C_R   0.065526 0.665320 0.550814 -0.030275
C25   C     C_R   0.970029 0.509945 0.498245 -0.035442
C26   C     C_R   0.030486 0.517639 0.501331 -0.040630
C27   C     C_R   0.944826 0.650749 0.550546 -0.026174
C28   C     C_R   0.056004 0.376980 0.457495 -0.034433
C29   C     C_R   0.961066 0.221281 0.381268 0.069322
C30   C     C_R   0.039434 0.805641 0.613681 0.062540
C31   C     C_R   0.021556 0.231696 0.398848 -0.198046
C32   C     C_R   0.979474 0.795541 0.609175 -0.213684
Cu1   Cu    Cu3+1 0.506340 0.517380 0.684380 0.908689
Cu2   Cu    Cu3+1 0.493660 0.482620 0.315620 0.900848
N1    N     N_R   0.851616 0.502408 0.500148 -0.459995
N2    N     N_R   0.149371 0.526127 0.502774 -0.457531
N3    N     N_2   0.484110 0.456420 0.038520 -0.115204
N4    N     N_2   0.515890 0.543580 0.961480 -0.099841
O1    O     O_R   0.504120 0.286130 0.619770 -0.607784
O2    O     O_R   0.495880 0.713870 0.380230 -0.609826
O3    O     O_R   0.493410 0.256770 0.308360 -0.592644
O4    O     O_R   0.506590 0.743230 0.691640 -0.600304
O5    O     O_R   0.423230 0.514630 0.655730 -0.583120
O6    O     O_R   0.576770 0.485370 0.344270 -0.618997
O7    O     O_R   0.412530 0.485280 0.344320 -0.609195
O8    O     O_R   0.587470 0.514720 0.655680 -0.594680
O9    O     O_2   0.860245 0.779259 0.588765 -0.554633
O10   O     O_2   0.141158 0.249078 0.450711 -0.570592
O11   O     O_2   0.839687 0.226988 0.423333 -0.557189
O12   O     O_2   0.158633 0.800306 0.544454 -0.552497
C33   C     C_3   0.925182 0.062781 0.291828 -0.319598
C34   C     C_3   0.957275 0.933203 0.184492 -0.424551
C35   C     C_3   0.915640 0.788968 0.083217 -0.790954
H1    H     H_    0.892351 0.738213 0.180306 0.261200
H2    H     H_    0.883906 0.821716 0.984066 0.272388
H3    H     H_    0.940094 0.697721 0.008167 0.241157
H4    H     H_    0.980175 0.979971 0.083742 0.227325
H5    H     H_    0.988977 0.893877 0.277929 0.231135
H6    H     H_    0.905086 0.016415 0.397870 0.255909
H7    H     H_    0.890797 0.084611 0.192280 0.238737
C36   C     C_3   0.073059 0.965627 0.702372 -0.345912
C37   C     C_3   0.106172 0.962735 0.885547 -0.302791
C38   C     C_3   0.144076 0.117439 0.969143 -0.808708
H8    H     H_    0.117198 0.216292 0.998796 0.247906
H9    H     H_    0.168467 0.107523 0.097623 0.260708
H10   H     H_    0.175341 0.142041 0.876137 0.271268
H11   H     H_    0.075036 0.942064 0.980551 0.204788
H12   H     H_    0.133975 0.865644 0.870455 0.235606
H13   H     H_    0.101606 0.004417 0.609885 0.271097
H14   H     H_    0.043534 0.058707 0.728808 0.173564
H15   H     H_    0.042621 0.126380 0.362105 0.179006
H16   H     H_    0.959686 0.902252 0.656126 0.184065
H17   H     H_    0.234005 0.696502 0.758838 0.148684
H18   H     H_    0.795976 0.593653 0.790481 0.137924
H19   H     H_    0.338159 0.695990 0.750507 0.137588
H20   H     H_    0.691697 0.596051 0.791294 0.156657
H21   H     H_    0.305584 0.340356 0.245446 0.149501
H22   H     H_    0.666644 0.403167 0.210432 0.147400
H23   H     H_    0.203148 0.367613 0.235766 0.147306
H24   H     H_    0.771018 0.405896 0.211392 0.137054
C39   C     C_3   0.430999 0.951239 0.303406 -0.414702
C40   C     C_3   0.377314 0.039203 0.328335 -0.389027
C41   C     C_3   0.325451 0.952166 0.194804 -0.829177
H25   H     H_    0.334891 0.941739 0.052974 0.240776
H26   H     H_    0.314507 0.832318 0.216297 0.262338
H27   H     H_    0.287619 0.018935 0.215812 0.256300
H28   H     H_    0.366599 0.049760 0.468951 0.219845
H29   H     H_    0.385453 0.159548 0.305982 0.227469
H30   H     H_    0.442524 0.943223 0.163979 0.207999
H31   H     H_    0.417147 0.830486 0.314852 0.237268
C42   C     C_3   0.562097 0.054394 0.709094 -0.413503
C43   C     C_3   0.616313 0.100685 0.627372 -0.318903
C44   C     C_3   0.662099 0.203082 0.772973 -0.809043
H32   H     H_    0.645693 0.314768 0.837561 0.250763
H33   H     H_    0.674429 0.139476 0.878577 0.243028
H34   H     H_    0.701126 0.231605 0.710272 0.263250
H35   H     H_    0.634496 0.991461 0.564719 0.205502
H36   H     H_    0.606331 0.165305 0.521062 0.217574
H37   H     H_    0.548667 0.154916 0.806813 0.234307
H38   H     H_    0.575578 0.977670 0.797247 0.192052
C45   C     C_3   0.433608 0.350248 0.940060 -0.045146
C46   C     C_3   0.376175 0.423424 0.946257 -0.361745
C47   C     C_3   0.327416 0.310835 0.821530 -0.883913
H39   H     H_    0.337579 0.280160 0.679875 0.259090
H40   H     H_    0.320661 0.200205 0.868395 0.246480
H41   H     H_    0.286703 0.366454 0.824850 0.267529
H42   H     H_    0.361632 0.445336 0.079026 0.235381
H43   H     H_    0.380089 0.540854 0.916502 0.233253
H44   H     H_    0.438297 0.298430 0.800132 0.192428
H45   H     H_    0.429345 0.247801 0.002534 0.140108
C48   C     C_3   0.570029 0.626743 0.062835 -0.050097
C49   C     C_3   0.589843 0.777649 0.007286 -0.425820
C50   C     C_3   0.645506 0.861715 0.123278 -0.911174
H46   H     H_    0.639318 0.890901 0.268446 0.253686
H47   H     H_    0.680908 0.785616 0.103666 0.265836
H48   H     H_    0.658089 0.973082 0.083955 0.260161
H49   H     H_    0.599305 0.752587 0.866101 0.264648
H50   H     H_    0.555686 0.858159 0.025724 0.225451
H51   H     H_    0.565207 0.673058 0.203962 0.223761
H52   H     H_    0.604072 0.546033 0.047762 0.144638

loop_
_geom_bond_atom_site_label_1
_geom_bond_atom_site_label_2
_ccdc_geom_bond_type
C36   H14   S    
C49   H50   S    
C38   H9    S    
C45   C46   S    
Cu2   N3    S    
C48   C49   S    
C21   O11   S    
C39   C40   S    
C10   H22   S    
C43   H36   S    
C32   H16   S    
C35   H1    S    
C44   H32   S    
C37   H11   S    
Cu2   O2    S    
Cu1   O4    S    
C23   C29   A    
N3    N4    D    
C24   C26   A    
C49   H49   S    
C19   O9    S    
C45   H44   S    
C15   C16   D    
C48   H51   S    
N3    C45   S    
Cu1   O1    S    
C7    C17   S    
C46   H43   S    
C1    C15   S    
C42   H38   S    
C2    C16   S    
C4    H18   S    
C3    C13   A    
C22   O12   S    
C50   H48   S    
C39   H30   S    
C31   H15   S    
C38   H10   S    
C44   H33   S    
Cu1   O8    S    
C36   C37   S    
Cu2   O3    S    
C18   O8    A    
C11   H23   S    
C49   C50   S    
C43   H35   S    
C35   H2    S    
C34   H5    S    
C33   C34   S    
Cu1   O5    S    
Cu2   O6    S    
C13   N2    S    
C15   C39   S    
C14   N1    S    
C5    C7    A    
C6    C8    A    
C20   C28   A    
C45   H45   S    
C8    C18   S    
C48   H52   S    
C5    H19   S    
C17   O5    A    
C37   C38   S    
C18   O6    A    
C41   H25   S    
Cu1   Cu2   S    
C46   H42   S    
C47   H40   S    
Cu2   O7    S    
C9    H21   S    
C9    C11   A    
C20   O10   S    
C10   C12   A    
C39   H31   S    
C4    C6    A    
C41   H26   S    
C12   C14   A    
C44   H34   S    
C21   C23   A    
C22   C24   A    
C33   H6    S    
C42   C43   S    
C19   C27   A    
C34   C35   S    
C50   H46   S    
C29   C33   S    
C35   H3    S    
C1    O3    A    
C7    C9    A    
C27   C32   A    
C28   C31   A    
C17   O7    A    
C3    C5    A    
C6    H20   S    
C21   N1    A    
C25   C27   A    
C22   N2    A    
C26   C28   A    
Cu1   N4    S    
C37   H12   S    
C36   H13   S    
C25   C26   A    
C29   C31   A    
C19   N1    A    
C30   C32   A    
C11   C13   A    
C2    O4    A    
C40   H29   S    
C12   H24   S    
C43   C44   S    
C47   H41   S    
C23   C25   A    
C4    C14   A    
C46   C47   S    
C3    H17   S    
C24   C30   A    
C34   H4    S    
C1    O1    A    
C38   H8    S    
C20   N2    A    
C2    O2    A    
C41   H27   S    
C16   C42   S    
C8    C10   A    
C40   C41   S    
C30   C36   S    
C47   H39   S    
C33   H7    S    
C42   H37   S    
N4    C48   S    
C40   H28   S    
C50   H47   S    
