data_mof_unit_65411.cif
_audit_creation_date              2012-12-10T16:52:44-0500
_audit_creation_method            fapswitch 2.2
_symmetry_space_group_name_H-M    P1
_symmetry_Int_Tables_number       1
_space_group_crystal_system       triclinic
_cell_length_a                    26.243484
_cell_length_b                    26.240508
_cell_length_c                    22.27563
_cell_angle_alpha                 90.000404
_cell_angle_beta                  53.915369
_cell_angle_gamma                 90.000304
_cell_volume                      12396.9421107

loop_
_atom_site_label
_atom_site_type_symbol
_atom_type_description
_atom_site_fract_x
_atom_site_fract_y
_atom_site_fract_z
_atom_type_partial_charge
C1    C     C_R   0.650295 0.250019 0.699470 0.819617
C2    C     C_1   0.889494 0.750088 0.221109 -0.144202
C3    C     C_2   0.248288 0.943909 0.499392 -0.296538
C4    C     C_3   0.472348 0.776561 0.974985 -0.208630
C5    C     C_3   0.472367 0.223407 0.974985 -0.208642
C6    C     C_3   0.972666 0.277042 0.974985 -0.208648
C7    C     C_3   0.972833 0.722715 0.974985 -0.208617
C8    C     C_3   0.877904 0.208841 0.056680 -0.415420
C9    C     C_3   0.870577 0.193171 0.996213 -0.873110
C10   C     C_3   0.877660 0.790589 0.056680 -0.415404
C11   C     C_3   0.870238 0.806029 0.996213 -0.873132
C12   C     C_3   0.378401 0.707723 0.056680 -0.415380
C13   C     C_1   0.389495 0.749910 0.221109 -0.144073
C14   C     C_3   0.371264 0.691606 0.996213 -0.873063
C15   C     C_3   0.378368 0.292205 0.056682 -0.415420
C16   C     C_3   0.371218 0.308293 0.996216 -0.873049
C17   C     C_3   0.524262 0.647366 0.943333 -0.414962
C18   C     C_3   0.492977 0.606660 0.003780 -0.875214
C19   C     C_3   0.524182 0.352630 0.943335 -0.414819
C20   C     C_3   0.492867 0.393334 0.003782 -0.875356
C21   C     C_3   0.023041 0.147427 0.943333 -0.414843
C22   C     C_3   0.991275 0.106737 0.003780 -0.875328
C23   C     C_3   0.022422 0.852538 0.943335 -0.414824
C24   C     C_1   0.389495 0.250089 0.221109 -0.144323
C25   C     C_3   0.990415 0.893218 0.003782 -0.875170
C26   C     C_1   0.610652 0.749864 0.778897 -0.142556
C27   C     C_1   0.610651 0.250135 0.778897 -0.142555
C28   C     C_1   0.110650 0.249866 0.778897 -0.142568
C29   C     C_1   0.110650 0.750134 0.778897 -0.142552
C30   C     C_3   0.991526 0.297577 0.024681 -0.179580
C31   C     C_3   0.991818 0.702446 0.024681 -0.179625
C32   C     C_3   0.490961 0.797614 0.024681 -0.179625
C33   C     C_R   0.650296 0.749981 0.699470 0.819616
C34   C     C_3   0.490996 0.202387 0.024680 -0.179675
C35   C     C_3   0.963189 0.249481 0.073151 0.109582
C36   C     C_3   0.963189 0.750516 0.073151 0.109589
C37   C     C_3   0.463197 0.749474 0.073151 0.109568
C38   C     C_3   0.463196 0.250525 0.073151 0.109608
C39   C     C_3   0.555764 0.770466 0.975316 -0.178369
C40   C     C_3   0.555779 0.229565 0.975315 -0.178370
C41   C     C_3   0.056004 0.269953 0.975315 -0.178397
C42   C     C_3   0.056127 0.730311 0.975315 -0.178397
C43   C     C_3   0.536619 0.749269 0.926857 0.109245
C44   C     C_R   0.150295 0.750019 0.699470 0.819751
C45   C     C_3   0.536618 0.250729 0.926857 0.109256
C46   C     C_3   0.036610 0.249274 0.926857 0.109251
C47   C     C_3   0.036608 0.750725 0.926857 0.109262
C48   C     C_3   0.027213 0.221823 0.025031 -0.208841
C49   C     C_3   0.027045 0.778416 0.025031 -0.208817
C50   C     C_3   0.527547 0.722293 0.025031 -0.208813
C51   C     C_3   0.527525 0.277736 0.025031 -0.208820
C52   C     C_3   0.508769 0.701318 0.975638 0.203515
C53   C     C_3   0.508731 0.298678 0.975639 0.203477
C54   C     C_3   0.008189 0.201367 0.975638 0.203497
C55   C     C_R   0.150295 0.249981 0.699470 0.819492
C56   C     C_3   0.007897 0.798606 0.975638 0.203441
C57   C     C_1   0.922840 0.249762 0.154325 -0.077859
C58   C     C_1   0.922841 0.750237 0.154325 -0.077874
C59   C     C_1   0.422844 0.749758 0.154325 -0.077821
C60   C     C_1   0.422844 0.250240 0.154325 -0.077914
C61   C     C_R   0.849745 0.250001 0.300534 0.821234
C62   C     C_R   0.849745 0.749999 0.300534 0.821231
C63   C     C_R   0.349745 0.750001 0.300534 0.821284
C64   C     C_R   0.349745 0.249999 0.300534 0.821192
C65   C     C_1   0.577274 0.749665 0.845683 -0.076881
C66   C     C_3   0.944117 0.228931 0.024377 0.203659
C67   C     C_1   0.577272 0.250334 0.845683 -0.076905
C68   C     C_1   0.077269 0.249668 0.845682 -0.076934
C69   C     C_1   0.077269 0.750331 0.845682 -0.076874
C70   C     C_2   0.492782 0.219870 0.458355 -0.162024
C71   C     C_2   0.492782 0.780131 0.458356 -0.162155
C72   C     C_2   0.992782 0.719869 0.458355 -0.161988
C73   C     C_2   0.992782 0.280132 0.458357 -0.162187
C74   C     C_2   0.444196 0.252006 0.499434 -0.296274
C75   C     C_2   0.444196 0.747994 0.499433 -0.296218
C76   C     C_2   0.944196 0.752006 0.499434 -0.296269
C77   C     C_3   0.943993 0.770802 0.024377 0.203657
C78   C     C_2   0.944196 0.247994 0.499434 -0.296222
C79   C     C_2   0.549675 0.220933 0.456788 -0.162484
C80   C     C_2   0.549675 0.779067 0.456790 -0.162684
C81   C     C_2   0.049675 0.720933 0.456789 -0.162675
C82   C     C_2   0.049675 0.279067 0.456790 -0.162489
C83   C     C_2   0.554629 0.249629 0.502972 -0.296316
C84   C     C_2   0.554629 0.750371 0.502973 -0.296306
C85   C     C_2   0.054629 0.749630 0.502972 -0.296330
C86   C     C_2   0.054629 0.250371 0.502973 -0.296295
C87   C     C_2   0.740739 0.971941 0.458329 -0.162185
C88   C     C_3   0.444371 0.728408 0.024377 0.203634
C89   C     C_2   0.742577 0.028058 0.456766 -0.162296
C90   C     C_2   0.242577 0.471941 0.456766 -0.162306
C91   C     C_2   0.240739 0.528058 0.458329 -0.162191
C92   C     C_2   0.752322 0.943892 0.499423 -0.296006
C93   C     C_2   0.748156 0.056108 0.502967 -0.295941
C94   C     C_2   0.248157 0.443892 0.502967 -0.295940
C95   C     C_2   0.252322 0.556108 0.499422 -0.296000
C96   C     C_R   0.888700 0.249861 0.499876 0.854469
C97   C     C_R   0.888700 0.750140 0.499876 0.854410
C98   C     C_R   0.388700 0.749860 0.499875 0.854328
C99   C     C_3   0.444354 0.271558 0.024378 0.203666
C100  C     C_R   0.388700 0.250140 0.499876 0.854548
C101  C     C_R   0.611268 0.249916 0.500243 0.854905
C102  C     C_R   0.611267 0.750084 0.500244 0.854965
C103  C     C_R   0.111268 0.749916 0.500243 0.854852
C104  C     C_R   0.111267 0.250084 0.500244 0.855027
C105  C     C_R   0.749797 0.111389 0.500243 0.854884
C106  C     C_R   0.750234 0.888611 0.499872 0.854909
C107  C     C_R   0.250234 0.611389 0.499872 0.854907
C108  C     C_R   0.249797 0.388611 0.500243 0.854874
C109  C     C_R   0.749925 0.388637 0.499873 0.854448
C110  C     C_1   0.889494 0.249912 0.221109 -0.144194
C111  C     C_R   0.749992 0.611363 0.500254 0.854498
C112  C     C_R   0.249925 0.888637 0.499873 0.854453
C113  C     C_R   0.249992 0.111363 0.500254 0.854509
C114  C     C_2   0.800698 0.528053 0.456804 -0.162341
C115  C     C_2   0.800976 0.471946 0.458406 -0.162363
C116  C     C_2   0.300698 0.028053 0.456804 -0.162330
C117  C     C_2   0.300976 0.971946 0.458406 -0.162357
C118  C     C_2   0.748924 0.556092 0.503029 -0.296529
C119  C     C_2   0.748288 0.443909 0.499392 -0.296531
C120  C     C_2   0.248924 0.056092 0.503029 -0.296530
H1    H     H_    0.845316 0.546686 0.416247 0.174635
H2    H     H_    0.588560 0.803448 0.416280 0.174293
H3    H     H_    0.088560 0.696552 0.416280 0.174310
H4    H     H_    0.088560 0.303448 0.416281 0.174386
H5    H     H_    0.516593 0.273483 0.545262 0.150638
H6    H     H_    0.516592 0.726517 0.545263 0.150662
H7    H     H_    0.016593 0.773484 0.545262 0.150639
H8    H     H_    0.016592 0.226517 0.545263 0.150656
H9    H     H_    0.730024 0.953308 0.423425 0.174441
H10   H     H_    0.738463 0.046691 0.416245 0.174453
H11   H     H_    0.238462 0.453308 0.416246 0.174444
H12   H     H_    0.846599 0.453312 0.423610 0.174574
H13   H     H_    0.230023 0.546690 0.423425 0.174438
H14   H     H_    0.764650 0.960787 0.533529 0.150831
H15   H     H_    0.750856 0.039213 0.545264 0.150870
H16   H     H_    0.250857 0.460787 0.545264 0.150870
H17   H     H_    0.264650 0.539213 0.533529 0.150833
H18   H     H_    0.703955 0.539195 0.545396 0.150422
H19   H     H_    0.701852 0.460807 0.533361 0.150592
H20   H     H_    0.203955 0.039195 0.545396 0.150421
H21   H     H_    0.201852 0.960807 0.533361 0.150589
H22   H     H_    0.450415 0.798887 0.953381 0.143686
H23   H     H_    0.345316 0.046686 0.416247 0.174644
H24   H     H_    0.450451 0.201056 0.953381 0.143666
H25   H     H_    0.951001 0.299756 0.953381 0.143666
H26   H     H_    0.951307 0.699805 0.953381 0.143670
H27   H     H_    0.049043 0.199359 0.046644 0.143738
H28   H     H_    0.048738 0.801078 0.046645 0.143743
H29   H     H_    0.549641 0.700219 0.046645 0.143761
H30   H     H_    0.549603 0.299836 0.046645 0.143744
H31   H     H_    0.602091 0.787851 0.954047 0.148118
H32   H     H_    0.602119 0.212208 0.954045 0.148098
H33   H     H_    0.102534 0.286912 0.954046 0.148091
H34   H     H_    0.346599 0.953312 0.423610 0.174576
H35   H     H_    0.102760 0.713570 0.954045 0.148083
H36   H     H_    0.984224 0.337146 0.045939 0.147143
H37   H     H_    0.984756 0.662898 0.045938 0.147100
H38   H     H_    0.483188 0.837220 0.045939 0.147131
H39   H     H_    0.483254 0.162783 0.045937 0.147069
H40   H     H_    0.491599 0.191692 0.423463 0.174719
H41   H     H_    0.491597 0.808310 0.423466 0.174569
H42   H     H_    0.991598 0.691692 0.423463 0.174696
H43   H     H_    0.991597 0.308310 0.423466 0.174588
H44   H     H_    0.882843 0.225342 0.957495 0.257383
H45   H     H_    0.444038 0.281394 0.533533 0.150743
H46   H     H_    0.901072 0.160047 0.964634 0.263228
H47   H     H_    0.820870 0.182065 0.022155 0.252309
H48   H     H_    0.867222 0.175966 0.093710 0.209306
H49   H     H_    0.843270 0.239416 0.090837 0.208335
H50   H     H_    0.900531 0.839243 0.964637 0.263234
H51   H     H_    0.882701 0.773815 0.957493 0.257373
H52   H     H_    0.820463 0.816911 0.022155 0.252312
H53   H     H_    0.843211 0.759907 0.090837 0.208308
H54   H     H_    0.866778 0.823510 0.093710 0.209371
H55   H     H_    0.383148 0.723689 0.957493 0.257398
H56   H     H_    0.444039 0.718604 0.533529 0.150732
H57   H     H_    0.402153 0.658659 0.964636 0.263226
H58   H     H_    0.321692 0.680062 0.022154 0.252321
H59   H     H_    0.368109 0.674945 0.093712 0.209354
H60   H     H_    0.343404 0.738088 0.090835 0.208366
H61   H     H_    0.402082 0.341251 0.964638 0.263231
H62   H     H_    0.383125 0.276203 0.957496 0.257398
H63   H     H_    0.321637 0.319808 0.022158 0.252315
H64   H     H_    0.343395 0.261826 0.090838 0.208362
H65   H     H_    0.368051 0.324989 0.093714 0.209302
H66   H     H_    0.506175 0.611644 0.042503 0.257118
H67   H     H_    0.944038 0.781394 0.533533 0.150701
H68   H     H_    0.440994 0.608421 0.035358 0.262949
H69   H     H_    0.508848 0.568385 0.977825 0.251443
H70   H     H_    0.509312 0.642805 0.906285 0.209772
H71   H     H_    0.576187 0.642030 0.909187 0.207412
H72   H     H_    0.440885 0.391546 0.035361 0.262928
H73   H     H_    0.506070 0.388375 0.042505 0.257090
H74   H     H_    0.508709 0.431612 0.977829 0.251478
H75   H     H_    0.576104 0.357992 0.909188 0.207443
H76   H     H_    0.509228 0.357165 0.906288 0.209806
H77   H     H_    0.004535 0.111333 0.042499 0.257099
H78   H     H_    0.944039 0.218605 0.533531 0.150771
H79   H     H_    0.939316 0.108928 0.035362 0.262928
H80   H     H_    0.006690 0.068430 0.977825 0.251474
H81   H     H_    0.008035 0.143263 0.906288 0.209789
H82   H     H_    0.074900 0.141678 0.909184 0.207432
H83   H     H_    0.938468 0.890807 0.035371 0.262951
H84   H     H_    0.003707 0.888819 0.042497 0.257116
H85   H     H_    0.005596 0.931539 0.977828 0.251473
H86   H     H_    0.074246 0.858497 0.909182 0.207469
H87   H     H_    0.007389 0.856499 0.906294 0.209839
H88   H     H_    0.588561 0.196553 0.416279 0.174404
O1    O     O_3   0.750010 0.250010 0.500000 -0.484800
O2    O     O_R   0.613890 0.719960 0.543100 -0.644064
O3    O     O_R   0.113890 0.780040 0.543100 -0.644304
O4    O     O_R   0.113890 0.219960 0.543100 -0.644104
O5    O     O_R   0.697860 0.219970 0.664410 -0.636226
O6    O     O_R   0.697860 0.780030 0.664410 -0.635962
O7    O     O_R   0.197860 0.719970 0.664410 -0.635970
O8    O     O_R   0.197860 0.280030 0.664410 -0.636186
O9    O     O_R   0.802170 0.219970 0.335590 -0.641371
O10   O     O_R   0.802170 0.780030 0.335590 -0.641069
O11   O     O_R   0.302170 0.719970 0.335590 -0.641150
O12   O     O_3   0.750010 0.749990 0.500000 -0.484797
O13   O     O_R   0.302170 0.280030 0.335590 -0.641317
O14   O     O_R   0.637780 0.280050 0.664410 -0.638817
O15   O     O_R   0.637780 0.719950 0.664410 -0.639086
O16   O     O_R   0.137780 0.780050 0.664410 -0.638874
O17   O     O_R   0.137780 0.219950 0.664410 -0.639076
O18   O     O_R   0.862250 0.280060 0.335590 -0.637621
O19   O     O_R   0.862250 0.719940 0.335590 -0.637929
O20   O     O_R   0.362250 0.780060 0.335590 -0.637673
O21   O     O_R   0.362250 0.219940 0.335590 -0.637858
O22   O     O_R   0.843040 0.219980 0.543100 -0.644212
O23   O     O_3   0.250010 0.750010 0.500000 -0.484800
O24   O     O_R   0.843040 0.780020 0.543100 -0.644487
O25   O     O_R   0.343040 0.719980 0.543100 -0.644436
O26   O     O_R   0.343040 0.280020 0.543100 -0.644255
O27   O     O_R   0.656980 0.219970 0.456900 -0.643498
O28   O     O_R   0.656980 0.780030 0.456900 -0.643734
O29   O     O_R   0.156980 0.719970 0.456900 -0.643700
O30   O     O_R   0.156980 0.280030 0.456900 -0.643526
O31   O     O_R   0.758500 0.135440 0.543100 -0.644057
O32   O     O_R   0.758500 0.864560 0.543100 -0.644053
O33   O     O_R   0.258500 0.635440 0.543100 -0.644054
O34   O     O_3   0.250010 0.249990 0.500000 -0.484795
O35   O     O_R   0.258500 0.364560 0.543100 -0.644056
O36   O     O_R   0.698440 0.364590 0.543100 -0.644611
O37   O     O_R   0.698440 0.635410 0.543100 -0.644602
O38   O     O_R   0.198440 0.864590 0.543100 -0.644619
O39   O     O_R   0.198440 0.135410 0.543100 -0.644597
O40   O     O_R   0.741510 0.135430 0.456900 -0.643383
O41   O     O_R   0.741510 0.864570 0.456900 -0.643395
O42   O     O_R   0.241510 0.635430 0.456900 -0.643396
O43   O     O_R   0.241510 0.364570 0.456900 -0.643396
O44   O     O_R   0.801610 0.364600 0.456900 -0.643427
O45   O     O_R   0.886150 0.280070 0.456900 -0.643420
O46   O     O_R   0.801610 0.635400 0.456900 -0.643454
O47   O     O_R   0.301610 0.864600 0.456900 -0.643420
O48   O     O_R   0.301610 0.135400 0.456900 -0.643451
O49   O     O_R   0.886150 0.719930 0.456900 -0.643192
O50   O     O_R   0.386150 0.780070 0.456900 -0.643402
O51   O     O_R   0.386150 0.219930 0.456900 -0.643214
O52   O     O_R   0.613890 0.280040 0.543100 -0.644335
Zn1   Zn    Zn3+2 0.823730 0.292940 0.438410 0.965743
Zn2   Zn    Zn3+2 0.737880 0.792910 0.438410 0.964078
Zn3   Zn    Zn3+2 0.237880 0.707090 0.438410 0.964014
Zn4   Zn    Zn3+2 0.237880 0.292910 0.438410 0.964057
Zn5   Zn    Zn3+2 0.676310 0.292930 0.561590 0.969897
Zn6   Zn    Zn3+2 0.676310 0.707070 0.561590 0.969946
Zn7   Zn    Zn3+2 0.176310 0.792930 0.561590 0.969924
Zn8   Zn    Zn3+2 0.176310 0.207070 0.561590 0.969894
Zn9   Zn    Zn3+2 0.823730 0.707060 0.438410 0.965645
Zn10  Zn    Zn3+2 0.323730 0.792940 0.438410 0.965682
Zn11  Zn    Zn3+2 0.323730 0.207060 0.438410 0.965728
Zn12  Zn    Zn3+2 0.762140 0.207100 0.561590 0.971765
Zn13  Zn    Zn3+2 0.762140 0.792900 0.561590 0.971706
Zn14  Zn    Zn3+2 0.262140 0.707100 0.561590 0.971774
Zn15  Zn    Zn3+2 0.262140 0.292900 0.561590 0.971714
Zn16  Zn    Zn3+2 0.737880 0.207090 0.438410 0.964015

loop_
_geom_bond_atom_site_label_1
_geom_bond_atom_site_label_2
_ccdc_geom_bond_type
C10   H54   S    
O9    Zn16  S    
C71   C75   D    
C101  O52   A    
C18   H69   S    
C11   H51   S    
C31   C42   S    
O23   Zn7   S    
O29   Zn3   S    
C44   O7    A    
C84   C102  S    
C20   H73   S    
C37   C88   S    
O30   Zn4   S    
O37   Zn6   S    
C3    H21   S    
C72   C76   D    
C25   H84   S    
O12   Zn6   S    
O16   Zn7   S    
C114  C115  S    
C16   H63   S    
C97   O49   A    
C23   C56   S    
C109  O44   A    
C80   H2    S    
C17   H71   S    
O1    Zn5   S    
C15   H65   S    
C94   C108  S    
C54   C66   S    
C14   H55   S    
O31   Zn12  S    
C81   H3    S    
C111  C118  S    
C34   C40   S    
O28   Zn2   S    
C62   O10   A    
C106  O41   A    
C22   H80   S    
C9    H46   S    
C28   C68   T    
C63   O20   A    
C61   O9    A    
C96   O45   A    
O40   Zn16  S    
C118  H18   S    
C36   C58   S    
C36   C77   S    
C4    H22   S    
C64   O21   A    
C16   H62   S    
C43   C52   S    
C97   O24   A    
C12   H59   S    
C61   C110  S    
C79   H88   S    
C116  H23   S    
O23   Zn10  S    
C39   H31   S    
O32   Zn13  S    
C40   H32   S    
O36   Zn5   S    
C32   C39   S    
C63   O11   A    
C47   C69   S    
O15   Zn6   S    
C8    H48   S    
C93   C105  S    
C4    C88   S    
C114  H1    S    
C100  O26   A    
O19   Zn9   S    
O1    Zn12  S    
C5    C99   S    
C51   H30   S    
C78   C96   S    
C8    C9    S    
C89   H10   S    
C91   H13   S    
C70   C74   D    
O7    Zn14  S    
C94   H16   S    
C41   C46   S    
C30   C41   S    
C8    C66   S    
C120  H20   S    
C96   O22   A    
O41   Zn2   S    
C31   H37   S    
C64   O13   A    
C83   C101  S    
O17   Zn8   S    
C32   H38   S    
C72   C81   S    
C85   C103  S    
C103  O29   A    
O43   Zn4   S    
C7    C77   S    
C7    H26   S    
C34   H39   S    
C98   O50   A    
C111  O46   A    
C30   H36   S    
O12   Zn13  S    
C100  O51   A    
C86   C104  S    
C19   H76   S    
O2    Zn6   S    
C113  O48   A    
C106  O32   A    
C21   C22   S    
C15   H64   S    
C89   C93   D    
O27   Zn16  S    
C42   C47   S    
C83   H5    S    
C41   H33   S    
C25   H85   S    
C35   C48   S    
C21   H82   S    
C17   C52   S    
C20   H74   S    
C71   C80   S    
C10   C77   S    
C90   C94   D    
C29   C69   T    
C115  H12   S    
C84   H6    S    
C40   C45   S    
O42   Zn3   S    
O48   Zn11  S    
C28   C55   S    
C95   H17   S    
C75   H56   S    
C7    C31   S    
C15   C16   S    
C12   C88   S    
C108  O43   A    
C86   H8    S    
C80   C84   D    
C21   H81   S    
C22   H79   S    
C9    H47   S    
O11   Zn3   S    
C111  O37   A    
C72   H42   S    
C14   H58   S    
C10   C11   S    
O13   Zn4   S    
C103  O3    A    
C55   O8    A    
O14   Zn5   S    
C16   H61   S    
C102  O2    A    
C112  O47   A    
C39   C43   S    
C38   C51   S    
C109  O36   A    
C93   H15   S    
C76   C97   S    
C82   C86   D    
C73   C78   D    
C5    C45   S    
C18   H66   S    
C75   C98   S    
C53   C99   S    
O26   Zn15  S    
C116  C120  D    
O23   Zn14  S    
C1    O14   A    
C51   C53   S    
C7    C47   S    
O33   Zn14  S    
C9    H44   S    
C48   C54   S    
C55   O17   A    
C12   H60   S    
C105  O40   A    
C46   C68   S    
C19   H75   S    
C113  C120  S    
C26   C33   S    
C50   C52   S    
C57   C110  T    
C13   C63   S    
C52   C88   S    
C3    C112  S    
C43   C65   S    
O1    Zn16  S    
C5    C34   S    
C46   C54   S    
O3    Zn7   S    
C17   C18   S    
C105  O31   A    
C104  O30   A    
C4    C32   S    
C32   C37   S    
O12   Zn9   S    
C47   C56   S    
O18   Zn1   S    
C108  O35   A    
C37   C59   S    
C76   H67   S    
C95   C107  S    
O44   Zn1   S    
C11   H50   S    
C44   O16   A    
C90   H11   S    
C33   O15   A    
C92   C106  S    
C6    C30   S    
C12   C14   S    
O34   Zn8   S    
C87   C89   S    
C23   H86   S    
C1    O5    A    
O10   Zn2   S    
C38   C60   S    
C85   H7    S    
O49   Zn9   S    
O39   Zn8   S    
O38   Zn7   S    
C49   C56   S    
O35   Zn15  S    
C73   C82   S    
O51   Zn11  S    
C8    H49   S    
C109  C119  S    
C82   H4    S    
O45   Zn1   S    
C6    H25   S    
O23   Zn3   S    
C114  C118  D    
O34   Zn4   S    
C6    C46   S    
C107  O42   A    
C23   H87   S    
C70   C79   S    
C34   C38   S    
C26   C65   T    
O24   Zn13  S    
C92   H14   S    
O4    Zn8   S    
C15   C99   S    
C38   C99   S    
C5    H24   S    
O34   Zn15  S    
C74   C100  S    
C33   O6    A    
C2    C58   T    
O1    Zn1   S    
C45   C67   S    
C13   C59   T    
C101  O27   A    
C17   H70   S    
C40   C51   S    
C30   C35   S    
C20   H72   S    
O46   Zn9   S    
C115  C119  D    
C61   O18   A    
C35   C66   S    
C71   H41   S    
C35   C57   S    
C119  H19   S    
O34   Zn11  S    
C87   H9    S    
C19   C20   S    
C42   H35   S    
C112  O38   A    
C73   H43   S    
C113  O39   A    
C79   C83   D    
C37   C50   S    
O21   Zn11  S    
C50   H29   S    
C19   C53   S    
C90   C91   S    
C21   C54   S    
C98   O25   A    
O22   Zn12  S    
C10   H53   S    
O25   Zn14  S    
O5    Zn12  S    
C18   H68   S    
C22   H77   S    
O8    Zn15  S    
C45   C53   S    
C116  C117  S    
C70   H40   S    
C29   C44   S    
C23   C25   S    
O12   Zn2   S    
O50   Zn10  S    
O6    Zn13  S    
C14   H57   S    
C27   C67   T    
C41   C48   S    
C56   C77   S    
C42   C49   S    
C4    C43   S    
C2    C62   S    
C6    C66   S    
C39   C50   S    
C49   H28   S    
C91   C95   D    
C24   C64   S    
C11   H52   S    
C117  H34   S    
C1    C27   S    
C104  O4    A    
C31   C36   S    
C107  O33   A    
O20   Zn10  S    
C24   C60   T    
C78   H78   S    
C102  O28   A    
C3    C117  D    
O52   Zn5   S    
C87   C92   D    
C25   H83   S    
C74   H45   S    
C81   C85   D    
C36   C49   S    
C62   O19   A    
C48   H27   S    
O47   Zn10  S    
