data_mof_unit_14703.cif
_audit_creation_date              2013-03-05T16:10:40-0500
_audit_creation_method            fapswitch 2.2
_symmetry_space_group_name_H-M    P1
_symmetry_Int_Tables_number       1
_space_group_crystal_system       triclinic
_cell_length_a                    9.911077
_cell_length_b                    10.679668
_cell_length_c                    15.528681
_cell_angle_alpha                 90.687658
_cell_angle_beta                  66.046926
_cell_angle_gamma                 89.032006
_cell_volume                      1501.57492709

loop_
_atom_site_label
_atom_site_type_symbol
_atom_site_description
_atom_site_fract_x
_atom_site_fract_y
_atom_site_fract_z
_atom_type_partial_charge
O1    O     O_R   0.385370 0.683250 0.500010 -0.581841
O2    O     O_R   0.614630 0.316750 0.499990 -0.581849
O3    O     O_R   0.614700 0.683220 0.500000 -0.636585
O4    O     O_R   0.385300 0.316780 0.500000 -0.636579
C1    C     C_R   0.498893 0.739869 0.500629 0.879691
C2    C     C_R   0.501109 0.260130 0.499370 0.879708
O5    O     O_R   0.319830 0.500020 0.632250 -0.580095
O6    O     O_R   0.680170 0.499980 0.367750 -0.580074
O7    O     O_R   0.549160 0.499990 0.632240 -0.588276
O8    O     O_R   0.450840 0.500010 0.367760 -0.588278
C3    C     C_R   0.405684 0.499833 0.677012 0.915865
C4    C     C_R   0.594316 0.500169 0.322988 0.915864
Zn1   Zn    Zn3+2 0.346870 0.500020 0.500000 1.047643
Zn2   Zn    Zn3+2 0.653130 0.499980 0.500000 1.047653
C5    C     C_R   0.342926 0.506593 0.780889 -0.248189
C6    C     C_R   0.657075 0.493409 0.219110 -0.248195
C7    C     C_R   0.167670 0.589900 0.933321 0.480006
C8    C     C_R   0.832333 0.410094 0.066680 0.480051
C9    C     C_R   0.202765 0.560860 0.837453 0.346927
C10   C     C_R   0.797241 0.439147 0.162546 0.346934
C11   C     C_R   0.438368 0.472789 0.822441 -0.202421
C12   C     C_R   0.561632 0.527203 0.177557 -0.202394
C13   C     C_R   0.412812 0.511634 0.913847 0.037975
C14   C     C_R   0.587188 0.488344 0.086154 0.037987
C15   C     C_R   0.271187 0.561133 0.971709 -0.031456
C16   C     C_R   0.728813 0.438847 0.028293 -0.031457
C17   C     C_R   0.522379 0.496100 0.950331 -0.038570
C18   C     C_R   0.477618 0.503867 0.049671 -0.038566
C19   C     C_R   0.325121 0.527667 0.108578 0.282817
C20   C     C_R   0.674875 0.472291 0.891424 0.282847
C21   C     C_R   0.229923 0.569879 0.068786 -0.175178
C22   C     C_R   0.770076 0.430092 0.931217 -0.175153
H1    H     H_    0.117333 0.595811 0.115022 0.228912
H2    H     H_    0.882668 0.404165 0.884979 0.228884
H3    H     H_    0.465605 0.584526 0.218594 0.202966
H4    H     H_    0.534387 0.415459 0.781403 0.203000
C23   C     C_R   0.587082 0.935090 0.537264 -0.138190
C24   C     C_R   0.412929 0.064910 0.462726 -0.138181
H5    H     H_    0.653784 0.885165 0.566949 0.178924
H6    H     H_    0.346229 0.114835 0.433041 0.178936
C25   C     C_R   0.589139 0.063386 0.536048 -0.107104
C26   C     C_R   0.410876 0.936614 0.463940 -0.107083
H7    H     H_    0.656252 0.112168 0.565425 0.192943
H8    H     H_    0.343770 0.887831 0.434558 0.192968
C27   C     C_R   0.502074 0.127589 0.498803 -0.042036
C28   C     C_R   0.497933 0.872410 0.501190 -0.042033
C29   C     C_R   0.952649 0.397555 0.467277 0.384724
C30   C     C_R   0.047353 0.602445 0.532721 0.384687
C31   C     C_R   0.095181 0.398269 0.468114 -0.072649
C32   C     C_R   0.904820 0.601731 0.531886 -0.072661
H9    H     H_    0.168806 0.317688 0.441321 0.189406
H10   H     H_    0.831198 0.682314 0.558676 0.189377
N1    N     N_R   0.142780 0.500030 0.500020 -0.160574
N2    N     N_R   0.857220 0.499970 0.499980 -0.160550
O9    O     O_3   0.901656 0.415110 0.197785 -0.703337
H11   H     H_    0.904343 0.489704 0.235424 0.377867
O10   O     O_3   0.098355 0.584913 0.802211 -0.703355
H12   H     H_    0.095651 0.510320 0.764578 0.377843
O11   O     O_3   0.032979 0.644331 0.991590 -0.769069
H13   H     H_    0.971496 0.659678 0.955881 0.388971
O12   O     O_3   0.967024 0.355658 0.008414 -0.769049
H14   H     H_    0.028532 0.340364 0.044113 0.388965
N3    N     N_R   0.260012 0.493373 0.206013 0.201109
O13   O     O_R   0.291690 0.384619 0.230915 -0.363385
O14   O     O_R   0.154033 0.562099 0.267351 -0.429893
N4    N     N_R   0.739982 0.506564 0.793987 0.201061
O15   O     O_R   0.845860 0.437755 0.732639 -0.429901
O16   O     O_R   0.708397 0.615358 0.769087 -0.363370
N5    N     N_R   0.912167 0.288726 0.429744 0.216981
O17   O     O_R   0.943849 0.178064 0.451572 -0.395829
O18   O     O_R   0.877753 0.298992 0.357864 -0.289098
N6    N     N_R   0.087846 0.711281 0.570237 0.216990
O19   O     O_R   0.056275 0.821932 0.548338 -0.395866
O20   O     O_R   0.122188 0.701050 0.642146 -0.289112

loop_
_geom_bond_atom_site_label_1
_geom_bond_atom_site_label_2
_geom_bond_distance
_ccdc_geom_bond_type
C15   C21   1.393992 A    
C24   H6    1.084080 S    
O7    Zn2   1.886943 S    
N3    O14   1.301555 A    
C8    O12   1.385308 S    
C16   C22   1.393985 A    
C24   C27   1.398370 A    
C2    C27   1.415262 S    
C13   C17   1.422486 A    
C30   N1    1.382179 A    
C29   C31   1.418119 A    
C25   H7    1.083678 S    
C1    C28   1.415265 S    
C8    C10   1.413588 A    
C8    C16   1.411612 A    
C6    C10   1.416686 A    
O6    C4    1.299007 A    
C7    C15   1.411617 A    
O3    C1    1.284834 A    
O9    H11   0.989509 S    
C30   C32   1.418113 A    
N4    O15   1.301595 A    
O11   H13   0.989369 S    
C23   H5    1.084081 S    
C11   H4    1.079414 S    
C20   N4    1.438142 S    
C9    O10   1.374967 S    
C17   C20   1.429889 A    
C20   C22   1.393175 A    
C12   H3    1.079420 S    
O7    C3    1.304919 A    
O10   H12   0.989500 S    
C32   N2    1.357686 A    
O3    Zn2   1.987338 S    
C26   H8    1.083672 S    
C30   N6    1.428586 S    
C10   O9    1.374960 S    
O1    C1    1.289681 A    
O8    C4    1.304922 A    
N6    O20   1.298070 A    
C19   N3    1.438172 S    
C7    C9    1.413594 A    
C7    O11   1.385305 S    
C24   C26   1.370900 A    
Zn1   N1    2.022624 S    
N5    O17   1.301436 A    
C29   N2    1.382190 A    
C11   C13   1.393331 A    
C23   C25   1.370897 A    
O12   H14   0.989357 S    
O2    Zn2   2.000019 S    
C12   C14   1.393334 A    
C5    C11   1.389644 A    
C31   N1    1.357682 A    
O1    Zn1   2.000019 S    
C21   H1    1.082431 S    
N3    O13   1.301584 A    
C4    C6    1.474841 S    
O5    Zn1   1.960225 S    
C13   C15   1.412968 A    
C14   C18   1.422484 A    
C19   C21   1.393189 A    
O4    C2    1.284838 A    
C26   C28   1.394279 A    
C31   H9    1.081593 S    
C32   H10   1.081594 S    
N5    O18   1.298096 A    
C25   C27   1.394286 A    
C18   C19   1.429889 A    
O5    C3    1.299006 A    
C6    C12   1.389645 A    
O6    Zn2   1.960227 S    
N4    O16   1.301633 A    
Zn2   N2    2.022624 S    
C23   C28   1.398373 A    
C5    C9    1.416676 A    
C3    C5    1.474832 S    
C29   N5    1.428601 S    
O2    C2    1.289677 A    
O4    Zn1   1.987338 S    
C14   C16   1.412967 A    
N6    O19   1.301369 A    
C17   C18   1.422451 A    
O8    Zn1   1.886945 S    
C22   H2    1.082432 S    
