data_mof_unit_13288.cif
_audit_creation_date              2012-12-10T17:31:26-0500
_audit_creation_method            fapswitch 2.2
_symmetry_space_group_name_H-M    P1
_symmetry_Int_Tables_number       1
_space_group_crystal_system       triclinic
_cell_length_a                    18.861083
_cell_length_b                    18.414194
_cell_length_c                    12.349224
_cell_angle_alpha                 89.999155
_cell_angle_beta                  129.123329
_cell_angle_gamma                 90.001704
_cell_volume                      3327.38408401

loop_
_atom_site_label
_atom_site_type_symbol
_atom_type_description
_atom_site_fract_x
_atom_site_fract_y
_atom_site_fract_z
_atom_type_partial_charge
C1    C     C_R   0.610612 0.896651 0.650436 0.778872
C2    C     C_R   0.656314 0.726258 0.017573 0.029895
C3    C     C_R   0.156252 0.773845 0.017416 0.029891
C4    C     C_R   0.156314 0.226259 0.017573 0.029895
C5    C     C_R   0.579736 0.237373 0.902792 -0.217720
C6    C     C_R   0.579795 0.762741 0.902977 -0.217700
C7    C     C_R   0.079736 0.737373 0.902792 -0.217720
C8    C     C_R   0.079795 0.262741 0.902977 -0.217699
C9    C     C_R   0.581132 0.207689 0.801366 -0.197500
C10   C     C_R   0.581134 0.792356 0.801450 -0.197475
C11   C     C_R   0.081131 0.707689 0.801366 -0.197500
C12   C     C_R   0.610628 0.103339 0.650456 0.778822
C13   C     C_R   0.081134 0.292356 0.801451 -0.197476
C14   C     C_R   0.307970 0.822804 0.136085 -0.248946
C15   C     C_R   0.307933 0.177151 0.136016 -0.248916
C16   C     C_R   0.807970 0.322804 0.136085 -0.248946
C17   C     C_R   0.807933 0.677151 0.136016 -0.248916
C18   C     C_R   0.239204 0.828719 0.248819 -0.059333
C19   C     C_R   0.239340 0.171422 0.249023 -0.059269
C20   C     C_R   0.739204 0.328719 0.248819 -0.059333
C21   C     C_R   0.739340 0.671422 0.249023 -0.059269
C22   C     C_R   0.670366 0.166311 0.729087 -0.108025
C23   C     C_R   0.110612 0.396651 0.650436 0.778872
C24   C     C_R   0.670311 0.833657 0.729019 -0.108060
C25   C     C_R   0.170366 0.666311 0.729087 -0.108026
C26   C     C_R   0.170311 0.333657 0.729019 -0.108060
C27   C     C_R   0.685944 0.999986 0.286956 -0.286526
C28   C     C_R   0.185943 0.499986 0.286956 -0.286526
C29   C     C_R   0.342423 0.000021 0.627180 0.603153
C30   C     C_R   0.842423 0.500021 0.627180 0.603152
C31   C     C_R   0.308454 0.000024 0.700765 -0.303379
C32   C     C_R   0.808454 0.500024 0.700765 -0.303379
C33   C     C_R   0.384586 0.100362 0.343742 0.821155
C34   C     C_R   0.110628 0.603339 0.650456 0.778822
C35   C     C_R   0.384575 0.899645 0.343731 0.821161
C36   C     C_R   0.884586 0.600362 0.343742 0.821155
C37   C     C_R   0.884575 0.399645 0.343731 0.821161
C38   C     C_R   0.367775 0.000011 0.845828 -0.260217
C39   C     C_R   0.867775 0.500011 0.845828 -0.260217
C40   C     C_R   0.462872 0.999999 0.921714 -0.005714
C41   C     C_R   0.962872 0.499999 0.921714 -0.005714
C42   C     C_R   0.495255 0.999994 0.843122 0.198530
C43   C     C_R   0.995255 0.499994 0.843122 0.198530
C44   C     C_R   0.526861 0.999995 0.072392 -0.009474
C45   C     C_R   0.232662 0.785331 0.022028 0.032584
C46   C     C_R   0.026861 0.499995 0.072392 -0.009474
C47   C     C_R   0.621614 0.999988 0.140742 0.176896
C48   C     C_R   0.121614 0.499988 0.140742 0.176896
C49   C     C_R   0.651908 0.999984 0.063095 -0.256815
C50   C     C_R   0.151908 0.499984 0.063095 -0.256815
C51   C     C_R   0.590409 0.999990 0.918196 -0.145216
C52   C     C_R   0.090409 0.499990 0.918196 -0.145216
C53   C     C_R   0.501562 0.000001 0.159507 0.026177
C54   C     C_R   0.001562 0.500001 0.159507 0.026177
C55   C     C_R   0.656731 0.999992 0.365985 0.082703
C56   C     C_R   0.232650 0.214678 0.022036 0.032588
C57   C     C_R   0.156731 0.499992 0.365985 0.082703
C58   C     C_R   0.659301 0.296318 0.130143 0.393107
C59   C     C_R   0.659440 0.703862 0.130411 0.393118
C60   C     C_R   0.159301 0.796318 0.130143 0.393107
C61   C     C_R   0.159440 0.203862 0.130411 0.393118
C62   C     C_R   0.310817 0.847554 0.245598 -0.228118
C63   C     C_R   0.310853 0.152475 0.245638 -0.228078
C64   C     C_R   0.810817 0.347554 0.245598 -0.228118
C65   C     C_R   0.810853 0.652475 0.245638 -0.228078
C66   C     C_R   0.742500 0.180253 0.726691 -0.167508
C67   C     C_R   0.732662 0.285331 0.022028 0.032585
C68   C     C_R   0.742394 0.819666 0.726526 -0.167457
C69   C     C_R   0.242500 0.680253 0.726691 -0.167507
C70   C     C_R   0.242394 0.319666 0.726525 -0.167457
C71   C     C_R   0.306772 0.733315 0.812083 -0.133850
C72   C     C_R   0.306640 0.266585 0.811877 -0.133683
C73   C     C_R   0.806772 0.233315 0.812082 -0.133850
C74   C     C_R   0.806640 0.766585 0.811877 -0.133683
C75   C     C_R   0.303774 0.769918 0.907613 -0.162802
C76   C     C_R   0.303673 0.230011 0.907465 -0.162692
C77   C     C_R   0.803774 0.269918 0.907613 -0.162803
C78   C     C_R   0.732650 0.714678 0.022036 0.032588
C79   C     C_R   0.803674 0.730011 0.907465 -0.162692
C80   C     C_R   0.733185 0.256027 0.915633 0.105022
C81   C     C_R   0.733132 0.743946 0.915575 0.104974
C82   C     C_R   0.233185 0.756027 0.915633 0.105022
C83   C     C_R   0.233132 0.243946 0.915575 0.104974
C84   C     C_R   0.660826 0.209544 0.814379 0.087770
C85   C     C_R   0.660789 0.790449 0.814361 0.087742
C86   C     C_R   0.160826 0.709544 0.814379 0.087770
C87   C     C_R   0.160789 0.290449 0.814361 0.087742
C88   C     C_2   0.247996 0.839622 0.376249 0.508223
C89   C     C_R   0.656252 0.273845 0.017416 0.029891
C90   C     C_2   0.248236 0.160589 0.376560 0.508161
C91   C     C_2   0.747996 0.339622 0.376249 0.508223
C92   C     C_2   0.748236 0.660589 0.376560 0.508161
Cu1   Cu    Cu3+1 0.526340 1.000000 0.421010 0.954547
Cu2   Cu    Cu3+1 0.026340 0.500000 0.421010 0.954547
Cu3   Cu    Cu3+1 0.473640 1.000000 0.578990 0.954698
Cu4   Cu    Cu3+1 0.973640 0.500000 0.578990 0.954698
H1    H     H_    0.724467 0.999980 0.115124 0.155796
H2    H     H_    0.735516 0.500037 0.645425 0.166267
H3    H     H_    0.620987 0.999994 0.869351 0.207658
H4    H     H_    0.120987 0.499994 0.869351 0.207658
H5    H     H_    0.518724 0.228832 0.891566 0.144862
H6    H     H_    0.518822 0.771336 0.891836 0.144828
H7    H     H_    0.018724 0.728832 0.891566 0.144862
H8    H     H_    0.018822 0.271336 0.891836 0.144828
H9    H     H_    0.367121 0.832582 0.143640 0.177488
H10   H     H_    0.367007 0.167268 0.143414 0.177458
H11   H     H_    0.867121 0.332582 0.143640 0.177488
H12   H     H_    0.224467 0.499980 0.115124 0.155796
H13   H     H_    0.867007 0.667268 0.143414 0.177458
H14   H     H_    0.750186 0.149334 0.660033 0.154383
H15   H     H_    0.750060 0.850563 0.659824 0.154439
H16   H     H_    0.250186 0.649334 0.660033 0.154383
H17   H     H_    0.250060 0.350563 0.659824 0.154439
H18   H     H_    0.356805 0.809576 0.971448 0.136958
H19   H     H_    0.356700 0.190349 0.971281 0.136933
H20   H     H_    0.856805 0.309576 0.971447 0.136958
H21   H     H_    0.856700 0.690349 0.971282 0.136933
H22   H     H_    0.361186 0.744455 0.807541 0.127779
H23   H     H_    0.758608 0.999980 0.339958 0.139173
H24   H     H_    0.361018 0.255412 0.807265 0.127830
H25   H     H_    0.861186 0.244455 0.807541 0.127778
H26   H     H_    0.861018 0.755412 0.807266 0.127830
H27   H     H_    0.518250 0.183582 0.712469 0.164715
H28   H     H_    0.518245 0.816459 0.712567 0.164765
H29   H     H_    0.018250 0.683582 0.712469 0.164716
H30   H     H_    0.018245 0.316459 0.712567 0.164765
H31   H     H_    0.706347 0.999991 0.478752 0.116111
H32   H     H_    0.206347 0.499991 0.478752 0.116111
H33   H     H_    0.314098 0.834535 0.478913 0.042486
H34   H     H_    0.258608 0.499980 0.339958 0.139173
H35   H     H_    0.314388 0.165642 0.479167 0.042340
H36   H     H_    0.814098 0.334535 0.478913 0.042486
H37   H     H_    0.814388 0.665642 0.479167 0.042340
H38   H     H_    0.219860 0.000079 0.448058 0.339010
H39   H     H_    0.719860 0.500079 0.448058 0.339010
H40   H     H_    0.530801 0.300006 0.040077 0.311978
H41   H     H_    0.530970 0.700336 0.040576 0.311966
H42   H     H_    0.030801 0.800006 0.040077 0.311978
H43   H     H_    0.030970 0.200336 0.040576 0.311966
H44   H     H_    0.431014 0.000006 0.116313 0.120363
H45   H     H_    0.931014 0.500006 0.116313 0.120363
H46   H     H_    0.337187 0.000015 0.895753 0.156844
H47   H     H_    0.837187 0.500015 0.895753 0.156844
H48   H     H_    0.235516 0.000037 0.645425 0.166267
N1    N     N_R   0.566260 1.000000 0.302220 -0.177362
N2    N     N_R   0.066260 0.500000 0.302220 -0.177362
N3    N     N_R   0.434410 1.000000 0.697680 -0.227506
N4    N     N_R   0.934410 0.500000 0.697680 -0.227506
O1    O     O_R   0.608610 0.924520 0.551740 -0.576098
O2    O     O_R   0.435880 0.924530 0.314850 -0.578577
O3    O     O_R   0.935880 0.575470 0.314850 -0.578620
O4    O     O_R   0.935880 0.424530 0.314850 -0.578577
O5    O     O_R   0.391380 0.075460 0.448260 -0.558858
O6    O     O_R   0.391380 0.924540 0.448260 -0.558961
O7    O     O_R   0.891380 0.575460 0.448260 -0.558858
O8    O     O_R   0.891380 0.424540 0.448260 -0.558961
O9    O     O_2   0.181561 0.853154 0.368557 -0.501004
O10   O     O_2   0.181839 0.147148 0.369020 -0.501023
O11   O     O_2   0.681561 0.353154 0.368557 -0.501004
O12   O     O_R   0.608610 0.075480 0.551740 -0.576100
O13   O     O_2   0.681839 0.647148 0.369019 -0.501023
O14   O     O_3   0.283880 0.000044 0.483404 -0.690063
O15   O     O_3   0.783880 0.500044 0.483404 -0.690063
O16   O     O_3   0.587442 0.283062 0.130552 -0.688158
O17   O     O_3   0.587679 0.717245 0.131003 -0.688165
O18   O     O_3   0.087442 0.783062 0.130552 -0.688158
O19   O     O_3   0.087679 0.217245 0.131003 -0.688165
O20   O     O_R   0.108610 0.424520 0.551740 -0.576098
O21   O     O_R   0.108610 0.575480 0.551740 -0.576100
O22   O     O_R   0.564110 0.924510 0.685150 -0.608634
O23   O     O_R   0.564110 0.075490 0.685150 -0.608617
O24   O     O_R   0.064110 0.424510 0.685150 -0.608634
O25   O     O_R   0.064110 0.575490 0.685150 -0.608617
O26   O     O_R   0.435880 0.075470 0.314850 -0.578620

loop_
_geom_bond_atom_site_label_1
_geom_bond_atom_site_label_2
_ccdc_geom_bond_type
C92   O13   D    
Cu2   N2    S    
C83   C87   A    
C13   C87   A    
C10   C85   A    
C90   O10   D    
C8    C13   A    
C28   H34   S    
C53   H44   S    
C38   H46   S    
C1    O22   A    
C5    C89   A    
Cu1   O1    S    
C92   H37   S    
C35   O6    A    
C80   C84   A    
C58   O16   S    
C32   C39   A    
C57   H32   S    
H41   O17   S    
C39   C41   A    
C28   C57   A    
C7    C11   A    
C88   H33   S    
C15   H10   S    
C11   H29   S    
C21   C59   A    
C10   H28   S    
Cu2   O21   S    
C69   H16   S    
C33   O5    A    
C43   C52   A    
C55   N1    A    
Cu4   O7    S    
C11   C86   A    
C68   C74   A    
C14   C62   A    
C12   C22   S    
Cu1   O26   S    
C67   C89   A    
C76   H19   S    
C23   C26   S    
C31   H48   S    
C69   C71   A    
C22   C66   A    
C43   N4    A    
C16   H11   S    
C44   C53   A    
C14   H9    S    
C23   O24   A    
C45   C82   A    
C19   C63   A    
C26   C87   A    
C49   C51   A    
C50   C52   A    
C41   C46   A    
C1    O1    A    
C35   O2    A    
C12   O23   A    
C77   H20   S    
C24   C85   A    
C91   O11   D    
C59   O17   S    
C44   C47   A    
C4    C8    A    
C42   C51   A    
C54   N2    A    
C3    C60   A    
C40   C42   A    
Cu1   Cu3   S    
C7    H7    S    
C57   N2    A    
C4    C56   A    
C50   H12   S    
C41   C43   A    
C37   O8    A    
C72   H24   S    
Cu1   O2    S    
C2    C6    A    
H39   O15   S    
C30   O15   S    
C42   N3    A    
C76   C83   A    
C58   C89   A    
C14   C45   A    
C46   C48   A    
C70   H17   S    
C51   H3    S    
Cu4   N4    S    
C20   C91   S    
C5    H5    S    
C71   C75   A    
Cu4   O25   S    
C30   C32   A    
Cu3   N3    S    
C47   C49   A    
Cu2   O20   S    
C79   C81   A    
C2    C59   A    
C18   C62   A    
C91   H36   S    
Cu2   O3    S    
C82   C86   A    
C66   C73   A    
C4    C61   A    
C3    C45   A    
C60   O18   S    
H38   O14   S    
C61   O19   S    
C68   H15   S    
C22   C84   A    
C20   C64   A    
Cu1   O12   S    
Cu2   Cu4   S    
C5    C9    A    
C2    C78   A    
C29   N3    A    
C33   C63   S    
C46   C54   A    
C53   N1    A    
C72   C76   A    
C36   O3    A    
C16   C67   A    
C88   O9    D    
C12   O12   A    
H43   O19   S    
C33   O26   A    
C8    H8    S    
C34   O21   A    
C13   H30   S    
C18   C60   A    
C17   C65   A    
C74   H26   S    
C39   H47   S    
C73   H25   S    
C74   C79   A    
C26   C70   A    
C25   C86   A    
Cu1   N1    S    
C25   C69   A    
C90   H35   S    
C37   O4    A    
C20   C58   A    
C37   C64   S    
C56   C83   A    
H40   O16   S    
C77   C80   A    
C27   C47   A    
C28   C48   A    
C73   C77   A    
C71   H22   S    
C21   C65   A    
C36   C65   S    
C75   H18   S    
C29   O14   S    
C67   C80   A    
C55   H31   S    
C17   H13   S    
C6    C10   A    
C75   C82   A    
C30   N4    A    
C27   H23   S    
C25   C34   S    
C3    C7    A    
C31   C38   A    
H42   O18   S    
Cu3   O6    S    
C15   C56   A    
C29   C31   A    
C34   O25   A    
C38   C40   A    
C78   C81   A    
Cu4   O8    S    
Cu3   O23   S    
C19   C61   A    
C79   H21   S    
C48   C50   A    
C17   C78   A    
C9    H27   S    
C32   H2    S    
C35   C62   S    
C27   C55   A    
C6    H6    S    
Cu3   O22   S    
C18   C88   S    
C24   C68   A    
C9    C84   A    
C49   H1    S    
C23   O20   A    
C40   C44   A    
C54   H45   S    
C66   H14   S    
C1    C24   S    
Cu4   O24   S    
C19   C90   S    
C52   H4    S    
C15   C63   A    
C70   C72   A    
C16   C64   A    
Cu3   O5    S    
Cu2   O4    S    
C81   C85   A    
C36   O7    A    
C21   C92   S    
