data_mof_unit_20531.cif
_audit_creation_date              2012-12-10T19:28:27-0500
_audit_creation_method            fapswitch 2.2
_symmetry_space_group_name_H-M    P1
_symmetry_Int_Tables_number       1
_space_group_crystal_system       triclinic
_cell_length_a                    27.739704
_cell_length_b                    10.513029
_cell_length_c                    9.73826
_cell_angle_alpha                 90.518382
_cell_angle_beta                  89.983702
_cell_angle_gamma                 89.894633
_cell_volume                      2839.83116685

loop_
_atom_site_label
_atom_site_type_symbol
_atom_type_description
_atom_site_fract_x
_atom_site_fract_y
_atom_site_fract_z
_atom_type_partial_charge
C1    C     C_R   0.500024 0.257662 0.499187 0.875706
C2    C     C_R   0.499920 0.742342 0.500809 0.883464
C3    C     C_R   0.102058 0.519258 0.518167 -0.136319
C4    C     C_R   0.898276 0.507157 0.491680 -0.135986
C5    C     C_R   0.127199 0.425005 0.593090 -0.023935
C6    C     C_R   0.872419 0.613026 0.440396 -0.020341
C7    C     C_R   0.101009 0.332502 0.665826 0.143621
C8    C     C_R   0.897834 0.721239 0.395941 0.141582
C9    C     C_R   0.127985 0.614658 0.447647 -0.024505
C10   C     C_R   0.873102 0.397907 0.536753 -0.020929
C11   C     C_R   0.353450 0.500826 0.500753 -0.091950
C12   C     C_R   0.646669 0.503776 0.499900 -0.082440
C13   C     C_R   0.974845 0.408211 0.557658 0.044415
C14   C     C_R   0.025742 0.615136 0.443921 0.043421
C15   C     C_R   0.974620 0.616845 0.446564 0.044993
C16   C     C_R   0.025369 0.417200 0.575635 0.043751
C17   C     C_R   0.949341 0.510701 0.498460 0.068023
C18   C     C_R   0.050960 0.517423 0.512850 0.068924
C19   C     C_R   0.949191 0.298268 0.594669 -0.283971
C20   C     C_R   0.052443 0.707217 0.372431 -0.279263
C21   C     C_R   0.899227 0.292115 0.585071 0.143010
C22   C     C_R   0.102597 0.708174 0.373782 0.142462
C23   C     C_R   0.406137 0.498780 0.499829 0.866131
C24   C     C_R   0.593903 0.501426 0.500161 0.891744
C25   C     C_R   0.050990 0.329742 0.656575 -0.280352
C26   C     C_R   0.947970 0.722184 0.400000 -0.283650
C27   C     C_3   0.540087 0.043544 0.564312 -0.208108
C28   C     C_3   0.459791 0.956460 0.435669 -0.213345
C29   C     C_3   0.539936 0.955714 0.434927 -0.249771
C30   C     C_3   0.459942 0.044306 0.565049 -0.255914
C31   C     C_3   0.499903 0.876961 0.502198 -0.016015
C32   C     C_3   0.499979 0.123049 0.497785 -0.015339
C33   C     C_3   0.500038 0.963286 0.628421 0.183374
C34   C     C_3   0.499839 0.036728 0.371560 0.180457
C35   C     C_3   0.472100 0.412013 0.047908 -0.072546
C36   C     C_3   0.527902 0.587983 0.952093 -0.060258
C37   C     C_3   0.514944 0.392084 0.950258 -0.068200
C38   C     C_3   0.485057 0.607915 0.049742 -0.080200
C39   C     C_3   0.457109 0.519954 0.951734 -0.084350
C40   C     C_3   0.542891 0.480044 0.048264 -0.077093
C41   C     C_R   0.177863 0.426437 0.591846 0.534801
C42   C     C_R   0.821778 0.607736 0.438361 0.509658
C43   C     C_R   0.178645 0.611153 0.451077 0.540163
C44   C     C_R   0.822460 0.398774 0.532261 0.509922
C45   C     C_R   0.280433 0.566957 0.617372 -0.151122
C46   C     C_R   0.721071 0.460187 0.378445 -0.117534
C47   C     C_R   0.330288 0.561701 0.611429 -0.245360
C48   C     C_R   0.671135 0.460059 0.382422 -0.269995
C49   C     C_R   0.325743 0.442716 0.395184 0.023485
C50   C     C_R   0.672975 0.549630 0.614370 0.088771
C51   C     C_R   0.275301 0.448131 0.402558 0.155449
C52   C     C_R   0.723475 0.549348 0.609922 0.094834
C53   C     C_R   0.253094 0.510898 0.513326 0.291011
C54   C     C_R   0.747186 0.504200 0.491440 0.267661
H1    H     H_    0.527519 0.301260 0.903353 0.122204
H2    H     H_    0.472482 0.698739 0.096648 0.124118
H3    H     H_    0.448696 0.337970 0.093543 0.130707
H4    H     H_    0.551336 0.661964 0.906463 0.140043
H5    H     H_    0.421009 0.536863 0.906155 0.125442
H6    H     H_    0.578994 0.463153 0.093820 0.121677
H7    H     H_    0.651623 0.424445 0.293781 0.166553
H8    H     H_    0.350840 0.606777 0.692951 0.163457
H9    H     H_    0.967199 0.212841 0.627771 0.138663
H10   H     H_    0.035437 0.778079 0.309396 0.139073
H11   H     H_    0.032929 0.259442 0.717962 0.139856
H12   H     H_    0.964992 0.809683 0.369855 0.137337
H13   H     H_    0.571830 0.916199 0.380290 0.151204
H14   H     H_    0.428047 0.083840 0.619665 0.149917
N1    N     N_R   0.201853 0.517298 0.520424 -0.354989
N2    N     N_R   0.798510 0.503007 0.485788 -0.365378
N3    N     N_3   0.499960 0.500030 0.863290 -0.074584
N4    N     N_3   0.500040 0.499970 0.136710 -0.075087
O1    O     O_R   0.500000 0.313960 0.616610 -0.628498
O2    O     O_R   0.500000 0.686040 0.383390 -0.627259
O3    O     O_R   0.500020 0.313950 0.383350 -0.614543
O4    O     O_R   0.499980 0.686050 0.616650 -0.611391
O5    O     O_R   0.428750 0.500030 0.616610 -0.622537
O6    O     O_R   0.571250 0.499970 0.383390 -0.631480
O7    O     O_R   0.428770 0.500020 0.383360 -0.627947
O8    O     O_R   0.571230 0.499980 0.616640 -0.592974
O9    O     O_2   0.203398 0.337141 0.659113 -0.529026
O10   O     O_2   0.795527 0.706191 0.390939 -0.526575
O11   O     O_2   0.796869 0.297687 0.575481 -0.528091
O12   O     O_2   0.204962 0.699511 0.385153 -0.530208
Zn1   Zn    Zn3+2 0.499990 0.500010 0.655740 0.951563
Zn2   Zn    Zn3+2 0.500010 0.499990 0.344260 0.937525
N5    N     N_3   0.347542 0.374875 0.282620 -0.472758
H15   H     H_    0.371741 0.307714 0.321192 0.197853
H16   H     H_    0.365945 0.439346 0.220760 0.211723
N6    N     N_3   0.648508 0.599054 0.733298 -0.435877
H17   H     H_    0.659198 0.693443 0.748634 0.200209
H18   H     H_    0.659253 0.546354 0.818573 0.199060
H19   H     H_    0.572103 0.082612 0.618423 0.147235
H20   H     H_    0.427774 0.917389 0.381566 0.147530
N7    N     N_3   0.500493 0.919712 0.770023 -0.451273
H21   H     H_    0.501638 0.000513 0.833236 0.169919
H22   H     H_    0.467436 0.875543 0.788631 0.185514
N8    N     N_3   0.499374 0.080308 0.229961 -0.453435
H23   H     H_    0.498205 0.999512 0.166745 0.170277
H24   H     H_    0.532436 0.124436 0.211318 0.187100
N9    N     N_3   0.246030 0.390054 0.298244 -0.446099
H25   H     H_    0.254968 0.430476 0.203921 0.209840
H26   H     H_    0.254428 0.293124 0.293555 0.210974
N10   N     N_3   0.750279 0.595587 0.725896 -0.473199
H27   H     H_    0.771958 0.670920 0.693837 0.206660
H28   H     H_    0.772725 0.522565 0.760317 0.202717
N11   N     N_3   0.124653 0.240199 0.750077 -0.376045
H29   H     H_    0.115356 0.149519 0.713990 0.185653
H30   H     H_    0.111547 0.250003 0.850323 0.180513
N12   N     N_3   0.873256 0.832018 0.346811 -0.370544
H31   H     H_    0.884994 0.849547 0.246705 0.183959
H32   H     H_    0.883209 0.909583 0.408392 0.176802
H33   H     H_    0.739642 0.425698 0.287595 0.148955
H34   H     H_    0.262889 0.614908 0.702709 0.151027
N13   N     N_3   0.875578 0.177035 0.625084 -0.372341
H35   H     H_    0.884291 0.159031 0.727565 0.184326
H36   H     H_    0.889257 0.102319 0.565075 0.172202
N14   N     N_3   0.127216 0.804805 0.298091 -0.375515
H37   H     H_    0.116012 0.893596 0.335546 0.183405
H38   H     H_    0.116780 0.797557 0.195139 0.182821

loop_
_geom_bond_atom_site_label_1
_geom_bond_atom_site_label_2
_ccdc_geom_bond_type
N5    H15   S    
N9    H25   S    
C40   H6    S    
C27   C29   S    
C8    C26   A    
C14   C18   A    
C11   C47   A    
N7    H21   S    
C42   O10   S    
C21   N13   S    
C44   O11   S    
C53   N1    S    
C47   H8    S    
N10   H28   S    
C48   H7    S    
C27   C33   S    
C11   C49   A    
C35   C37   S    
C37   C40   S    
C36   H4    S    
C38   C39   S    
C9    C22   A    
N13   H35   S    
C42   N2    A    
C3    C18   A    
C28   H20   S    
C49   N5    S    
N14   H37   S    
N12   H32   S    
C24   O8    A    
C29   H13   S    
C45   H34   S    
C50   N6    S    
C19   H9    S    
N13   H36   S    
C50   C52   A    
N11   H29   S    
C31   C33   S    
C44   N2    A    
C46   H33   S    
C36   N3    S    
C12   C48   A    
O6    Zn2   S    
C39   H5    S    
N9    H26   S    
N3    Zn1   S    
C43   O12   S    
N11   H30   S    
C33   N7    S    
N10   H27   S    
C52   C54   A    
C46   C48   A    
C45   C47   A    
C10   C21   A    
C38   N4    S    
C9    C43   A    
C13   C19   A    
C10   C44   A    
C1    O3    A    
C14   C20   A    
C36   C40   S    
C25   H11   S    
C4    C6    A    
C5    C7    A    
C15   C26   A    
C6    C8    A    
C49   C51   A    
C29   C34   S    
C1    C32   S    
O2    Zn2   S    
N12   H31   S    
C2    C31   S    
C51   C53   A    
C26   H12   S    
C20   H10   S    
C35   C39   S    
O8    Zn1   S    
C3    C9    A    
C8    N12   S    
O3    Zn2   S    
N6    H18   S    
C54   N2    S    
C41   O9    S    
C46   C54   A    
C23   O5    A    
O1    Zn1   S    
C4    C17   A    
C24   O6    A    
C20   C22   A    
C35   N4    S    
N8    H24   S    
C37   N3    S    
C7    N11   S    
C27   H19   S    
C4    C10   A    
C36   C38   S    
C2    O4    A    
C41   N1    A    
C16   C25   A    
C22   N14   S    
C5    C41   A    
C52   N10   S    
C40   N4    S    
C30   C33   S    
C19   C21   A    
C27   C32   S    
C28   C31   S    
C3    C5    A    
C2    O2    A    
C12   C50   A    
N7    H22   S    
C15   C17   A    
N4    Zn2   S    
C51   N9    S    
C12   C24   S    
C7    C25   A    
C13   C17   A    
C35   H3    S    
C1    O1    A    
C28   C30   S    
C29   C31   S    
C30   C32   S    
N6    H17   S    
O5    Zn1   S    
C11   C23   S    
C34   N8    S    
C28   C34   S    
N14   H38   S    
C45   C53   A    
C37   H1    S    
C38   H2    S    
C16   C18   A    
N8    H23   S    
C6    C42   A    
C13   C16   A    
N5    H16   S    
C39   N3    S    
C14   C15   A    
C23   O7    A    
C43   N1    A    
O4    Zn1   S    
O7    Zn2   S    
C30   H14   S    
C32   C34   S    
