data_mof_unit_60230.cif
_audit_creation_date              2012-12-11T14:24:02-0500
_audit_creation_method            fapswitch 2.2
_symmetry_space_group_name_H-M    P1
_symmetry_Int_Tables_number       1
_space_group_crystal_system       triclinic
_cell_length_a                    6.947581
_cell_length_b                    17.470262
_cell_length_c                    18.879654
_cell_angle_alpha                 105.265145
_cell_angle_beta                  89.72625
_cell_angle_gamma                 90.474688
_cell_volume                      2210.60355854

loop_
_atom_site_label
_atom_site_type_symbol
_atom_type_description
_atom_site_fract_x
_atom_site_fract_y
_atom_site_fract_z
_atom_type_partial_charge
O1    O     O_R   0.494360 0.416740 0.414860 -0.536102
O2    O     O_R   0.818980 0.432970 0.557290 -0.523886
O3    O     O_R   0.994290 0.583260 0.585140 -0.535225
C1    C     C_R   0.649999 0.416021 0.580696 0.715304
O4    O     O_R   0.823740 0.407570 0.413690 -0.536088
O5    O     O_R   0.999090 0.557670 0.440510 -0.522478
C2    C     C_R   0.654008 0.384375 0.387411 0.731651
O6    O     O_R   0.489560 0.442330 0.559490 -0.521473
O7    O     O_3   0.662450 0.549280 0.508970 -0.367455
V1    V     V_3+5 0.935350 0.490860 0.498340 1.420096
O8    O     O_R   0.329100 0.567030 0.442710 -0.523720
C3    C     C_R   0.160945 0.584077 0.419388 0.718965
O9    O     O_R   0.324330 0.592430 0.586310 -0.552880
C4    C     C_R   0.154487 0.613373 0.614852 0.641599
V2    V     V_3+5 0.435960 0.509140 0.501660 1.401925
O10   O     O_3   0.158990 0.450720 0.491030 -0.356911
C5    C     C_2   0.275228 0.790250 0.782621 -0.092475
C6    C     C_2   0.112318 0.823141 0.815991 -0.259998
H1    H     H_    0.413678 0.812008 0.806384 0.124256
H2    H     H_    0.974517 0.806545 0.789848 0.161032
C7    C     C_2   0.277471 0.729135 0.710344 -0.231763
C8    C     C_2   0.137978 0.673829 0.687255 0.314759
H3    H     H_    0.401851 0.729606 0.675394 0.085193
C9    C     C_1   0.110688 0.863973 0.132691 -0.204841
C10   C     C_1   0.118259 0.821419 0.176264 0.007204
C11   C     C_1   0.127782 0.771201 0.228147 0.002587
C12   C     C_1   0.135925 0.728904 0.271933 0.000114
C13   C     C_1   0.145451 0.678671 0.323803 0.000293
C14   C     C_1   0.153028 0.636085 0.367349 -0.217007
C15   C     C_1   0.641351 0.364149 0.632783 -0.202394
C16   C     C_1   0.636962 0.321601 0.676386 0.006456
C17   C     C_1   0.633260 0.271386 0.728296 0.002542
C18   C     C_1   0.630456 0.229071 0.772112 -0.000005
C19   C     C_1   0.626758 0.178814 0.823984 -0.002023
C20   C     C_1   0.622377 0.136187 0.867518 -0.218181
C21   C     C_2   0.772385 0.205858 0.222973 -0.123835
C22   C     C_2   0.619546 0.188350 0.175752 0.275075
C23   C     C_2   0.786592 0.279878 0.283936 -0.145589
C24   C     C_2   0.635750 0.313575 0.324797 -0.281223
H4    H     H_    0.929700 0.304457 0.298544 0.145334
H5    H     H_    0.493312 0.287343 0.314210 0.191747
O11   O     O_R   0.774180 0.057760 0.940580 -0.524601
O12   O     O_R   0.439830 0.092440 0.086330 -0.506782
O13   O     O_R   0.264640 0.942310 0.059470 -0.520272
C25   C     C_R   0.609307 0.115281 0.113414 0.656976
O14   O     O_R   0.444740 0.067040 0.942730 -0.529567
O15   O     O_R   0.269590 0.916730 0.914840 -0.538162
C26   C     C_R   0.613741 0.084173 0.919477 0.700718
O16   O     O_R   0.769230 0.083340 0.085210 -0.548032
O17   O     O_3   0.601340 0.950770 0.991070 -0.364981
V3    V     V_3+5 0.328370 0.009130 0.001660 1.460376
O18   O     O_R   0.939550 0.907490 0.913620 -0.543353
C27   C     C_R   0.108342 0.886197 0.885743 0.712088
O19   O     O_R   0.934640 0.932890 0.057220 -0.524417
C28   C     C_R   0.102782 0.915920 0.080607 0.749153
V4    V     V_3+5 0.827780 0.990750 0.998250 1.426201
O20   O     O_3   0.104690 0.049230 0.008930 -0.355078
O21   O     O_3   0.995962 0.664998 0.736945 -0.545899
C29   C     C_3   0.809584 0.672696 0.709967 -0.207665
H6    H     H_    0.748472 0.613335 0.682930 0.162789
H7    H     H_    0.804761 0.712283 0.672318 0.101530
H8    H     H_    0.714590 0.699230 0.757316 0.143416
C30   C     C_1   0.938138 0.154488 0.215005 0.292425
N1    N     N_1   0.070926 0.113649 0.208873 -0.328715
O22   O     O_3   0.465134 0.239806 0.184984 -0.543508
C31   C     C_3   0.480723 0.284782 0.133175 -0.225568
H9    H     H_    0.465304 0.246730 0.076080 0.121403
H10   H     H_    0.618989 0.318579 0.139295 0.129834
H11   H     H_    0.362250 0.328534 0.143053 0.159103

loop_
_geom_bond_atom_site_label_1
_geom_bond_atom_site_label_2
_ccdc_geom_bond_type
C8    O21   S    
O2    C1    A    
O8    C3    A    
O19   V4    S    
O5    V1    S    
V3    O20   S    
O15   V3    S    
C3    C14   S    
C5    C7    S    
O16   V4    S    
O17   V4    S    
O7    V1    S    
C31   H10   S    
C16   C17   S    
C25   O16   A    
C1    O6    A    
C10   C11   S    
C17   C18   T    
C4    C8    S    
O9    V2    S    
C5    C6    D    
O7    V2    S    
O22   C31   S    
O4    V1    S    
C24   H5    S    
O3    V1    S    
V1    O10   S    
O9    C4    A    
O18   C27   A    
C9    C28   S    
C23   H4    S    
O12   C25   A    
O13   C28   A    
O12   V3    S    
C11   C12   T    
C23   C24   D    
O3    C4    A    
O1    C2    A    
O1    V2    S    
O15   C27   A    
O13   V3    S    
C21   C23   S    
C21   C22   D    
C5    H1    S    
C18   C19   S    
C31   H9    S    
O6    V2    S    
C6    H2    S    
C7    H3    S    
O5    C3    A    
C15   C16   T    
O14   C26   A    
C29   H7    S    
C31   H11   S    
V4    O20   S    
C20   C26   S    
C22   C25   S    
V2    O10   S    
C21   C30   S    
O18   V4    S    
C29   H6    S    
C9    C10   T    
C19   C20   T    
C12   C13   S    
O4    C2    A    
C2    C24   S    
O19   C28   A    
C13   C14   T    
C29   H8    S    
O11   C26   A    
O17   V3    S    
C6    C27   S    
O11   V4    S    
O21   C29   S    
C7    C8    D    
O8    V2    S    
O14   V3    S    
C1    C15   S    
C30   N1    T    
C22   O22   S    
O2    V1    S    
