data_mof_unit_61788.cif
_audit_creation_date              2012-12-10T18:19:55-0500
_audit_creation_method            fapswitch 2.2
_symmetry_space_group_name_H-M    P1
_symmetry_Int_Tables_number       1
_space_group_crystal_system       triclinic
_cell_length_a                    10.648876
_cell_length_b                    10.715042
_cell_length_c                    9.563441
_cell_angle_alpha                 89.856703
_cell_angle_beta                  89.142757
_cell_angle_gamma                 89.30429
_cell_volume                      1091.01327389

loop_
_atom_site_label
_atom_site_type_symbol
_atom_type_description
_atom_site_fract_x
_atom_site_fract_y
_atom_site_fract_z
_atom_type_partial_charge
C1    C     C_R   0.496608 0.260200 0.499824 0.930211
C2    C     C_R   0.503392 0.739800 0.500176 0.930211
C3    C     C_3   0.531600 0.960507 0.627797 0.224963
C4    C     C_3   0.468400 0.039493 0.372203 0.224963
C5    C     C_3   0.497175 0.611809 0.048875 0.331597
C6    C     C_3   0.502825 0.388190 0.951125 0.331597
C7    C     C_3   0.401384 0.554186 0.951430 0.316707
C8    C     C_3   0.598616 0.445814 0.048570 0.316707
C9    C     C_3   0.596529 0.557630 0.948312 0.189511
C10   C     C_3   0.403471 0.442370 0.051688 0.189512
C11   C     C_R   0.260112 0.502315 0.500533 0.903742
C12   C     C_R   0.739888 0.497685 0.499467 0.903743
C13   C     C_3   0.038254 0.548052 0.622201 -0.248121
C14   C     C_3   0.961746 0.451948 0.377799 -0.248121
C15   C     C_3   0.959523 0.428947 0.606138 0.268845
C16   C     C_3   0.040477 0.571053 0.393862 0.268845
C17   C     C_3   0.876649 0.497166 0.499534 -0.272593
C18   C     C_3   0.123351 0.502834 0.500466 -0.272593
C19   C     C_3   0.954357 0.615394 0.514723 0.354985
C20   C     C_3   0.045643 0.384606 0.485277 0.354985
C21   C     C_3   0.611967 0.044371 0.531833 0.281231
C22   C     C_3   0.388033 0.955629 0.468167 0.281231
C23   C     C_3   0.585774 0.959828 0.405703 0.200428
C24   C     C_3   0.414226 0.040172 0.594297 0.200428
C25   C     C_3   0.504933 0.876470 0.501370 -0.388272
C26   C     C_3   0.495067 0.123530 0.498630 -0.388272
Cu1   Cu    Cu3+1 0.500030 0.499990 0.643150 1.130494
Cu2   Cu    Cu3+1 0.499970 0.500010 0.356850 1.130494
H1    H     H_    0.067069 0.588688 0.722744 0.272373
H2    H     H_    0.932930 0.411312 0.277256 0.272373
N1    N     N_3   0.500090 0.499970 0.858290 -0.313483
N2    N     N_3   0.499910 0.500030 0.141710 -0.313484
O1    O     O_R   0.500060 0.316850 0.620870 -0.526832
O2    O     O_R   0.499940 0.683150 0.379130 -0.526832
O3    O     O_R   0.500000 0.316860 0.379090 -0.542799
O4    O     O_R   0.500000 0.683140 0.620910 -0.542799
O5    O     O_R   0.316880 0.499960 0.620870 -0.547920
O6    O     O_R   0.683120 0.500040 0.379130 -0.547920
O7    O     O_R   0.316830 0.499970 0.379090 -0.542684
O8    O     O_R   0.683170 0.500030 0.620910 -0.542684
Br1   Br    Br    0.907695 0.329499 0.765782 -0.144784
Br2   Br    Br    0.092304 0.670501 0.234218 -0.144784
Cl1   Cl    Cl    0.893652 0.769389 0.539225 -0.366187
Cl2   Cl    Cl    0.106348 0.230610 0.460775 -0.366187
Br3   Br    Br    0.715687 0.909265 0.272287 -0.113876
Br4   Br    Br    0.284313 0.090734 0.727713 -0.113876
Cl3   Cl    Cl    0.762790 0.103340 0.571403 -0.329975
Cl4   Cl    Cl    0.237210 0.896660 0.428597 -0.329975
Br5   Br    Br    0.583078 0.914092 0.813225 -0.106114
Br6   Br    Br    0.416922 0.085908 0.186775 -0.106115
Cl5   Cl    Cl    0.268584 0.637529 0.887543 -0.405446
Cl6   Cl    Cl    0.731416 0.362471 0.112457 -0.405446
Cl7   Cl    Cl    0.476882 0.768261 0.105504 -0.349497
Cl8   Cl    Cl    0.523118 0.231739 0.894496 -0.349496
Br7   Br    Br    0.748334 0.638702 0.883270 -0.206503
Br8   Br    Br    0.251666 0.361298 0.116729 -0.206503

loop_
_geom_bond_atom_site_label_1
_geom_bond_atom_site_label_2
_ccdc_geom_bond_type
C12   C17   S    
C12   O8    A    
C7    C10   S    
C22   Cl4   S    
C21   C26   S    
C5    C7    S    
C11   C18   S    
C5    C9    S    
C23   Br3   S    
C14   C16   S    
C10   N2    S    
Cu1   O4    S    
C4    C22   S    
C8    Cl6   S    
C4    C26   S    
C13   C15   S    
Cu2   O6    S    
Cu1   O8    S    
C5    N2    S    
C24   Br4   S    
C2    O2    A    
C23   C25   S    
C6    N1    S    
C3    Br5   S    
C7    Cl5   S    
C16   C18   S    
Cu1   O1    S    
C11   O7    A    
C14   C17   S    
C15   Br1   S    
C3    C24   S    
C15   C20   S    
C13   C18   S    
Cu1   O5    S    
C16   C19   S    
C9    Br7   S    
C13   H1    S    
C17   C19   S    
C19   Cl1   S    
C6    Cl8   S    
C2    C25   S    
C18   C20   S    
C2    O4    A    
C21   C23   S    
C12   O6    A    
C1    C26   S    
C24   C26   S    
C22   C24   S    
C3    C21   S    
C7    N1    S    
C6    C10   S    
C13   C19   S    
Cu2   O2    S    
C8    N2    S    
C14   C20   S    
Cu2   N2    S    
C3    C25   S    
C10   Br8   S    
C1    O3    A    
C11   O5    A    
C5    Cl7   S    
Cu1   Cu2   S    
C15   C17   S    
C4    C23   S    
C9    N1    S    
C6    C8    S    
Cu2   O7    S    
C20   Cl2   S    
C14   H2    S    
C16   Br2   S    
Cu1   N1    S    
C1    O1    A    
Cu2   O3    S    
C4    Br6   S    
C8    C9    S    
C21   Cl3   S    
C22   C25   S    
