data_mof_unit_22982.cif
_audit_creation_date              2013-03-05T16:06:21-0500
_audit_creation_method            fapswitch 2.2
_symmetry_space_group_name_H-M    P1
_symmetry_Int_Tables_number       1
_space_group_crystal_system       triclinic
_cell_length_a                    10.819682
_cell_length_b                    9.589965
_cell_length_c                    27.822004
_cell_angle_alpha                 90.267751
_cell_angle_beta                  91.841297
_cell_angle_gamma                 89.988062
_cell_volume                      2885.29938723

loop_
_atom_site_label
_atom_site_type_symbol
_atom_site_description
_atom_site_fract_x
_atom_site_fract_y
_atom_site_fract_z
_atom_type_partial_charge
O1    O     O_R   0.319640 0.618740 0.500000 -0.544048
O2    O     O_R   0.680360 0.381260 0.500000 -0.544075
O3    O     O_R   0.680360 0.618740 0.500000 -0.562894
O4    O     O_R   0.319640 0.381260 0.500000 -0.562902
C1    C     C_R   0.262285 0.500008 0.499976 0.825055
C2    C     C_R   0.737715 0.499991 0.500025 0.825018
O5    O     O_R   0.500020 0.618770 0.430260 -0.554654
O6    O     O_R   0.499980 0.381230 0.569740 -0.554630
O7    O     O_R   0.499980 0.618770 0.569740 -0.499969
O8    O     O_R   0.500020 0.381230 0.430260 -0.499963
C3    C     C_R   0.503262 0.499436 0.407618 0.882667
C4    C     C_R   0.496733 0.500564 0.592381 0.882696
Cu1   Cu    Cu3+1 0.500000 0.640660 0.500000 1.093089
Cu2   Cu    Cu3+1 0.500000 0.359340 0.500000 1.093089
C5    C     C_R   0.413117 0.439256 0.177589 0.596997
C6    C     C_R   0.586717 0.560882 0.822408 0.596934
O9    O     O_2   0.321280 0.378779 0.201757 -0.504356
O10   O     O_2   0.678572 0.621334 0.798243 -0.504420
N1    N     N_R   0.508786 0.502007 0.202372 -0.447970
N2    N     N_R   0.491073 0.498089 0.797623 -0.447983
C7    C     C_R   0.603443 0.564472 0.179306 0.619365
C8    C     C_R   0.396398 0.435656 0.820687 0.619470
C9    C     C_R   0.570948 0.392567 0.279263 0.384057
C10   C     C_R   0.428864 0.607402 0.720718 0.384051
C11   C     C_R   0.570854 0.391023 0.329779 0.318802
C12   C     C_R   0.428993 0.608919 0.670203 0.318781
C13   C     C_R   0.450865 0.606010 0.328654 -0.203335
C14   C     C_R   0.549170 0.394082 0.671355 -0.203371
C15   C     C_R   0.451528 0.606942 0.278677 -0.135567
C16   C     C_R   0.548473 0.393175 0.721332 -0.135555
C17   C     C_R   0.510656 0.500452 0.253894 0.200256
C18   C     C_R   0.489232 0.499604 0.746101 0.200266
C19   C     C_R   0.506610 0.500014 0.102193 -0.098393
C20   C     C_R   0.493155 0.500232 0.897802 -0.098437
C21   C     C_R   0.410018 0.437414 0.127208 -0.000180
C22   C     C_R   0.589771 0.562791 0.872789 -0.000144
C23   C     C_R   0.312291 0.374025 0.101639 -0.154623
C24   C     C_R   0.687480 0.626203 0.898360 -0.154654
C25   C     C_R   0.605836 0.562929 0.128560 -0.154508
C26   C     C_R   0.393946 0.437304 0.871432 -0.154498
C27   C     C_R   0.508767 0.498005 0.354745 -0.188746
C28   C     C_R   0.491193 0.502002 0.645252 -0.188699
H1    H     H_    0.403227 0.689011 0.346900 0.237865
H2    H     H_    0.596897 0.311135 0.653118 0.237826
H3    H     H_    0.405361 0.690263 0.259044 0.187251
H4    H     H_    0.594700 0.309924 0.740976 0.187230
H5    H     H_    0.237353 0.324727 0.120117 0.188512
H6    H     H_    0.762430 0.675482 0.879884 0.188367
C29   C     C_R   0.399434 0.435834 0.973936 -0.034647
C30   C     C_R   0.600241 0.564553 0.026058 -0.034759
C31   C     C_R   0.596846 0.564993 0.974836 0.092406
C32   C     C_R   0.402863 0.435330 0.025159 0.092403
C33   C     C_R   0.496227 0.500705 0.949059 0.075671
C34   C     C_R   0.503492 0.499607 0.050935 0.075706
C35   C     C_R   0.301675 0.373699 0.946526 -0.266748
C36   C     C_R   0.697919 0.626843 0.053465 -0.266816
C37   C     C_R   0.295857 0.378239 0.896496 0.499049
C38   C     C_R   0.703845 0.622150 0.103492 0.499502
O11   O     O_2   0.305847 0.371962 0.794368 -0.466086
O12   O     O_2   0.694037 0.628089 0.205625 -0.466054
C39   C     C_R   0.308268 0.373187 0.051822 -0.201335
C40   C     C_R   0.691490 0.627052 0.948176 -0.201317
H7    H     H_    0.226265 0.320098 0.962518 0.164812
H8    H     H_    0.773169 0.680723 0.037471 0.165110
H9    H     H_    0.228432 0.322782 0.035669 0.141827
H10   H     H_    0.771374 0.677352 0.964332 0.141767
C41   C     C_R   0.063837 0.373305 0.499022 -0.124349
C42   C     C_R   0.936163 0.626695 0.500980 -0.124345
C43   C     C_R   0.936029 0.373298 0.498966 -0.104290
C44   C     C_R   0.063971 0.626702 0.501035 -0.104240
H11   H     H_    0.111776 0.274206 0.498266 0.197605
H12   H     H_    0.888224 0.725794 0.501735 0.197605
H13   H     H_    0.887976 0.274209 0.498078 0.201454
H14   H     H_    0.112024 0.725791 0.501924 0.201465
C45   C     C_R   0.871665 0.499991 0.499986 -0.042510
C46   C     C_R   0.128335 0.500009 0.500015 -0.042500
C47   C     C_R   0.421550 0.073800 0.469717 0.384311
C48   C     C_R   0.578449 0.926200 0.530283 0.384273
C49   C     C_R   0.578792 0.074374 0.530148 0.364014
C50   C     C_R   0.421206 0.925626 0.469852 0.364011
N3    N     N_R   0.500000 0.852070 0.500000 -0.275723
N4    N     N_R   0.500000 0.147930 0.500000 -0.275730
Cl1   Cl    Cl    0.319427 0.161167 0.429445 -0.473999
Cl2   Cl    Cl    0.680573 0.838833 0.570555 -0.474020
Cl3   Cl    Cl    0.683663 0.162235 0.569403 -0.528439
Cl4   Cl    Cl    0.316328 0.837766 0.430600 -0.528464
Cl5   Cl    Cl    0.345367 0.741179 0.639197 -0.472440
Cl6   Cl    Cl    0.654388 0.258641 0.360764 -0.472347
Cl7   Cl    Cl    0.353103 0.739878 0.752773 -0.473452
Cl8   Cl    Cl    0.646578 0.260024 0.247189 -0.473308
O13   O     O_3   0.195317 0.317117 0.872662 -0.539704
C51   C     C_3   0.101924 0.418476 0.864000 0.170313
H15   H     H_    0.054407 0.392445 0.829126 0.215235
H16   H     H_    0.137964 0.526960 0.860334 0.139860
C52   C     C_3   0.005863 0.414053 0.902924 -0.857146
H17   H     H_    0.045716 0.454446 0.937506 0.230357
H18   H     H_    0.925760 0.480404 0.892122 0.226673
H19   H     H_    0.973005 0.305481 0.907874 0.272917
O14   O     O_3   0.804275 0.683526 0.127318 -0.539893
C53   C     C_3   0.897937 0.582466 0.135917 0.170818
H20   H     H_    0.861991 0.474159 0.140138 0.140857
H21   H     H_    0.946398 0.609556 0.170498 0.214930
C54   C     C_3   0.992881 0.585662 0.096563 -0.860177
H22   H     H_    0.024797 0.694186 0.090811 0.273031
H23   H     H_    0.073706 0.520533 0.107421 0.227269
H24   H     H_    0.952412 0.543183 0.062396 0.230521

loop_
_geom_bond_atom_site_label_1
_geom_bond_atom_site_label_2
_geom_bond_distance
_ccdc_geom_bond_type
C13   C15   1.390768 A    
C52   H17   1.109781 S    
O3    C2    1.296778 A    
N1    C17   1.433080 S    
C10   Cl7   1.765577 S    
C52   H19   1.110899 S    
C2    C45   1.449330 S    
C42   C45   1.401063 A    
O5    C3    1.304759 A    
C30   C34   1.419021 A    
O1    C1    1.296858 A    
C21   C23   1.393385 A    
C10   C12   1.405634 A    
C32   C39   1.416399 A    
C47   Cl1   1.762701 S    
Cu1   N3    2.027415 S    
C11   Cl6   1.769582 S    
C14   C28   1.403404 A    
O7    Cu1   1.952612 S    
C51   H15   1.110748 S    
C4    C28   1.474110 S    
C12   Cl5   1.769508 S    
C35   H7    1.074033 S    
C44   H14   1.083095 S    
C50   Cl4   1.761354 S    
C36   H8    1.074007 S    
C43   H13   1.083095 S    
C23   H5    1.083700 S    
C24   H6    1.083693 S    
O3    Cu1   1.962684 S    
O6    C4    1.304749 A    
C9    C11   1.405648 A    
C8    O11   1.348756 S    
Cu1   Cu2   2.697849 S    
O2    C2    1.296856 A    
C31   C40   1.416389 A    
C5    C21   1.401058 A    
C32   C34   1.423262 A    
C40   H10   1.074693 S    
C7    O12   1.348748 S    
O8    Cu2   1.952611 S    
C11   C27   1.417515 A    
O13   C51   1.417789 S    
C48   C49   1.421019 A    
C50   N3    1.373767 A    
C29   C35   1.414064 A    
C25   C38   1.408889 A    
C14   H2    1.081553 S    
C51   C52   1.525654 S    
C30   C36   1.414008 A    
C15   H3    1.082928 S    
C42   H12   1.083036 S    
C31   C33   1.423245 A    
C9    C17   1.403960 A    
C5    N1    1.363649 A    
C10   C18   1.403903 A    
C13   H1    1.081592 S    
C13   C27   1.403480 A    
O14   C53   1.417626 S    
C7    C25   1.412930 A    
C6    N2    1.363648 A    
C29   C32   1.424442 A    
C8    C26   1.412944 A    
C51   H16   1.117371 S    
C30   C31   1.424395 A    
C9    Cl8   1.765634 S    
C54   H23   1.109365 S    
C19   C25   1.414323 A    
C6    O10   1.350058 S    
N2    C8    1.365888 A    
C35   C37   1.392214 A    
C44   C46   1.400915 A    
C20   C26   1.414276 A    
O1    Cu1   1.962771 S    
Cu2   N4    2.027415 S    
C49   Cl3   1.761359 S    
C12   C28   1.417446 A    
C53   H21   1.110571 S    
N2    C18   1.433082 S    
C47   C50   1.421018 A    
C19   C34   1.425380 A    
C5    O9    1.350061 S    
O6    Cu2   1.950661 S    
C26   C37   1.408878 A    
C37   O13   1.384526 S    
N1    C7    1.365893 A    
C16   H4    1.082877 S    
C38   O14   1.384536 S    
O4    C1    1.296778 A    
C49   N4    1.373764 A    
C23   C39   1.385276 A    
C52   H18   1.109579 S    
C1    C46   1.449330 S    
C22   C24   1.393367 A    
C15   C17   1.396110 A    
C6    C22   1.401059 A    
C16   C18   1.396070 A    
C48   N3    1.372733 A    
C47   N4    1.372733 A    
C29   C33   1.419054 A    
C14   C16   1.390783 A    
C53   H20   1.117186 S    
C19   C21   1.409933 A    
C20   C22   1.409931 A    
C36   C38   1.392211 A    
C43   C45   1.400916 A    
C54   H24   1.109502 S    
C41   H11   1.083036 S    
C53   C54   1.525657 S    
C39   H9    1.074696 S    
O4    Cu2   1.962684 S    
O2    Cu2   1.962771 S    
O7    C4    1.300455 A    
O8    C3    1.300467 A    
C48   Cl2   1.762700 S    
O5    Cu1   1.950661 S    
C20   C33   1.425375 A    
C42   C44   1.382791 A    
C3    C27   1.474149 S    
C54   H22   1.110519 S    
C41   C46   1.401063 A    
C41   C43   1.382791 A    
C24   C40   1.385254 A    
