data_mof_unit_51578.cif
_audit_creation_date              2013-03-05T15:48:44-0500
_audit_creation_method            fapswitch 2.2
_symmetry_space_group_name_H-M    P1
_symmetry_Int_Tables_number       1
_space_group_crystal_system       triclinic
_cell_length_a                    10.90116
_cell_length_b                    13.19653
_cell_length_c                    11.897268
_cell_angle_alpha                 99.574698
_cell_angle_beta                  92.931461
_cell_angle_gamma                 93.795362
_cell_volume                      1680.60461019

loop_
_atom_site_label
_atom_site_type_symbol
_atom_site_description
_atom_site_fract_x
_atom_site_fract_y
_atom_site_fract_z
_atom_type_partial_charge
O1    O     O_R   0.506640 0.354460 0.582000 -0.543085
O2    O     O_R   0.490840 0.341410 0.386200 -0.533272
C1    C     C_R   0.501568 0.299432 0.478457 0.886410
O3    O     O_R   0.325590 0.506510 0.597900 -0.532547
O4    O     O_R   0.309790 0.493450 0.402100 -0.558531
C2    C     C_R   0.259147 0.492590 0.500136 0.861595
Cu1   Cu    Cu3+1 0.509350 0.507730 0.615930 1.118460
Cu2   Cu    Cu3+1 0.490650 0.492270 0.384070 1.118233
O5    O     O_R   0.509160 0.658590 0.613800 -0.525732
O6    O     O_R   0.493360 0.645540 0.418000 -0.541073
O7    O     O_R   0.690210 0.506550 0.597900 -0.581529
O8    O     O_R   0.674410 0.493490 0.402100 -0.563268
C3    C     C_R   0.498109 0.700426 0.521471 0.897109
C4    C     C_R   0.739044 0.500992 0.499131 0.846288
C5    C     C_3   0.062912 0.435767 0.597400 0.124797
H1    H     H_    0.103481 0.475972 0.681341 0.211665
C6    C     C_3   0.923109 0.445925 0.597071 -0.338048
H2    H     H_    0.871006 0.370263 0.594002 0.246411
H3    H     H_    0.902928 0.492257 0.680197 0.227186
H4    H     H_    0.899637 0.656748 0.590536 0.251426
C7    C     C_3   0.080781 0.608460 0.526102 0.436500
C8    C     C_3   0.055585 0.432294 0.383727 0.088637
C9    C     C_3   0.118961 0.491103 0.501148 -0.293500
H5    H     H_    0.093038 0.466961 0.313230 0.207972
C10   C     C_3   0.875529 0.498480 0.497415 -0.170158
C11   C     C_3   0.936469 0.609323 0.515808 -0.483417
C12   C     C_3   0.914813 0.443805 0.379439 0.133334
H6    H     H_    0.896581 0.495947 0.316603 0.159926
H7    H     H_    0.906189 0.647523 0.443550 0.225552
C13   C     C_R   0.497260 0.814410 0.534567 -0.254113
C14   C     C_R   0.509472 0.185755 0.465958 -0.265262
C15   C     C_R   0.525648 0.016363 0.349129 0.303117
C16   C     C_R   0.531151 0.124323 0.359829 0.237558
C17   C     C_R   0.498878 0.137272 0.562907 0.302263
C18   C     C_R   0.512645 0.031134 0.554641 -0.161345
C19   C     C_R   0.507026 0.969144 0.445841 -0.145623
C20   C     C_R   0.480890 0.861868 0.436737 0.312180
C21   C     C_R   0.520725 0.877961 0.643499 0.211109
C22   C     C_R   0.525703 0.985153 0.653108 0.299919
N1    N     N_R   0.523430 0.519360 0.790130 -0.263378
N2    N     N_R   0.476570 0.480640 0.209880 -0.291042
C23   C     C_R   0.407679 0.386099 0.024069 0.232158
C24   C     C_R   0.400761 0.406127 0.142547 0.414226
C25   C     C_R   0.558064 0.540999 0.157509 0.439396
C26   C     C_R   0.555835 0.531835 0.034226 -0.203350
C27   C     C_R   0.472126 0.457381 0.967744 -0.206288
C28   C     C_R   0.451128 0.458894 0.848400 0.483031
C29   C     C_R   0.616850 0.582976 0.852858 0.355324
C30   C     C_R   0.633249 0.592142 0.973321 0.247077
N3    N     N_R   0.131397 0.670782 0.443824 0.122947
O9    O     O_R   0.181211 0.763657 0.480135 -0.243448
O10   O     O_R   0.102412 0.645046 0.334908 -0.316139
Br1   Br    Br    0.388933 0.788570 0.299424 -0.196544
N4    N     N_R   0.537946 0.836280 0.746831 0.169387
O11   O     O_R   0.635372 0.867897 0.814599 -0.201550
O12   O     O_R   0.443077 0.794735 0.788944 -0.206140
N5    N     N_R   0.557395 0.956338 0.243987 0.179680
O13   O     O_R   0.492737 0.957056 0.149095 -0.176029
O14   O     O_R   0.650661 0.899698 0.243451 -0.220637
N6    N     N_R   0.557446 0.046685 0.763228 0.195187
O15   O     O_R   0.485982 0.041374 0.846705 -0.162630
O16   O     O_R   0.667613 0.092384 0.785069 -0.219834
Br2   Br    Br    0.577628 0.181926 0.227580 -0.144590
N7    N     N_R   0.452007 0.190637 0.664495 0.160278
O17   O     O_R   0.526733 0.247614 0.742238 -0.282717
O18   O     O_R   0.340444 0.164884 0.688738 -0.221948
Br3   Br    Br    0.300719 0.398558 0.778653 -0.282806
Br4   Br    Br    0.087545 0.289641 0.600373 -0.223531
Br5   Br    Br    0.734436 0.663445 0.782355 -0.272929
Br6   Br    Br    0.350269 0.247357 0.952351 -0.070187
N8    N     N_R   0.735970 0.657511 0.029159 0.176991
O19   O     O_R   0.840832 0.618533 0.044861 -0.238599
O20   O     O_R   0.732029 0.757140 0.042861 -0.151476
N9    N     N_R   0.303143 0.353451 0.188495 0.149500
O21   O     O_R   0.192730 0.365784 0.148584 -0.289100
O22   O     O_R   0.323270 0.266691 0.221521 -0.254944
Br7   Br    Br    0.670981 0.641896 0.253321 -0.304758
N10   N     N_R   0.127961 0.657464 0.643523 0.142014
O23   O     O_R   0.058201 0.664476 0.729779 -0.285012
O24   O     O_R   0.243406 0.689933 0.663971 -0.255068
Br8   Br    Br    0.093145 0.287602 0.340154 -0.135381
N11   N     N_R   0.841857 0.346535 0.335301 0.181450
O25   O     O_R   0.811759 0.323657 0.226316 -0.233242
O26   O     O_R   0.818414 0.278155 0.400046 -0.312491

loop_
_geom_bond_atom_site_label_1
_geom_bond_atom_site_label_2
_geom_bond_distance
_ccdc_geom_bond_type
N1    C28   1.376659 A    
C7    C11   1.572612 S    
C18   C19   1.407649 A    
C29   Br5   1.923644 S    
Cu1   Cu2   2.728051 S    
C26   C27   1.404507 A    
Cu1   O7    1.994897 S    
N9    O22   1.299029 A    
C15   C19   1.413886 A    
N6    O16   1.301367 A    
C19   C20   1.410484 A    
C21   C22   1.397284 A    
O7    C4    1.307697 A    
N10   O24   1.299680 A    
N5    O14   1.300821 A    
C2    C9    1.527705 S    
C5    H1    1.105405 S    
C23   Br6   1.935442 S    
C13   C21   1.422848 A    
Cu1   O5    1.995337 S    
C17   C18   1.406257 A    
C23   C27   1.413449 A    
N1    C29   1.378222 A    
O5    C3    1.312617 A    
C27   C28   1.430248 A    
C7    N10   1.488705 S    
N3    O10   1.300701 A    
Cu1   N1    2.049613 S    
C14   C16   1.422212 A    
C16   Br2   1.933530 S    
C20   Br1   1.946213 S    
C24   N9    1.415082 S    
C5    C9    1.583863 S    
C22   N6    1.434587 S    
N2    C24   1.361704 A    
C15   N5    1.436286 S    
O3    Cu1   2.002424 S    
C28   Br3   1.865249 S    
C7    N3    1.483934 S    
C6    H2    1.109753 S    
N4    O12   1.300176 A    
N9    O21   1.301489 A    
C8    Br8   1.969322 S    
C3    C13   1.486934 S    
Cu2   N2    2.049497 S    
O3    C2    1.317706 A    
N8    O20   1.301501 A    
N10   O23   1.302890 A    
C10   C11   1.542344 S    
C13   C20   1.419442 A    
N6    O15   1.301246 A    
O1    C1    1.318351 A    
N7    O18   1.300581 A    
C18   C22   1.411275 A    
C21   N4    1.436717 S    
C26   C30   1.426908 A    
Cu2   O8    2.002423 S    
C17   N7    1.430183 S    
N3    O9    1.302082 A    
C14   C17   1.415078 A    
C1    C14   1.491372 S    
C29   C30   1.419112 A    
O8    C4    1.307076 A    
N11   O26   1.301450 A    
C8    C12   1.551140 S    
C7    C9    1.613963 S    
N2    C25   1.392807 A    
C8    H5    1.103355 S    
C23   C24   1.397137 A    
C25   C26   1.450340 A    
C5    C6    1.538575 S    
N4    O11   1.301514 A    
C25   Br7   1.929252 S    
O1    Cu1   1.993518 S    
C12   N11   1.467600 S    
O2    Cu2   1.995337 S    
O6    C3    1.317047 A    
O4    Cu2   1.994896 S    
C10   C12   1.561898 S    
C6    C10   1.553719 S    
C15   C16   1.406116 A    
O2    C1    1.312627 A    
N8    O19   1.301598 A    
N7    O17   1.301884 A    
N5    O13   1.301718 A    
O4    C2    1.317095 A    
H4    C11   1.108146 S    
C5    Br4   1.970313 S    
C6    H3    1.113191 S    
C4    C10   1.491511 S    
C11   H7    1.113240 S    
Cu2   O6    1.993518 S    
N11   O25   1.301232 A    
C30   N8    1.429952 S    
C12   H6    1.116184 S    
C8    C9    1.581392 S    
