data_mof_unit_26723.cif
_audit_creation_date              2013-03-05T16:36:14-0500
_audit_creation_method            fapswitch 2.2
_symmetry_space_group_name_H-M    P1
_symmetry_Int_Tables_number       1
_space_group_crystal_system       triclinic
_cell_length_a                    27.90041
_cell_length_b                    9.303067
_cell_length_c                    7.757902
_cell_angle_alpha                 90.364744
_cell_angle_beta                  90.165647
_cell_angle_gamma                 90.058568
_cell_volume                      2013.58595343

loop_
_atom_site_label
_atom_site_type_symbol
_atom_site_description
_atom_site_fract_x
_atom_site_fract_y
_atom_site_fract_z
_atom_type_partial_charge
O1    O     O_R   0.500000 0.288390 0.642760 -0.571878
O2    O     O_R   0.500000 0.711610 0.357240 -0.573579
O3    O     O_R   0.500000 0.711610 0.642760 -0.573576
O4    O     O_R   0.500000 0.288390 0.357240 -0.574681
C1    C     C_R   0.500003 0.219593 0.499667 0.839927
C2    C     C_R   0.500007 0.780407 0.500335 0.839389
O5    O     O_R   0.430260 0.500000 0.642770 -0.543851
O6    O     O_R   0.569740 0.500000 0.357230 -0.544154
O7    O     O_R   0.569740 0.500000 0.642770 -0.545840
O8    O     O_R   0.430260 0.500000 0.357230 -0.543714
C3    C     C_R   0.406993 0.500949 0.499854 0.922435
C4    C     C_R   0.592937 0.498574 0.500400 0.925728
Cu1   Cu    Cu3+1 0.500000 0.500000 0.669080 1.133873
Cu2   Cu    Cu3+1 0.500000 0.500000 0.330920 1.133515
C5    C     C_R   0.176289 0.377682 0.496869 0.723395
C6    C     C_R   0.821557 0.621992 0.565955 0.731113
C7    C     C_R   0.176310 0.632545 0.524835 0.724142
C8    C     C_R   0.823398 0.372781 0.496049 0.679963
O9    O     O_2   0.201224 0.253463 0.495831 -0.373065
O10   O     O_2   0.795636 0.741615 0.597647 -0.384443
O11   O     O_2   0.200655 0.757820 0.517847 -0.375316
O12   O     O_2   0.799729 0.254063 0.442268 -0.423384
N1    N     N_R   0.200474 0.505512 0.506995 -0.458708
N2    N     N_R   0.798540 0.497101 0.523439 -0.442729
C9    C     C_R   0.278269 0.557697 0.647020 0.378674
C10   C     C_R   0.720898 0.432756 0.649093 0.369193
C11   C     C_R   0.276899 0.453867 0.358381 0.380991
C12   C     C_R   0.723300 0.555628 0.373420 0.378040
C13   C     C_R   0.328508 0.561080 0.643645 0.290329
C14   C     C_R   0.670726 0.429457 0.642071 0.292615
C15   C     C_R   0.327187 0.448570 0.357807 0.290936
C16   C     C_R   0.673010 0.558329 0.367963 0.288314
C17   C     C_R   0.252243 0.506039 0.503812 -0.008023
C18   C     C_R   0.747103 0.494932 0.514811 0.012930
C19   C     C_R   0.100672 0.504629 0.522511 -0.208686
C20   C     C_R   0.898094 0.499809 0.543323 -0.181824
C21   C     C_R   0.125772 0.375720 0.488181 -0.088620
C22   C     C_R   0.872024 0.626425 0.570504 -0.087822
C23   C     C_R   0.126422 0.632880 0.551273 -0.083652
C24   C     C_R   0.873387 0.369514 0.522810 -0.137361
C25   C     C_R   0.100113 0.249444 0.446148 0.328878
C26   C     C_R   0.897198 0.753001 0.602495 0.340765
C27   C     C_R   0.102701 0.754108 0.618894 0.312076
C28   C     C_R   0.899046 0.240973 0.544193 0.293689
C29   C     C_R   0.353677 0.503600 0.500169 -0.355160
C30   C     C_R   0.646117 0.495057 0.502778 -0.349446
C31   C     C_R   0.974410 0.372653 0.532127 0.020335
C32   C     C_R   0.025127 0.633187 0.573498 0.049380
C33   C     C_R   0.973959 0.633547 0.561715 0.040025
C34   C     C_R   0.024620 0.374793 0.505124 0.042971
C35   C     C_R   0.948995 0.502178 0.545669 -0.102555
C36   C     C_R   0.050095 0.504359 0.533391 -0.083888
C37   C     C_R   0.949236 0.245144 0.564547 0.458595
C38   C     C_R   0.052023 0.754095 0.632189 0.343401
C39   C     C_R   0.946398 0.760090 0.561480 0.355066
C40   C     C_R   0.049448 0.253241 0.440341 0.336298
C41   C     C_1   0.500008 0.064927 0.499564 -0.091595
C42   C     C_1   0.500008 0.935074 0.500443 -0.092132
N3    N     N_1   0.500000 0.500000 0.076820 0.008381
N4    N     N_1   0.500000 0.500000 0.923180 0.009259
Cl1   Cl    Cl    0.355622 0.365840 0.178947 -0.410830
Cl2   Cl    Cl    0.644956 0.647738 0.193967 -0.415628
Cl3   Cl    Cl    0.358561 0.644928 0.819195 -0.414175
Cl4   Cl    Cl    0.639984 0.336030 0.806724 -0.420922
Cl5   Cl    Cl    0.244436 0.394927 0.174955 -0.372881
Cl6   Cl    Cl    0.757170 0.628575 0.202720 -0.382006
Cl7   Cl    Cl    0.247695 0.617172 0.833724 -0.369824
Cl8   Cl    Cl    0.751594 0.360196 0.828332 -0.404193
O13   O     O_3   0.124938 0.125376 0.405199 -0.613539
H1    H     H_    0.104187 0.041141 0.427482 0.352215
O14   O     O_3   0.874590 0.863676 0.686466 -0.617589
H2    H     H_    0.898925 0.912539 0.759133 0.339314
O15   O     O_3   0.129988 0.865646 0.685316 -0.630176
H3    H     H_    0.114670 0.901808 0.792075 0.349053
O16   O     O_3   0.875883 0.111963 0.557815 -0.666751
H4    H     H_    0.848674 0.126059 0.638174 0.396652
O17   O     O_3   0.973688 0.135183 0.643531 -0.663202
H5    H     H_    0.951253 0.084133 0.720107 0.351195
O18   O     O_3   0.028933 0.864829 0.716974 -0.679135
H6    H     H_    0.045880 0.955868 0.691648 0.370093
O19   O     O_3   0.965267 0.881799 0.487924 -0.638011
H7    H     H_    0.938429 0.941226 0.444624 0.391904
O20   O     O_3   0.023632 0.145332 0.358837 -0.669535
H8    H     H_    0.043875 0.099719 0.269232 0.343034

loop_
_geom_bond_atom_site_label_1
_geom_bond_atom_site_label_2
_geom_bond_distance
_ccdc_geom_bond_type
C27   O15   1.382438 S    
O5    Cu1   1.955864 S    
C13   Cl3   1.773373 S    
C14   Cl4   1.772488 S    
O15   H3    0.990240 S    
C15   Cl1   1.772328 S    
C19   C23   1.408350 A    
C9    Cl7   1.769070 S    
O3    C2    1.280422 A    
O19   H7    0.990433 S    
Cu1   N4    1.971282 S    
O17   H5    0.987630 S    
C11   C17   1.407105 A    
C32   C38   1.423165 A    
Cu2   N3    1.971282 S    
C7    N1    1.367626 A    
O1    C1    1.277849 A    
C19   C21   1.413605 A    
C22   C26   1.391085 A    
C32   C36   1.420103 A    
C7    C23   1.407519 A    
C8    C24   1.409893 A    
C5    C21   1.410958 A    
O7    Cu1   1.957035 S    
C5    O9    1.349461 S    
C28   C37   1.409196 A    
C10   C18   1.401978 A    
N1    C17   1.444660 S    
C34   C36   1.414277 A    
C39   O19   1.376064 S    
C34   C40   1.416876 A    
O3    Cu1   1.980476 S    
C6    O10   1.349496 S    
C31   C37   1.402444 A    
C5    N1    1.368409 A    
C12   C18   1.402672 A    
N3    N4    1.191925 T    
C6    N2    1.365095 A    
Cu1   Cu2   2.623413 S    
C21   C25   1.411004 A    
O2    C2    1.277862 A    
O5    C3    1.283251 A    
C31   C34   1.417179 A    
C9    C13   1.402337 A    
C11   C15   1.403976 A    
C20   C24   1.401787 A    
C4    C30   1.484202 S    
O8    Cu2   1.957038 S    
C23   C27   1.407520 A    
C33   C35   1.410697 A    
C33   C39   1.406791 A    
C7    O11   1.349796 S    
C13   C29   1.419766 A    
C28   O16   1.367368 S    
C12   Cl6   1.767661 S    
O16   H4    0.991991 S    
C25   C40   1.414660 A    
C11   Cl5   1.768490 S    
C26   C39   1.411564 A    
C27   C38   1.418013 A    
O20   H8    0.990601 S    
C12   C16   1.403872 A    
O6    C4    1.284033 A    
C20   C35   1.420355 A    
C32   C33   1.430285 A    
C10   C14   1.401030 A    
C37   O17   1.376356 S    
C8    N2    1.364965 A    
C3    C29   1.487777 S    
O1    Cu1   1.977891 S    
C40   O20   1.383532 S    
C25   O13   1.382419 S    
C38   O18   1.379874 S    
O6    Cu2   1.955861 S    
C8    O12   1.349440 S    
C16   C30   1.419450 A    
C14   C30   1.420061 A    
O4    C1    1.280435 A    
C31   C35   1.402292 A    
C1    C41   1.438870 S    
C10   Cl8   1.768879 S    
C20   C22   1.400180 A    
C16   Cl2   1.770915 S    
O14   H2    0.989605 S    
C41   C42   1.208091 T    
C26   O14   1.370228 S    
C2    C42   1.438876 S    
O4    Cu2   1.980476 S    
O13   H1    0.990226 S    
O2    Cu2   1.977890 S    
O7    C4    1.281761 A    
N2    C18   1.436615 S    
O8    C3    1.284437 A    
O18   H6    0.990612 S    
C24   C28   1.404852 A    
C15   C29   1.419655 A    
C9    C17   1.407249 A    
C19   C36   1.413874 A    
C6    C22   1.408931 A    
