data_mof_unit_12522.cif
_audit_creation_date              2012-12-11T15:54:40-0500
_audit_creation_method            fapswitch 2.2
_symmetry_space_group_name_H-M    P1
_symmetry_Int_Tables_number       1
_space_group_crystal_system       triclinic
_cell_length_a                    6.92617
_cell_length_b                    14.536091
_cell_length_c                    16.074828
_cell_angle_alpha                 89.918774
_cell_angle_beta                  89.808753
_cell_angle_gamma                 89.89869
_cell_volume                      1618.39148087

loop_
_atom_site_label
_atom_site_type_symbol
_atom_type_description
_atom_site_fract_x
_atom_site_fract_y
_atom_site_fract_z
_atom_type_partial_charge
O1    O     O_R   0.638180 0.333920 0.163320 -0.539812
O2    O     O_R   0.361820 0.666080 0.836680 -0.539812
O3    O     O_R   0.308470 0.344960 0.336080 -0.547255
O4    O     O_R   0.691530 0.655040 0.663920 -0.547255
O5    O     O_R   0.138140 0.166110 0.336680 -0.539363
O6    O     O_R   0.861860 0.833890 0.663320 -0.539363
C1    C     C_R   0.477301 0.367095 0.365178 0.693526
C2    C     C_R   0.522699 0.632905 0.634822 0.693527
O7    O     O_R   0.308460 0.344950 0.163930 -0.537772
O8    O     O_R   0.691540 0.655050 0.836070 -0.537773
O9    O     O_R   0.138140 0.166100 0.163310 -0.515082
O10   O     O_R   0.861860 0.833900 0.836690 -0.515083
C3    C     C_R   0.477612 0.367284 0.135046 0.751134
C4    C     C_R   0.522388 0.632716 0.864954 0.751133
O11   O     O_R   0.638180 0.333930 0.336700 -0.543743
O12   O     O_R   0.361820 0.666070 0.663300 -0.543743
O13   O     O_3   0.471670 0.191340 0.250000 -0.357735
O14   O     O_3   0.528330 0.808660 0.750000 -0.357735
V1    V     V_3+5 0.196830 0.260900 0.250000 1.492556
V2    V     V_3+5 0.803170 0.739100 0.750000 1.492556
O15   O     O_R   0.808420 0.155070 0.163920 -0.537178
O16   O     O_R   0.191580 0.844930 0.836080 -0.537178
C5    C     C_R   0.978087 0.134623 0.133642 0.747697
C6    C     C_R   0.021913 0.865377 0.866358 0.747698
O17   O     O_R   0.808420 0.155080 0.336070 -0.543250
O18   O     O_R   0.191580 0.844920 0.663930 -0.543250
C7    C     C_R   0.977168 0.133202 0.364745 0.679774
C8    C     C_R   0.022832 0.866798 0.635255 0.679774
V3    V     V_3+5 0.696830 0.239130 0.250000 1.490320
V4    V     V_3+5 0.303170 0.760870 0.750000 1.490320
O19   O     O_3   0.971850 0.308690 0.250010 -0.375639
O20   O     O_3   0.028150 0.691310 0.749990 -0.375639
H1    H     H_    0.876780 0.821514 0.257165 0.166136
H2    H     H_    0.123220 0.178485 0.742835 0.166136
C9    C     C_R   0.048239 0.189659 0.534412 -0.186328
C10   C     C_R   0.951761 0.810341 0.465588 -0.186328
C11   C     C_R   0.083226 0.219231 0.615463 0.323488
C12   C     C_R   0.916774 0.780768 0.384537 0.323488
C13   C     C_R   0.096460 0.155517 0.679857 -0.116060
C14   C     C_R   0.903540 0.844483 0.320143 -0.116060
C15   C     C_R   0.074112 0.061973 0.663793 -0.194891
C16   C     C_R   0.925888 0.938027 0.336207 -0.194891
C17   C     C_R   0.038287 0.029927 0.582238 0.070167
C18   C     C_R   0.961713 0.970072 0.417762 0.070167
C19   C     C_R   0.025377 0.095065 0.516147 0.019555
C20   C     C_R   0.974623 0.904935 0.483853 0.019555
C21   C     C_R   0.012718 0.934852 0.566159 -0.141017
C22   C     C_R   0.987282 0.065148 0.433841 -0.141017
H3    H     H_    0.037774 0.241660 0.486388 0.123069
H4    H     H_    0.962226 0.758340 0.513612 0.123069
H5    H     H_    0.084142 0.015306 0.716116 0.112631
H6    H     H_    0.915858 0.984694 0.283884 0.112631
C23   C     C_R   0.154675 0.999298 0.944160 -0.184481
C24   C     C_R   0.845325 0.000702 0.055840 -0.184481
H7    H     H_    0.274191 0.000663 0.900512 0.174909
H8    H     H_    0.725809 0.999337 0.099488 0.174909
C25   C     C_R   0.147182 0.065833 0.007025 0.283474
C26   C     C_R   0.852818 0.934167 0.992974 0.283474
C27   C     C_R   0.991148 0.066900 0.064397 -0.150166
C28   C     C_R   0.008852 0.933099 0.935603 -0.150166
C29   C     C_R   0.322595 0.482048 0.461984 -0.080974
C30   C     C_R   0.677405 0.517952 0.538016 -0.080974
H9    H     H_    0.183495 0.469486 0.433598 0.145253
H10   H     H_    0.816505 0.530514 0.566402 0.145253
C31   C     C_R   0.334025 0.545918 0.526907 -0.068653
C32   C     C_R   0.665975 0.454082 0.473093 -0.068653
H11   H     H_    0.203098 0.580790 0.546357 0.131904
H12   H     H_    0.796902 0.419210 0.453643 0.131904
C33   C     C_R   0.511554 0.564687 0.565928 -0.059883
C34   C     C_R   0.488446 0.435313 0.434072 -0.059883
C35   C     C_R   0.320263 0.474031 0.032095 -0.114359
C36   C     C_R   0.679736 0.525969 0.967905 -0.114359
H13   H     H_    0.179311 0.454996 0.055728 0.120795
H14   H     H_    0.820689 0.545003 0.944272 0.120795
C37   C     C_R   0.331312 0.537629 0.966820 -0.117615
C38   C     C_R   0.668688 0.462370 0.033180 -0.117615
H15   H     H_    0.198347 0.565844 0.942313 0.121741
H16   H     H_    0.801653 0.434156 0.057687 0.121741
C39   C     C_R   0.511195 0.564430 0.933803 -0.043336
C40   C     C_R   0.488804 0.435569 0.066197 -0.043336
Br1   Br    Br    0.110724 0.347514 0.638382 -0.600869
Br2   Br    Br    0.889276 0.652486 0.361618 -0.600869
Br3   Br    Br    0.350539 0.155756 0.006506 -0.552667
Br4   Br    Br    0.649461 0.844244 0.993494 -0.552668

loop_
_geom_bond_atom_site_label_1
_geom_bond_atom_site_label_2
_ccdc_geom_bond_type
C7    C22   S    
C29   C34   A    
C32   H12   S    
C8    C21   S    
O13   V3    S    
O4    C2    A    
V1    O19   S    
C1    C34   S    
C13   C15   A    
C5    C27   S    
O9    V1    S    
C2    C33   S    
C12   C14   A    
C38   H16   S    
C36   C39   A    
O3    C1    A    
V2    O20   S    
C25   C27   A    
O12   V4    S    
C29   H9    S    
O7    C3    A    
C30   H10   S    
O5    C7    A    
O7    V1    S    
O6    C8    A    
O8    V2    S    
C31   H11   S    
C9    H3    S    
C25   Br3   S    
O3    V1    S    
O14   V4    S    
V4    O20   S    
C17   C21   A    
C36   C38   A    
C1    O11   A    
C3    C40   S    
C2    O12   A    
C12   Br2   S    
C15   C17   A    
C11   Br1   S    
C16   C18   A    
C35   C40   A    
C23   C28   A    
C18   C20   A    
O11   V3    S    
C24   C27   A    
C23   H7    S    
O17   V3    S    
C24   H8    S    
H1    C14   S    
C30   C32   A    
H2    C13   S    
C36   H14   S    
O8    C4    A    
C35   H13   S    
C23   C25   A    
O15   V3    S    
C30   C33   A    
C26   Br4   S    
C17   C19   A    
C6    C28   S    
O10   V2    S    
O1    V3    S    
C4    C39   S    
C10   C20   A    
C37   H15   S    
O18   V4    S    
O15   C5    A    
O16   C6    A    
O1    C3    A    
C9    C19   A    
C10   H4    S    
C24   C26   A    
C19   C22   A    
C20   C21   A    
O16   V4    S    
C9    C11   A    
C38   C40   A    
C14   C16   A    
O5    V1    S    
O17   C7    A    
O6    V2    S    
O10   C6    A    
O18   C8    A    
O2    V4    S    
C10   C12   A    
C11   C13   A    
C35   C37   A    
C32   C34   A    
C37   C39   A    
C31   C33   A    
O9    C5    A    
O13   V1    S    
O14   V2    S    
O2    C4    A    
O4    V2    S    
C29   C31   A    
V3    O19   S    
C26   C28   A    
C15   H5    S    
C18   C22   A    
C16   H6    S    
