data_mof_unit_68431.cif
_audit_creation_date              2012-12-10T17:22:55-0500
_audit_creation_method            fapswitch 2.2
_symmetry_space_group_name_H-M    P1
_symmetry_Int_Tables_number       1
_space_group_crystal_system       triclinic
_cell_length_a                    10.223091
_cell_length_b                    10.642029
_cell_length_c                    10.64693
_cell_angle_alpha                 93.380487
_cell_angle_beta                  96.978221
_cell_angle_gamma                 82.164352
_cell_volume                      1137.95183109

loop_
_atom_site_label
_atom_site_type_symbol
_atom_type_description
_atom_site_fract_x
_atom_site_fract_y
_atom_site_fract_z
_atom_type_partial_charge
C1    C     C_R   0.443079 0.513428 0.265799 0.745848
C2    C     C_3   0.493536 0.122317 0.477807 -0.295323
C3    C     C_3   0.624083 0.943469 0.471516 0.125310
C4    C     C_3   0.372633 0.053170 0.491155 0.135551
C5    C     C_2   0.412395 0.541080 0.130242 0.337004
C6    C     C_2   0.591021 0.499244 0.872035 0.302456
C7    C     C_2   0.513436 0.571797 0.073357 -0.188876
C8    C     C_2   0.505104 0.575656 0.937274 -0.165832
C9    C     C_2   0.073792 0.470392 0.553901 0.264242
C10   C     C_2   0.923816 0.506017 0.532353 0.336889
C11   C     C_3   0.586619 0.953505 0.170741 0.138741
C12   C     C_R   0.557180 0.492285 0.734277 0.832454
C13   C     C_3   0.700918 0.958352 0.092702 -0.809494
C14   C     C_3   0.420738 0.041224 0.795110 0.135833
C15   C     C_3   0.314757 0.040342 0.883257 -0.804921
C16   C     C_3   0.813187 0.418787 0.902731 0.106585
C17   C     C_3   0.917946 0.339932 0.989892 -0.797476
C18   C     C_3   0.179828 0.562445 0.113909 0.154528
C19   C     C_3   0.074315 0.623757 0.015298 -0.830162
C20   C     C_3   0.848529 0.266570 0.327997 0.208811
C21   C     C_3   0.738450 0.281014 0.217770 -0.671198
C22   C     C_3   0.160675 0.719548 0.683518 0.242777
C23   C     C_R   0.496207 0.258078 0.488512 0.974772
C24   C     C_3   0.097992 0.854172 0.713025 -0.718956
C25   C     C_R   0.500825 0.741879 0.497571 0.980465
C26   C     C_3   0.535153 0.025723 0.372619 0.415597
C27   C     C_3   0.461036 0.972080 0.591232 0.409904
C28   C     C_3   0.415863 0.955618 0.385632 -0.003702
C29   C     C_3   0.582506 0.040433 0.578072 -0.018396
C30   C     C_3   0.502701 0.875460 0.487179 -0.282932
H1    H     H_    0.421673 0.636404 0.889880 0.151578
H2    H     H_    0.320362 0.944572 0.921264 0.252516
H3    H     H_    0.330323 0.110216 0.963579 0.245113
H4    H     H_    0.215000 0.068242 0.831804 0.278283
H5    H     H_    0.834087 0.518760 0.913627 0.155854
H6    H     H_    0.824158 0.379910 0.805128 0.221797
H7    H     H_    0.895522 0.240739 0.988829 0.277518
H8    H     H_    0.017140 0.337814 0.957330 0.247118
H9    H     H_    0.923184 0.382568 0.087555 0.264526
H10   H     H_    0.194047 0.636046 0.190541 0.192288
H11   H     H_    0.142632 0.481179 0.152805 0.180287
H12   H     H_    0.609079 0.585069 0.125622 0.160499
H13   H     H_    0.059985 0.557547 0.932049 0.271074
H14   H     H_    0.978935 0.648949 0.056452 0.229954
H15   H     H_    0.105803 0.711643 0.984180 0.261139
H16   H     H_    0.818326 0.226019 0.412015 0.197571
H17   H     H_    0.928136 0.194811 0.295977 0.176005
H18   H     H_    0.731413 0.374857 0.176343 0.287510
H19   H     H_    0.759134 0.207747 0.142437 0.219431
H20   H     H_    0.641639 0.269794 0.248578 0.273380
H21   H     H_    0.269402 0.718994 0.690880 0.192602
H22   H     H_    0.140943 0.658295 0.758290 0.128057
H23   H     H_    0.494351 0.957918 0.104153 0.177754
H24   H     H_    0.988802 0.865170 0.690161 0.301176
H25   H     H_    0.119582 0.877330 0.815609 0.195310
H26   H     H_    0.138903 0.921303 0.657920 0.297250
H27   H     H_    0.602803 0.859899 0.215938 0.151711
H28   H     H_    0.794818 0.965429 0.155421 0.281527
H29   H     H_    0.713813 0.870813 0.030854 0.223622
H30   H     H_    0.679021 0.041092 0.031541 0.253923
H31   H     H_    0.405339 0.136457 0.752991 0.182857
H32   H     H_    0.518472 0.028400 0.853420 0.179679
I1    I     I_    0.284726 0.882432 0.233656 -0.415219
I2    I     I_    0.728893 0.103939 0.721742 -0.375615
I3    I     I_    0.823673 0.876419 0.433573 -0.256125
I4    I     I_    0.164263 0.110490 0.474868 -0.280999
I5    I     I_    0.853259 0.638560 0.675889 -0.378703
I6    I     I_    0.134224 0.351527 0.708434 -0.378599
N1    N     N_2   0.157310 0.552180 0.551120 0.043136
N2    N     N_2   0.842690 0.447820 0.448880 0.054566
O1    O     O_R   0.568940 0.489500 0.307530 -0.633866
O2    O     O_3   0.415650 0.939374 0.703783 -0.619022
O3    O     O_3   0.684959 0.409614 0.934676 -0.614613
O4    O     O_3   0.295482 0.517451 0.055847 -0.605324
O5    O     O_3   0.904611 0.379873 0.356815 -0.594452
O6    O     O_3   0.107449 0.675663 0.562286 -0.503929
O7    O     O_R   0.431060 0.510500 0.692470 -0.632201
O8    O     O_R   0.348880 0.522990 0.340350 -0.609396
O9    O     O_R   0.651120 0.477010 0.659650 -0.615306
O10   O     O_R   0.610000 0.297210 0.483560 -0.612069
O11   O     O_R   0.390000 0.702790 0.516440 -0.577038
O12   O     O_R   0.389940 0.330700 0.516390 -0.586482
O13   O     O_R   0.610060 0.669300 0.483610 -0.592479
O14   O     O_3   0.576218 0.059214 0.258159 -0.617037
Zn1   Zn    Zn3+2 0.646930 0.477640 0.478080 0.998722
Zn2   Zn    Zn3+2 0.353070 0.522360 0.521920 1.032645

loop_
_geom_bond_atom_site_label_1
_geom_bond_atom_site_label_2
_ccdc_geom_bond_type
C23   O12   A    
C27   C29   S    
C22   O6    S    
C21   H19   S    
C7    C8    S    
C13   H30   S    
C10   I5    S    
C24   H25   S    
C1    O1    A    
C2    C29   S    
C1    C5    S    
C9    N1    D    
C16   H5    S    
C6    C12   S    
C24   H24   S    
C14   H32   S    
C12   O9    A    
N1    O6    S    
C18   C19   S    
C17   H9    S    
C7    H12   S    
C5    O4    S    
C3    C29   S    
C18   H10   S    
O1    Zn1   S    
C16   C17   S    
C23   O10   A    
C9    C10   S    
C15   H4    S    
O11   Zn2   S    
C11   H23   S    
C21   H18   S    
O8    Zn2   S    
C29   I2    S    
C18   O4    S    
C27   C30   S    
C25   O11   A    
C1    O8    A    
C3    I3    S    
C21   H20   S    
C4    C28   S    
C19   H13   S    
C16   O3    S    
C15   H2    S    
C18   H11   S    
C5    C7    D    
C6    C8    D    
C13   H28   S    
O12   Zn2   S    
C14   H31   S    
C20   O5    S    
C3    C30   S    
C2    C4    S    
O10   Zn1   S    
C12   O7    A    
C2    C23   S    
C2    C26   S    
C17   H7    S    
C10   N2    D    
O13   Zn1   S    
O7    Zn2   S    
C22   C24   S    
O9    Zn1   S    
C4    C27   S    
C19   H14   S    
C6    O3    S    
C22   H22   S    
C25   C30   S    
C26   O14   S    
C8    H1    S    
C14   O2    S    
C3    C26   S    
C19   H15   S    
C13   H29   S    
C11   O14   S    
C24   H26   S    
C26   C28   S    
C28   C30   S    
C9    I6    S    
C16   H6    S    
C4    I4    S    
C11   C13   S    
C17   H8    S    
C20   H17   S    
C27   O2    S    
C28   I1    S    
C20   C21   S    
N2    O5    S    
C25   O13   A    
C14   C15   S    
C11   H27   S    
N2    Zn1   S    
C15   H3    S    
C20   H16   S    
N1    Zn2   S    
C22   H21   S    
