data_mof_unit_30844.cif
_audit_creation_date              2012-12-10T17:14:32-0500
_audit_creation_method            fapswitch 2.2
_symmetry_space_group_name_H-M    P1
_symmetry_Int_Tables_number       1
_space_group_crystal_system       triclinic
_cell_length_a                    15.972416
_cell_length_b                    14.922709
_cell_length_c                    10.222572
_cell_angle_alpha                 91.1226
_cell_angle_beta                  83.873654
_cell_angle_gamma                 89.561396
_cell_volume                      2422.0708788

loop_
_atom_site_label
_atom_site_type_symbol
_atom_type_description
_atom_site_fract_x
_atom_site_fract_y
_atom_site_fract_z
_atom_type_partial_charge
C1    C     C_R   0.389671 0.121737 0.553539 0.916146
C2    C     C_2   0.506152 0.985029 0.067899 0.196748
C3    C     C_2   0.988917 0.499772 0.925578 0.290226
C4    C     C_2   0.006097 0.484842 0.067877 0.196388
C5    C     C_2   0.329054 0.809365 0.579018 -0.486971
C6    C     C_2   0.673043 0.188241 0.418845 -0.498187
C7    C     C_2   0.677618 0.813425 0.414822 -0.478346
C8    C     C_2   0.325098 0.188237 0.586442 -0.501438
C9    C     C_2   0.829080 0.309313 0.578891 -0.487666
C10   C     C_2   0.173079 0.688241 0.418862 -0.498913
C11   C     C_2   0.177641 0.313455 0.414778 -0.478656
C12   C     C_R   0.611051 0.878586 0.446458 0.912372
C13   C     C_2   0.825223 0.688364 0.586387 -0.501179
C14   C     C_2   0.289894 0.772540 0.481780 0.391878
C15   C     C_2   0.710301 0.228138 0.515750 0.416992
C16   C     C_2   0.710184 0.770964 0.512599 0.409705
C17   C     C_2   0.295500 0.235052 0.490304 0.398341
C18   C     C_2   0.789714 0.272762 0.481648 0.391619
C19   C     C_2   0.210405 0.728023 0.515797 0.416571
C20   C     C_2   0.210079 0.270838 0.512521 0.409677
C21   C     C_2   0.795559 0.735093 0.490218 0.398112
C22   C     C_3   0.310748 0.027159 0.219158 0.242083
C23   C     C_R   0.609992 0.121540 0.448279 0.912938
C24   C     C_3   0.256573 0.967867 0.138959 -0.452969
C25   C     C_3   0.173633 0.944742 0.218853 -0.946343
C26   C     C_3   0.688626 0.986967 0.810756 0.262886
C27   C     C_3   0.760165 0.928543 0.850635 -0.373909
C28   C     C_3   0.845037 0.972816 0.820043 -1.024442
C29   C     C_3   0.810794 0.527389 0.219165 0.241936
C30   C     C_3   0.756249 0.468728 0.138693 -0.453263
C31   C     C_3   0.673150 0.446017 0.218454 -0.946380
C32   C     C_3   0.188636 0.487026 0.810679 0.262107
C33   C     C_3   0.260246 0.428382 0.849794 -0.373775
C34   C     C_R   0.390372 0.878092 0.551353 0.913406
C35   C     C_3   0.345105 0.472717 0.819312 -1.024466
C36   C     C_3   0.613312 0.281646 0.682620 0.125280
C37   C     C_3   0.646584 0.368879 0.738736 -0.395613
C38   C     C_3   0.575123 0.429538 0.799035 -0.984155
C39   C     C_3   0.377835 0.717366 0.308164 0.095958
C40   C     C_3   0.413333 0.734601 0.166219 -0.307128
C41   C     C_3   0.478969 0.663789 0.115352 -0.986393
C42   C     C_3   0.409166 0.300621 0.372449 0.159428
C43   C     C_3   0.380526 0.399248 0.384145 -0.406913
C44   C     C_3   0.455770 0.461899 0.372392 -0.997337
C45   C     C_R   0.889700 0.621762 0.553523 0.916012
C46   C     C_3   0.620296 0.690344 0.655337 0.070139
C47   C     C_3   0.526960 0.713172 0.655355 -0.266375
C48   C     C_3   0.472216 0.631750 0.685419 -1.051414
C49   C     C_3   0.113271 0.781320 0.682638 0.125810
C50   C     C_3   0.146337 0.868757 0.738429 -0.396121
C51   C     C_3   0.074731 0.929242 0.798664 -0.984091
C52   C     C_3   0.877696 0.218565 0.307368 0.097381
C53   C     C_3   0.911255 0.235070 0.164353 -0.309043
C54   C     C_3   0.978112 0.165600 0.113291 -0.986376
C55   C     C_3   0.909179 0.800256 0.371639 0.159846
C56   C     C_R   0.111061 0.378598 0.446446 0.912122
C57   C     C_3   0.880736 0.898947 0.382994 -0.406921
C58   C     C_3   0.956099 0.961421 0.370073 -0.997161
C59   C     C_3   0.120124 0.189899 0.654665 0.070785
C60   C     C_3   0.026824 0.212453 0.653457 -0.267900
C61   C     C_3   0.972200 0.130852 0.682758 -1.051673
C62   C     C_R   0.110003 0.621541 0.448275 0.912848
C63   C     C_R   0.890372 0.378087 0.551336 0.912952
C64   C     C_2   0.488935 0.999860 0.925597 0.289888
H1    H     H_    0.694123 0.198794 0.315736 0.170504
H2    H     H_    0.321086 0.991907 0.308859 0.205300
H3    H     H_    0.880270 0.573511 0.920604 0.213191
H4    H     H_    0.242334 0.003537 0.049395 0.223626
H5    H     H_    0.291182 0.904518 0.109625 0.233061
H6    H     H_    0.185447 0.907586 0.308306 0.284437
H7    H     H_    0.135620 0.901947 0.158082 0.270046
H8    H     H_    0.137341 0.006969 0.248632 0.258588
H9    H     H_    0.689349 0.053115 0.863398 0.115907
H10   H     H_    0.697992 0.997169 0.702889 0.177849
H11   H     H_    0.749810 0.916157 0.958007 0.230483
H12   H     H_    0.760951 0.862860 0.797415 0.260187
H13   H     H_    0.310804 0.794544 0.681585 0.168015
H14   H     H_    0.858768 0.981561 0.712298 0.281236
H15   H     H_    0.894355 0.929344 0.854594 0.281400
H16   H     H_    0.845571 0.038827 0.872050 0.282072
H17   H     H_    0.774752 0.589380 0.251200 0.163321
H18   H     H_    0.821095 0.491680 0.308514 0.205390
H19   H     H_    0.742263 0.504728 0.049273 0.223939
H20   H     H_    0.790452 0.405187 0.109104 0.232735
H21   H     H_    0.684721 0.408539 0.307737 0.284510
H22   H     H_    0.634891 0.403660 0.157477 0.270092
H23   H     H_    0.637224 0.508430 0.248495 0.258217
H24   H     H_    0.294359 0.189593 0.686508 0.157690
H25   H     H_    0.189469 0.553001 0.863756 0.115929
H26   H     H_    0.197818 0.497567 0.702888 0.177986
H27   H     H_    0.250032 0.415553 0.957054 0.230583
H28   H     H_    0.260953 0.362917 0.796003 0.260209
H29   H     H_    0.358583 0.482179 0.711684 0.281318
H30   H     H_    0.394508 0.428914 0.852900 0.281355
H31   H     H_    0.345805 0.538384 0.872225 0.282066
H32   H     H_    0.569580 0.250356 0.760119 0.173547
H33   H     H_    0.575322 0.296422 0.599863 0.104322
H34   H     H_    0.688159 0.353253 0.815986 0.232607
H35   H     H_    0.706959 0.809330 0.313963 0.162998
H36   H     H_    0.683447 0.405573 0.658816 0.210783
H37   H     H_    0.531606 0.444113 0.724359 0.275530
H38   H     H_    0.601164 0.493580 0.833300 0.268014
H39   H     H_    0.540226 0.396800 0.884720 0.268124
H40   H     H_    0.347714 0.650265 0.312230 0.127219
H41   H     H_    0.430884 0.717893 0.370719 0.137124
H42   H     H_    0.361265 0.734063 0.102156 0.212685
H43   H     H_    0.442903 0.801770 0.161070 0.225442
H44   H     H_    0.531554 0.662839 0.178337 0.266126
H45   H     H_    0.504879 0.679640 0.013347 0.270670
H46   H     H_    0.194134 0.698875 0.315766 0.170543
H47   H     H_    0.449814 0.596414 0.114560 0.271617
H48   H     H_    0.451419 0.290926 0.279553 0.175523
H49   H     H_    0.447499 0.283961 0.453729 0.104736
H50   H     H_    0.340068 0.414302 0.305208 0.227202
H51   H     H_    0.343248 0.411954 0.480937 0.214986
H52   H     H_    0.500114 0.444601 0.444916 0.266025
H53   H     H_    0.433820 0.532061 0.391668 0.263549
H54   H     H_    0.488902 0.456868 0.271420 0.276656
H55   H     H_    0.630514 0.662756 0.752622 0.157318
H56   H     H_    0.638994 0.636187 0.580465 0.110394
H57   H     H_    0.811006 0.294222 0.681416 0.168305
H58   H     H_    0.508963 0.766444 0.730839 0.261344
H59   H     H_    0.515537 0.738020 0.557245 0.190230
H60   H     H_    0.488708 0.577870 0.610598 0.276313
H61   H     H_    0.404977 0.650376 0.683452 0.281489
H62   H     H_    0.481161 0.606902 0.784642 0.286381
H63   H     H_    0.069694 0.749995 0.760309 0.173516
H64   H     H_    0.075162 0.795833 0.599928 0.104421
H65   H     H_    0.188006 0.853408 0.815663 0.232584
H66   H     H_    0.183043 0.905449 0.658340 0.210650
H67   H     H_    0.031053 0.943444 0.724070 0.275686
H68   H     H_    0.794612 0.689897 0.686530 0.157697
H69   H     H_    0.100591 0.993476 0.832568 0.267992
H70   H     H_    0.040061 0.896542 0.884585 0.268053
H71   H     H_    0.848503 0.151024 0.313388 0.125844
H72   H     H_    0.931536 0.220532 0.368257 0.138620
H73   H     H_    0.858428 0.232231 0.101899 0.212601
H74   H     H_    0.939169 0.302962 0.156887 0.225300
H75   H     H_    0.031825 0.167616 0.173922 0.266286
H76   H     H_    0.001932 0.180410 0.010019 0.270866
H77   H     H_    0.950835 0.097328 0.115975 0.271720
H78   H     H_    0.951272 0.790286 0.278637 0.175764
H79   H     H_    0.207107 0.309522 0.313983 0.162955
H80   H     H_    0.947624 0.783692 0.452823 0.104578
H81   H     H_    0.839953 0.913857 0.304419 0.227388
H82   H     H_    0.843847 0.911970 0.480028 0.214761
H83   H     H_    0.000763 0.944214 0.442171 0.266139
H84   H     H_    0.934349 0.031669 0.389155 0.263745
H85   H     H_    0.988817 0.956072 0.268835 0.276137
H86   H     H_    0.129886 0.162441 0.752208 0.157561
H87   H     H_    0.139331 0.135717 0.580083 0.110361
H88   H     H_    0.008311 0.265645 0.728824 0.260999
H89   H     H_    0.015855 0.237298 0.555156 0.189921
H90   H     H_    0.274405 0.089070 0.250618 0.162254
H91   H     H_    0.989285 0.076983 0.608171 0.276555
H92   H     H_    0.904995 0.149224 0.679790 0.281468
H93   H     H_    0.980637 0.106105 0.782208 0.286352
H94   H     H_    0.582099 0.886794 0.124467 0.206426
H95   H     H_    0.614304 0.994886 0.156594 0.216783
H96   H     H_    0.368636 0.958011 0.923538 0.160929
H97   H     H_    0.380281 0.073607 0.920673 0.213307
H98   H     H_    0.081625 0.386303 0.124591 0.207065
H99   H     H_    0.114308 0.494283 0.156429 0.216596
H100  H     H_    0.868613 0.457925 0.923565 0.160832
N1    N     N_2   0.549450 0.000000 0.831550 0.029732
N2    N     N_2   0.450550 1.000000 0.168450 0.026088
N3    N     N_2   0.049450 0.500000 0.831550 0.029721
N4    N     N_2   0.950550 0.500000 0.168450 0.025920
N5    N     N_3   0.587657 0.952263 0.090772 -0.443945
N6    N     N_3   0.405661 0.011350 0.888519 -0.409708
N7    N     N_3   0.087478 0.451716 0.090726 -0.443355
N8    N     N_3   0.905644 0.511245 0.888490 -0.409718
O1    O     O_R   0.398960 0.091100 0.433300 -0.574648
O2    O     O_R   0.569290 0.908910 0.353790 -0.665956
O3    O     O_R   0.569290 0.091090 0.353790 -0.634146
O4    O     O_R   0.430710 0.908910 0.646210 -0.618941
O5    O     O_R   0.930710 0.591090 0.646210 -0.624198
O6    O     O_R   0.069290 0.408910 0.353790 -0.665933
O7    O     O_R   0.069290 0.591090 0.353790 -0.633992
O8    O     O_R   0.930710 0.408910 0.646210 -0.618548
O9    O     O_3   0.385455 0.053203 0.143142 -0.602810
O10   O     O_3   0.612778 0.942348 0.846011 -0.553957
O11   O     O_3   0.885533 0.553303 0.143112 -0.602938
O12   O     O_R   0.601040 0.908900 0.566700 -0.535497
O13   O     O_3   0.112809 0.442381 0.845978 -0.553511
O14   O     O_3   0.680282 0.219930 0.647976 -0.654132
O15   O     O_3   0.317797 0.784792 0.349791 -0.643073
O16   O     O_3   0.340019 0.242288 0.366132 -0.641335
O17   O     O_3   0.668157 0.769552 0.638915 -0.626238
O18   O     O_3   0.180392 0.719783 0.648024 -0.654174
O19   O     O_3   0.817229 0.285434 0.349614 -0.643380
O20   O     O_3   0.839890 0.742057 0.365862 -0.641728
O21   O     O_3   0.167869 0.269206 0.638693 -0.626221
O22   O     O_R   0.601040 0.091100 0.566700 -0.584956
O23   O     O_R   0.398960 0.908900 0.433300 -0.588784
O24   O     O_R   0.898960 0.591100 0.433300 -0.574645
O25   O     O_R   0.101040 0.408900 0.566700 -0.535246
O26   O     O_R   0.101040 0.591100 0.566700 -0.585172
O27   O     O_R   0.898960 0.408900 0.433300 -0.588892
O28   O     O_R   0.430710 0.091090 0.646210 -0.624107
Zn1   Zn    Zn3+2 0.478810 0.000000 0.357840 0.951943
Zn2   Zn    Zn3+2 0.521190 0.000000 0.642160 0.980761
Zn3   Zn    Zn3+2 0.978810 0.500000 0.357840 0.951954
Zn4   Zn    Zn3+2 0.021190 0.500000 0.642160 0.980945

loop_
_geom_bond_atom_site_label_1
_geom_bond_atom_site_label_2
_ccdc_geom_bond_type
C34   O23   A    
C15   C18   S    
C16   C21   S    
C31   H21   S    
C4    N7    S    
C57   H81   S    
C1    C8    S    
N1    Zn2   S    
C26   H9    S    
C3    N3    D    
C39   H40   S    
C56   O6    A    
C53   C54   S    
C59   O21   S    
C1    O1    A    
C26   C27   S    
C37   C38   S    
C7    H35   S    
C32   O13   S    
C53   H73   S    
N1    O10   S    
C40   H42   S    
C36   C37   S    
C41   H44   S    
C38   H37   S    
C33   H27   S    
C43   H50   S    
C30   C31   S    
C33   C35   S    
C51   H70   S    
C58   H84   S    
C3    N8    S    
C59   H86   S    
C23   O3    A    
C17   O16   S    
O22   Zn2   S    
C30   H20   S    
C17   C20   S    
O25   Zn4   S    
O1    Zn1   S    
C60   H88   S    
C30   H19   S    
C28   H15   S    
C42   H48   S    
C60   H89   S    
C22   H2    S    
C50   H66   S    
C43   H51   S    
C6    C15   D    
C6    H1    S    
C32   H26   S    
H98   N7    S    
C47   C48   S    
C9    H57   S    
C36   H33   S    
C25   H7    S    
C29   C30   S    
H99   N7    S    
C2    N2    D    
C58   H85   S    
C45   O5    A    
C39   O15   S    
C45   O24   A    
C48   H61   S    
C59   C60   S    
C31   H22   S    
C41   H45   S    
O6    Zn3   S    
O27   Zn3   S    
C10   C62   S    
N2    O9    S    
C54   H75   S    
C27   H11   S    
C61   H91   S    
C37   H34   S    
C2    C64   S    
C24   H5    S    
C35   H29   S    
C7    C12   S    
C11   C20   D    
C15   O14   S    
C54   H76   S    
C18   O19   S    
O12   Zn2   S    
C13   C21   D    
C53   H74   S    
C49   H63   S    
O4    Zn2   S    
C31   H23   S    
C24   C25   S    
C62   O26   A    
C33   H28   S    
C62   O7    A    
C51   H67   S    
C58   H83   S    
C21   O20   S    
C49   O18   S    
C2    N5    S    
C38   H39   S    
O2    Zn1   S    
C63   O8    A    
C4    N4    D    
C60   C61   S    
C8    H24   S    
C52   O19   S    
C43   C44   S    
C29   H17   S    
C64   N1    D    
C50   H65   S    
C61   H93   S    
C36   H32   S    
C42   H49   S    
C47   H59   S    
C32   H25   S    
C44   H54   S    
C10   C19   D    
N4    O11   S    
C5    C34   S    
C50   C51   S    
O5    Zn4   S    
C46   H56   S    
C25   H8    S    
N3    Zn4   S    
C47   H58   S    
O24   Zn3   S    
O3    Zn1   S    
C5    C14   D    
C40   H43   S    
H97   N6    S    
C26   O10   S    
C7    C16   D    
O7    Zn3   S    
C35   H31   S    
C55   C57   S    
O26   Zn4   S    
C52   H72   S    
C22   C24   S    
H100  N8    S    
C1    O28   A    
C42   C43   S    
C46   O17   S    
C5    H13   S    
C27   H12   S    
C61   H92   S    
C20   O21   S    
C39   C40   S    
C28   H14   S    
C52   C53   S    
C12   O2    A    
C56   O25   A    
C22   H90   S    
C35   H30   S    
C42   O16   S    
C39   H41   S    
C49   H64   S    
C46   C47   S    
C40   C41   S    
C55   H80   S    
C29   O11   S    
C9    C63   S    
C14   C19   S    
O8    Zn4   S    
C48   H60   S    
H94   N5    S    
O23   Zn1   S    
C59   H87   S    
H3    N8    S    
C22   O9    S    
C8    C17   D    
N4    Zn3   S    
C55   O20   S    
C29   H18   S    
C38   H38   S    
C32   C33   S    
C13   C45   S    
C14   O15   S    
C51   H69   S    
C57   C58   S    
C12   O12   A    
C44   H53   S    
C6    C23   S    
C23   O22   A    
C26   H10   S    
C13   H68   S    
C63   O27   A    
C46   H55   S    
C10   H46   S    
C36   O14   S    
C64   N6    S    
C28   H16   S    
C34   O4    A    
C16   O17   S    
C24   H4    S    
C19   O18   S    
C48   H62   S    
C9    C18   D    
C54   H77   S    
C44   H52   S    
O28   Zn2   S    
C49   C50   S    
C41   H47   S    
C27   C28   S    
C55   H78   S    
C52   H71   S    
H96   N6    S    
C25   H6    S    
C57   H82   S    
C11   H79   S    
N2    Zn1   S    
C37   H36   S    
H95   N5    S    
C11   C56   S    
C3    C4    S    
N3    O13   S    
