data_mof_unit_7418.cif
_audit_creation_date              2012-12-10T16:42:55-0500
_audit_creation_method            fapswitch 2.2
_symmetry_space_group_name_H-M    P1
_symmetry_Int_Tables_number       1
_space_group_crystal_system       triclinic
_cell_length_a                    7.540664
_cell_length_b                    8.680371
_cell_length_c                    12.927904
_cell_angle_alpha                 86.942072
_cell_angle_beta                  78.61426
_cell_angle_gamma                 103.183597
_cell_volume                      803.38833494

loop_
_atom_site_label
_atom_site_type_symbol
_atom_type_description
_atom_site_fract_x
_atom_site_fract_y
_atom_site_fract_z
_atom_type_partial_charge
C1    C     C_R   0.452466 0.199759 0.503444 0.871695
C2    C     C_R   0.547539 0.800245 0.496528 0.870811
C3    C     C_R   0.465364 0.494163 0.701298 0.825570
C4    C     C_R   0.534644 0.505575 0.298737 0.832111
C5    C     C_R   0.555475 0.513976 0.184656 -0.083203
C6    C     C_R   0.444909 0.483689 0.815448 -0.123008
C7    C     C_R   0.262288 0.379534 0.991311 0.369307
C8    C     C_R   0.740603 0.612555 0.008645 0.422857
C9    C     C_R   0.279553 0.395749 0.881803 -0.115036
C10   C     C_R   0.720861 0.601505 0.118230 -0.193860
C11   C     C_R   0.595158 0.557316 0.857145 -0.126432
C12   C     C_R   0.406968 0.436766 0.142931 -0.171484
C13   C     C_R   0.585887 0.541070 0.965917 0.019131
C14   C     C_R   0.416861 0.451463 0.034016 -0.008355
C15   C     C_2   0.426319 0.031303 0.505594 -0.293483
C16   C     C_2   0.573696 0.968706 0.494337 -0.291565
Cu1   Cu    Cu3+1 0.686350 0.517570 0.488220 1.105660
Cu2   Cu    Cu3+1 0.313650 0.482430 0.511780 1.109181
H1    H     H_    0.284211 0.365608 0.197060 0.222697
H2    H     H_    0.718033 0.628645 0.803194 0.223573
H3    H     H_    0.834084 0.662305 0.152426 0.188247
H4    H     H_    0.164794 0.337947 0.847607 0.217947
H5    H     H_    0.284705 0.958534 0.516662 0.208021
H6    H     H_    0.715310 0.041475 0.483262 0.207992
N1    N     N_2   0.033570 0.455950 0.529530 0.061147
N2    N     N_2   0.966430 0.544050 0.470470 0.058696
O1    O     O_R   0.621060 0.286250 0.492350 -0.557421
O2    O     O_R   0.378940 0.713750 0.507650 -0.557700
O3    O     O_R   0.306310 0.256580 0.512240 -0.568496
O4    O     O_R   0.693690 0.743420 0.487760 -0.567623
O5    O     O_R   0.631800 0.512400 0.642670 -0.566728
O6    O     O_R   0.368200 0.487600 0.357330 -0.569427
O7    O     O_R   0.317060 0.482730 0.662570 -0.548910
O8    O     O_R   0.682940 0.517270 0.337430 -0.553113
S1    S     S_3+6 0.046594 0.267102 0.071150 0.039055
O9    O     O_2   0.902710 0.222948 0.005243 -0.225176
O10   O     O_2   0.077619 0.117922 0.121041 -0.272064
O11   O     O_3   0.965389 0.370597 0.168404 -0.500371
H7    H     H_    0.034831 0.482571 0.146549 0.352999
S2    S     S_3+6 0.960251 0.716073 0.929087 0.019982
O12   O     O_2   0.022175 0.617436 0.843402 -0.267234
O13   O     O_2   0.942181 0.869957 0.878169 -0.256116
O14   O     O_3   0.123918 0.754412 0.002132 -0.529417
H8    H     H_    0.111747 0.854717 0.032473 0.395937
Br1   Br    Br    0.877158 0.300112 0.635623 -0.319051
Br2   Br    Br    0.122817 0.699777 0.364286 -0.357343

loop_
_geom_bond_atom_site_label_1
_geom_bond_atom_site_label_2
_ccdc_geom_bond_type
O14   H8    S    
C8    C13   A    
C1    C15   S    
C2    C16   S    
S1    O9    D    
C2    O4    A    
C3    C6    S    
C6    C9    A    
C1    O3    A    
Cu1   Cu2   S    
C5    C10   A    
C16   H6    S    
Cu2   O3    S    
C13   C14   A    
C3    O5    A    
Cu1   O4    S    
C11   C13   A    
C4    O6    A    
Cu2   N1    S    
Cu1   N2    S    
C12   H1    S    
C15   H5    S    
S2    O12   D    
S1    O10   D    
C12   C14   A    
C7    C9    A    
S2    O14   S    
C10   H3    S    
O11   H7    S    
Cu1   O5    S    
Cu2   O7    S    
C4    O8    A    
C11   H2    S    
Cu2   O6    S    
Cu1   O8    S    
C3    O7    A    
C15   C16   D    
Cu1   O1    S    
N1    Br1   S    
S1    O11   S    
Cu2   O2    S    
C5    C12   A    
C8    C10   A    
C9    H4    S    
C6    C11   A    
C1    O1    A    
N2    Br2   S    
C4    C5    S    
C2    O2    A    
C8    S2    S    
N1    N2    D    
C7    S1    S    
C7    C14   A    
S2    O13   D    
