data_mof_unit_44611.cif
_audit_creation_date              2013-03-05T15:40:18-0500
_audit_creation_method            fapswitch 2.2
_symmetry_space_group_name_H-M    P1
_symmetry_Int_Tables_number       1
_space_group_crystal_system       triclinic
_cell_length_a                    7.924899
_cell_length_b                    8.552554
_cell_length_c                    12.776908
_cell_angle_alpha                 89.484452
_cell_angle_beta                  87.107552
_cell_angle_gamma                 92.653266
_cell_volume                      863.908678742

loop_
_atom_site_label
_atom_site_type_symbol
_atom_site_description
_atom_site_fract_x
_atom_site_fract_y
_atom_site_fract_z
_atom_type_partial_charge
O1    O     O_R   0.609680 0.261530 0.506880 -0.636190
O2    O     O_R   0.390320 0.738470 0.493120 -0.611581
O3    O     O_R   0.323330 0.288220 0.488910 -0.646772
O4    O     O_R   0.676670 0.711780 0.511090 -0.621798
C1    C     C_R   0.460270 0.207476 0.483294 0.961757
C2    C     C_R   0.547213 0.793120 0.489583 0.952563
O5    O     O_R   0.619510 0.488830 0.661140 -0.602835
O6    O     O_R   0.380490 0.511170 0.338860 -0.638976
O7    O     O_R   0.333160 0.515520 0.643180 -0.634714
O8    O     O_R   0.666840 0.484480 0.356820 -0.634565
C3    C     C_R   0.465527 0.509195 0.698859 0.963651
C4    C     C_R   0.533910 0.491381 0.300578 0.880639
Zn1   Zn    Zn3+2 0.691200 0.482180 0.511990 0.942752
Zn2   Zn    Zn3+2 0.308800 0.517820 0.488010 0.932338
N1    N     N_2   0.054030 0.541640 0.471970 -0.057875
N2    N     N_2   0.945970 0.458360 0.528030 -0.038185
C5    C     C_R   0.553653 0.479470 0.188383 -0.191707
C6    C     C_R   0.442041 0.524613 0.809897 -0.170113
C7    C     C_R   0.361678 0.666985 0.965436 -0.235531
C8    C     C_R   0.628469 0.338245 0.031503 -0.215464
C9    C     C_R   0.358045 0.650382 0.857003 0.304683
C10   C     C_R   0.638053 0.356061 0.138681 0.316412
C11   C     C_R   0.520540 0.416026 0.869448 -0.287302
C12   C     C_R   0.465657 0.584940 0.130292 -0.271297
C13   C     C_R   0.534233 0.439192 0.974874 0.121677
C14   C     C_R   0.453812 0.564787 0.023754 0.127965
H1    H     H_    0.401492 0.679686 0.169011 0.164784
H2    H     H_    0.575889 0.315433 0.832553 0.162602
H3    H     H_    0.299801 0.763442 0.003300 0.182905
H4    H     H_    0.689018 0.241294 0.993216 0.184409
C15   C     C_2   0.449237 0.047986 0.446269 0.013423
C16   C     C_2   0.581471 0.955486 0.461103 -0.082777
N3    N     N_R   0.715411 0.236676 0.195560 0.176642
O9    O     O_R   0.866544 0.197294 0.164884 -0.435589
O10   O     O_R   0.616926 0.132978 0.245700 -0.470179
N4    N     N_R   0.277386 0.765333 0.796594 0.199648
O11   O     O_R   0.139928 0.826381 0.834098 -0.397485
O12   O     O_R   0.354759 0.827901 0.713202 -0.420804
C17   C     C_3   0.007164 0.604691 0.372763 -0.178801
C18   C     C_3   0.002348 0.479890 0.288112 -0.694546
H5    H     H_    0.129502 0.454008 0.255549 0.257534
H6    H     H_    0.941178 0.369772 0.320635 0.270577
H7    H     H_    0.930955 0.522501 0.221836 0.231407
H8    H     H_    0.888690 0.665670 0.381013 0.201997
H9    H     H_    0.103863 0.696104 0.346603 0.155640
C19   C     C_3   0.007527 0.410199 0.628185 -0.111545
C20   C     C_3   0.885860 0.306228 0.697403 -0.881225
H10   H     H_    0.840464 0.373758 0.765970 0.262688
H11   H     H_    0.778657 0.257763 0.655105 0.304107
H12   H     H_    0.952575 0.206346 0.729667 0.246737
H13   H     H_    0.116950 0.338202 0.613798 0.221802
H14   H     H_    0.039506 0.516602 0.673876 0.215014
C21   C     C_3   0.290647 0.986905 0.392551 -0.415690
C22   C     C_3   0.210655 0.103847 0.320702 -0.749195
H15   H     H_    0.126528 0.179713 0.367105 0.260012
H16   H     H_    0.307570 0.177071 0.274978 0.286756
H17   H     H_    0.130695 0.039253 0.264989 0.259729
H18   H     H_    0.325686 0.888149 0.341074 0.221243
H19   H     H_    0.193903 0.943655 0.452702 0.226140
C23   C     C_3   0.768781 0.007391 0.441372 -0.318413
C24   C     C_3   0.869535 0.996397 0.540194 -0.804019
H20   H     H_    0.786173 0.005089 0.612072 0.272630
H21   H     H_    0.931242 0.882740 0.543804 0.265293
H22   H     H_    0.970557 0.090566 0.538994 0.248702
H23   H     H_    0.825073 0.930138 0.381001 0.193237
H24   H     H_    0.789742 0.124928 0.404997 0.265082

loop_
_geom_bond_atom_site_label_1
_geom_bond_atom_site_label_2
_geom_bond_distance
_ccdc_geom_bond_type
C4    C5    1.439192 S    
C24   H22   1.108451 S    
C2    C16   1.442382 S    
O7    Zn2   2.001651 S    
C3    C6    1.429618 S    
C17   H9    1.106426 S    
C6    C9    1.414163 A    
C5    C10   1.413933 A    
Zn2   N1    2.058897 S    
C12   H1    1.086231 S    
O6    C4    1.306394 A    
C21   H18   1.111915 S    
C18   H7    1.109901 S    
N4    O12   1.300401 A    
N3    O9    1.301514 A    
C21   H19   1.106551 S    
C23   H24   1.105645 S    
C20   H11   1.097007 S    
C9    N4    1.437078 S    
C8    H4    1.085146 S    
C11   H2    1.084506 S    
C15   C21   1.535020 S    
O5    C3    1.309029 A    
O7    C3    1.299729 A    
N1    C17   1.445402 S    
O2    C2    1.306366 A    
O3    Zn2   1.972319 S    
O8    C4    1.308065 A    
C10   N3    1.426913 S    
O1    C1    1.301682 A    
N1    N2    1.275210 D    
C18   H6    1.106794 S    
N4    O11   1.301291 A    
C7    C9    1.395578 A    
C8    C10   1.384715 A    
C23   H23   1.110077 S    
C20   H12   1.112063 S    
C11   C13   1.372248 A    
C24   H20   1.109022 S    
O2    Zn2   1.968872 S    
C22   H16   1.107695 S    
C1    C15   1.448031 S    
C5    C12   1.396175 A    
O1    Zn1   1.968872 S    
C8    C13   1.389096 A    
C16   C23   1.537307 S    
C17   H8    1.095881 S    
C6    C11   1.384532 A    
C7    H3    1.084320 S    
C19   H14   1.111898 S    
O5    Zn1   1.962979 S    
O4    C2    1.305027 A    
C19   C20   1.524115 S    
Zn1   N2    2.058899 S    
N2    C19   1.455103 S    
C17   C18   1.526999 S    
C24   H21   1.109798 S    
C7    C14   1.398055 A    
C22   H15   1.106381 S    
C18   H5    1.103409 S    
O6    Zn2   1.962980 S    
N3    O10   1.296668 A    
C13   C14   1.409019 A    
C21   C22   1.531605 S    
C19   H13   1.095592 S    
C22   H17   1.110691 S    
C15   C16   1.361639 D    
C20   H10   1.107729 S    
O4    Zn1   1.972317 S    
C12   C14   1.380978 A    
C23   C24   1.532064 S    
O3    C1    1.312320 A    
O8    Zn1   2.001650 S    
