data_mof_unit_65471.cif
_audit_creation_date              2012-12-10T21:07:00-0500
_audit_creation_method            fapswitch 2.2
_symmetry_space_group_name_H-M    P1
_symmetry_Int_Tables_number       1
_space_group_crystal_system       triclinic
_cell_length_a                    10.667633
_cell_length_b                    15.83094
_cell_length_c                    15.082801
_cell_angle_alpha                 90.312912
_cell_angle_beta                  90.017973
_cell_angle_gamma                 89.496415
_cell_volume                      2547.02673272

loop_
_atom_site_label
_atom_site_type_symbol
_atom_type_description
_atom_site_fract_x
_atom_site_fract_y
_atom_site_fract_z
_atom_type_partial_charge
C1    C     C_R   0.498768 0.338936 0.499722 0.926863
C2    C     C_R   0.501232 0.661064 0.500277 0.926864
C3    C     C_R   0.872242 0.499459 0.500326 -0.180874
C4    C     C_R   0.127758 0.500541 0.499673 -0.180875
C5    C     C_R   0.937198 0.431297 0.538845 -0.080831
C6    C     C_R   0.062802 0.568702 0.461153 -0.080829
C7    C     C_R   0.461998 0.955927 0.575343 -0.255754
C8    C     C_R   0.537980 0.044073 0.424653 -0.255750
C9    C     C_R   0.505590 0.913040 0.500200 0.050166
C10   C     C_R   0.494390 0.086960 0.499796 0.050170
C11   C     C_R   0.543634 0.956523 0.424370 0.187837
C12   C     C_R   0.456344 0.043478 0.575626 0.187842
C13   C     C_1   0.506876 0.824187 0.500997 -0.003210
C14   C     C_1   0.493113 0.175813 0.499001 -0.003210
C15   C     C_1   0.494880 0.250654 0.499050 -0.104468
C16   C     C_1   0.505115 0.749346 0.500950 -0.104468
C17   C     C_R   0.394988 0.472295 0.952942 -0.136731
C18   C     C_R   0.605011 0.527705 0.047058 -0.136731
C19   C     C_R   0.500087 0.499904 0.905030 0.054499
C20   C     C_R   0.499913 0.500096 0.094970 0.054499
C21   C     C_R   0.605091 0.527618 0.953337 -0.136320
C22   C     C_R   0.394908 0.472382 0.046663 -0.136320
C23   C     C_R   0.259849 0.500728 0.499923 0.941587
C24   C     C_R   0.740151 0.499272 0.500077 0.941588
C25   C     C_1   0.500079 0.499926 0.807145 0.105425
C26   C     C_1   0.499920 0.500074 0.192855 0.105426
C27   C     C_R   0.209365 0.784184 0.443884 -0.138363
C28   C     C_R   0.790632 0.215816 0.556114 -0.138365
C29   C     C_R   0.152987 0.712250 0.478524 -0.171089
C30   C     C_R   0.847009 0.287750 0.521473 -0.171091
C31   C     C_R   0.129294 0.642248 0.423722 0.098563
C32   C     C_R   0.870706 0.357751 0.576276 0.098563
C33   C     C_R   0.163597 0.644805 0.333474 0.235665
C34   C     C_R   0.836405 0.355194 0.666524 0.235666
C35   C     C_R   0.222517 0.716541 0.299874 -0.135766
C36   C     C_R   0.777486 0.283458 0.700125 -0.135767
C37   C     C_R   0.245030 0.786098 0.354850 -0.112522
C38   C     C_R   0.754971 0.213901 0.645149 -0.112522
C39   C     C_R   0.933114 0.568238 0.462029 0.247188
C40   C     C_R   0.066886 0.431761 0.537969 0.247191
H1    H     H_    0.289798 0.841630 0.328399 0.168407
H2    H     H_    0.710204 0.158369 0.671600 0.168405
H3    H     H_    0.312646 0.450584 0.917831 0.161963
H4    H     H_    0.687353 0.549416 0.082169 0.161962
H5    H     H_    0.226125 0.838319 0.486253 0.157938
H6    H     H_    0.773869 0.161682 0.513745 0.157938
H7    H     H_    0.126036 0.711448 0.547748 0.160584
H8    H     H_    0.873958 0.288552 0.452250 0.160584
H9    H     H_    0.249706 0.718777 0.230807 0.162586
H10   H     H_    0.750300 0.281222 0.769192 0.162585
H11   H     H_    0.432167 0.921401 0.633391 0.178347
H12   H     H_    0.567812 0.078599 0.366606 0.178348
H13   H     H_    0.312551 0.450668 0.081448 0.166651
H14   H     H_    0.687448 0.549332 0.918552 0.166650
N1    N     N_1   0.499960 0.500020 0.270550 -0.070938
N2    N     N_1   0.500040 0.499980 0.729450 -0.070939
O1    O     O_R   0.500000 0.378020 0.573650 -0.587036
O2    O     O_R   0.500000 0.621980 0.426350 -0.587037
O3    O     O_R   0.500060 0.378020 0.426320 -0.621783
O4    O     O_R   0.499940 0.621980 0.573680 -0.621783
O5    O     O_R   0.316730 0.500010 0.573660 -0.590407
O6    O     O_R   0.683270 0.499990 0.426340 -0.590407
O7    O     O_R   0.316790 0.500010 0.426330 -0.608863
O8    O     O_R   0.683210 0.499990 0.573670 -0.608863
Zn1   Zn    Zn3+2 0.499960 0.500000 0.598370 1.028364
Zn2   Zn    Zn3+2 0.500040 0.500000 0.401630 1.028364
I1    I     I_    0.125970 0.543578 0.244968 -0.344964
I2    I     I_    0.874036 0.456421 0.755030 -0.344963
Br1   Br    Br    0.839781 0.663297 0.414229 -0.452720
Br2   Br    Br    0.160219 0.336703 0.585769 -0.452718
I3    I     I_    0.390565 0.106489 0.691422 -0.299998
I4    I     I_    0.609417 0.893512 0.308575 -0.300005

loop_
_geom_bond_atom_site_label_1
_geom_bond_atom_site_label_2
_ccdc_geom_bond_type
C35   H9    S    
C2    O2    A    
C4    C40   A    
C1    C15   S    
C18   H4    S    
C27   C29   A    
C18   C21   A    
C2    C16   S    
C8    H12   S    
C34   C36   A    
C17   C22   A    
C25   N2    T    
C28   C38   A    
C3    C5    A    
C5    C32   S    
C6    C39   A    
C26   N1    T    
C27   H5    S    
C23   O7    A    
C6    C31   S    
C39   Br1   S    
O7    Zn2   S    
C7    H11   S    
C28   C30   A    
C29   C31   A    
C33   I1    S    
C1    O1    A    
O8    Zn1   S    
C30   C32   A    
C9    C11   A    
C28   H6    S    
C3    C24   S    
C7    C12   A    
C40   Br2   S    
C27   C37   A    
C8    C11   A    
C29   H7    S    
C10   C12   A    
C30   H8    S    
C19   C21   A    
C12   I3    S    
C20   C22   A    
O4    Zn1   S    
C38   H2    S    
C22   H13   S    
C18   C20   A    
C1    O3    A    
O3    Zn2   S    
C37   H1    S    
C21   H14   S    
C19   C25   S    
C2    O4    A    
C5    C40   A    
C4    C6    A    
C31   C33   A    
O6    Zn2   S    
C3    C39   A    
C36   C38   A    
O5    Zn1   S    
C23   O5    A    
N1    Zn2   S    
C36   H10   S    
C35   C37   A    
C24   O8    A    
C10   C14   S    
C13   C16   T    
C34   I2    S    
C17   H3    S    
C7    C9    A    
C4    C23   S    
C9    C13   S    
C11   I4    S    
C17   C19   A    
C24   O6    A    
C33   C35   A    
C14   C15   T    
O2    Zn2   S    
C8    C10   A    
N2    Zn1   S    
O1    Zn1   S    
C20   C26   S    
C32   C34   A    
