data_mof_unit_17213.cif
_audit_creation_date              2012-12-11T14:01:20-0500
_audit_creation_method            fapswitch 2.2
_symmetry_space_group_name_H-M    P1
_symmetry_Int_Tables_number       1
_space_group_crystal_system       triclinic
_cell_length_a                    19.175162
_cell_length_b                    10.860688
_cell_length_c                    18.783119
_cell_angle_alpha                 90.281918
_cell_angle_beta                  89.205744
_cell_angle_gamma                 89.739648
_cell_volume                      3911.22213731

loop_
_atom_site_label
_atom_site_type_symbol
_atom_type_description
_atom_site_fract_x
_atom_site_fract_y
_atom_site_fract_z
_atom_type_partial_charge
C1    C     C_R   0.272445 0.042717 0.853480 0.541029
C2    C     C_R   0.727880 0.042631 0.146592 0.536416
C3    C     C_R   0.772445 0.542717 0.853480 0.541023
C4    C     C_R   0.227880 0.542630 0.146591 0.536408
C5    C     C_R   0.562557 0.037482 0.044179 -0.071599
C6    C     C_R   0.461163 0.058257 0.943516 -0.077663
C7    C     C_R   0.062550 0.537491 0.044183 -0.071599
C8    C     C_R   0.961153 0.558250 0.943523 -0.077664
C9    C     C_R   0.049005 0.653157 0.015671 0.242705
C10   C     C_R   0.992967 0.665128 0.968404 0.240569
C11   C     C_R   0.549021 0.153149 0.015664 0.242704
C12   C     C_R   0.492985 0.165130 0.968395 0.240565
C13   C     C_2   0.246999 0.578587 0.919976 -0.109385
C14   C     C_2   0.751379 0.579126 0.079240 -0.106265
C15   C     C_2   0.747000 0.078589 0.919977 -0.109386
C16   C     C_2   0.251379 0.079125 0.079241 -0.106266
C17   C     C_2   0.250704 0.584181 0.076445 -0.119082
C18   C     C_2   0.749829 0.587467 0.923106 -0.112964
C19   C     C_2   0.750705 0.084184 0.076446 -0.119083
C20   C     C_2   0.249829 0.087465 0.923106 -0.112962
C21   C     C_2   0.290573 0.510190 0.034901 -0.173294
C22   C     C_2   0.706028 0.520141 0.963190 -0.161770
C23   C     C_2   0.790576 0.010197 0.034902 -0.173295
C24   C     C_2   0.206029 0.020138 0.963190 -0.161771
C25   C     C_2   0.299238 0.532468 0.958459 -0.167989
C26   C     C_2   0.697261 0.544271 0.039364 -0.154542
C27   C     C_2   0.799241 0.032477 0.958461 -0.167980
C28   C     C_2   0.197262 0.044268 0.039365 -0.154542
C29   C     C_2   0.457138 0.828179 0.566369 -0.109816
C30   C     C_2   0.482764 0.837455 0.413297 -0.101045
C31   C     C_2   0.957137 0.328180 0.566367 -0.109820
C32   C     C_2   0.982757 0.337458 0.413293 -0.101074
C33   C     C_2   0.461046 0.736643 0.447725 -0.152424
C34   C     C_2   0.437031 0.739927 0.521589 -0.159356
C35   C     C_2   0.961025 0.236649 0.447716 -0.152400
C36   C     C_2   0.937033 0.239923 0.521588 -0.159360
C37   C     C_2   0.247906 0.560501 0.584053 -0.015430
C38   C     C_2   0.752551 0.563432 0.416224 -0.017136
C39   C     C_2   0.747861 0.060490 0.584067 -0.015493
C40   C     C_2   0.252552 0.063429 0.416223 -0.017232
C41   C     C_2   0.237087 0.574641 0.426413 0.089175
C42   C     C_2   0.760780 0.577147 0.574659 0.086813
C43   C     C_2   0.737099 0.074629 0.426416 0.089204
C44   C     C_2   0.260781 0.077143 0.574657 0.086835
C45   C     C_R   0.437822 0.818428 0.861683 0.549815
C46   C     C_R   0.556972 0.817106 0.137368 0.534412
C47   C     C_R   0.937824 0.318428 0.861683 0.549809
C48   C     C_R   0.056977 0.317106 0.137368 0.534415
C49   C     C_2   0.187963 0.535509 0.473166 -0.091903
C50   C     C_2   0.811308 0.543427 0.527773 -0.094871
C51   C     C_2   0.687887 0.035782 0.473156 -0.091941
C52   C     C_2   0.311312 0.043430 0.527772 -0.094894
C53   C     C_2   0.187991 0.568053 0.548807 0.228259
C54   C     C_2   0.811363 0.576558 0.452716 0.223794
C55   C     C_2   0.687953 0.068218 0.548812 0.228256
C56   C     C_2   0.311366 0.076555 0.452714 0.223791
C57   C     C_R   0.260595 0.635620 0.851198 0.548310
C58   C     C_R   0.739157 0.635994 0.148555 0.544281
C59   C     C_R   0.760596 0.135621 0.851198 0.548300
C60   C     C_R   0.239157 0.135994 0.148556 0.544278
C61   C     C_R   0.273059 0.045928 0.648016 0.549150
C62   C     C_R   0.726192 0.044898 0.352646 0.555785
C63   C     C_R   0.773058 0.545930 0.648017 0.549143
C64   C     C_R   0.226196 0.544913 0.352640 0.555734
C65   C     C_R   0.437645 0.819488 0.640343 0.567136
C66   C     C_R   0.527049 0.824555 0.350592 0.567638
C67   C     C_R   0.937646 0.319488 0.640343 0.567148
C68   C     C_R   0.027046 0.324555 0.350590 0.567623
C69   C     C_R   0.260397 0.633015 0.647547 0.571282
C70   C     C_R   0.739688 0.633790 0.352459 0.579052
C71   C     C_R   0.760390 0.133006 0.647553 0.571249
C72   C     C_R   0.239688 0.133789 0.352459 0.579054
C73   C     C_R   0.528305 0.822378 0.065412 0.010673
C74   C     C_R   0.457992 0.827857 0.936296 0.007628
C75   C     C_R   0.028315 0.322377 0.065410 0.010670
C76   C     C_R   0.957998 0.327852 0.936296 0.007629
C77   C     C_R   0.523069 0.933774 0.027287 -0.042455
C78   C     C_R   0.479595 0.940141 0.968312 -0.036450
C79   C     C_R   0.023071 0.433775 0.027288 -0.042451
C80   C     C_R   0.979595 0.440138 0.968314 -0.036454
C81   C     C_R   0.466608 0.716940 0.972615 -0.137148
C82   C     C_R   0.500029 0.714407 0.036702 -0.133339
C83   C     C_R   0.966625 0.216933 0.972611 -0.137142
C84   C     C_R   0.000049 0.214401 0.036695 -0.133339
Cr1   Cr    Cr6+3 0.230530 0.836340 0.748870 1.061145
Cr2   Cr    Cr6+3 0.769470 0.836340 0.251130 1.054889
Cr3   Cr    Cr6+3 0.730530 0.336340 0.748870 1.061168
Cr4   Cr    Cr6+3 0.269470 0.336340 0.251130 1.054906
Cr5   Cr    Cr6+3 0.387420 0.989430 0.750820 1.047612
Cr6   Cr    Cr6+3 0.612580 0.989430 0.249180 1.051456
Cr7   Cr    Cr6+3 0.887420 0.489430 0.750820 1.047619
Cr8   Cr    Cr6+3 0.112580 0.489430 0.249180 1.051462
Cr9   Cr    Cr6+3 0.385640 0.677860 0.749230 1.033048
Cr10  Cr    Cr6+3 0.614360 0.677860 0.250770 1.031505
Cr11  Cr    Cr6+3 0.885640 0.177860 0.749230 1.033040
Cr12  Cr    Cr6+3 0.114360 0.177860 0.250770 1.031489
H1    H     H_    0.449486 0.630404 0.950251 0.134848
H2    H     H_    0.504644 0.626221 0.062969 0.143393
H3    H     H_    0.949508 0.130395 0.950245 0.134850
H4    H     H_    0.004672 0.126213 0.062959 0.143386
H5    H     H_    0.142477 0.486354 0.454089 0.104665
H6    H     H_    0.858232 0.498829 0.546530 0.096174
H7    H     H_    0.642304 0.986931 0.454060 0.104721
H8    H     H_    0.358241 0.998845 0.546531 0.096177
H9    H     H_    0.292643 0.513446 0.560034 0.085587
H10   H     H_    0.708716 0.513615 0.439306 0.095290
H11   H     H_    0.792565 0.013320 0.560063 0.085621
H12   H     H_    0.208717 0.013612 0.439305 0.095244
H13   H     H_    0.607581 0.024913 0.074755 0.171880
H14   H     H_    0.419843 0.070275 0.907560 0.197820
H15   H     H_    0.107574 0.524931 0.074758 0.171889
H16   H     H_    0.919830 0.570258 0.907570 0.197812
H17   H     H_    0.316230 0.429502 0.056539 0.169213
H18   H     H_    0.677316 0.443803 0.940549 0.163837
H19   H     H_    0.816234 0.929510 0.056540 0.169218
H20   H     H_    0.177318 0.943799 0.940549 0.163840
H21   H     H_    0.349695 0.512552 0.934143 0.165780
H22   H     H_    0.645001 0.536785 0.061956 0.164557
H23   H     H_    0.849700 0.012571 0.934146 0.165783
H24   H     H_    0.145002 0.036781 0.061957 0.164556
H25   H     H_    0.226444 0.666199 0.054838 0.157043
H26   H     H_    0.777014 0.665777 0.945714 0.121644
H27   H     H_    0.726445 0.166202 0.054839 0.157067
H28   H     H_    0.277014 0.165776 0.945714 0.121634
H29   H     H_    0.195424 0.591184 0.943713 0.131121
H30   H     H_    0.803805 0.582686 0.056562 0.114608
H31   H     H_    0.695425 0.091179 0.943713 0.131129
H32   H     H_    0.303805 0.082686 0.056562 0.114606
H33   H     H_    0.466521 0.645908 0.423630 0.159471
H34   H     H_    0.408222 0.660978 0.541498 0.158413
H35   H     H_    0.966486 0.145919 0.423611 0.159471
H36   H     H_    0.908240 0.160962 0.541506 0.158465
H37   H     H_    0.474230 0.929196 0.434847 0.109330
H38   H     H_    0.487917 0.906566 0.549293 0.106354
H39   H     H_    0.974236 0.429198 0.434849 0.109344
H40   H     H_    0.987902 0.406581 0.549288 0.106313
O1    O     O_R   0.215090 0.709860 0.828130 -0.503263
O2    O     O_R   0.784910 0.709860 0.171870 -0.511079
O3    O     O_R   0.715090 0.209860 0.828130 -0.503262
O4    O     O_R   0.284910 0.209860 0.171870 -0.511082
O5    O     O_R   0.445660 0.919250 0.676780 -0.477402
O6    O     O_R   0.554340 0.919250 0.323220 -0.490839
O7    O     O_R   0.945660 0.419250 0.676780 -0.477392
O8    O     O_R   0.054340 0.419250 0.323220 -0.490820
O9    O     O_R   0.456260 0.718170 0.670000 -0.487451
O10   O     O_R   0.543740 0.718170 0.330000 -0.506047
O11   O     O_R   0.956260 0.218170 0.670000 -0.487458
O12   O     O_R   0.043740 0.218170 0.330000 -0.506048
O13   O     O_R   0.320940 0.626760 0.674370 -0.542473
O14   O     O_R   0.679060 0.626760 0.325630 -0.516223
O15   O     O_R   0.820940 0.126760 0.674370 -0.542453
O16   O     O_R   0.179060 0.126760 0.325630 -0.516230
O17   O     O_3   0.334530 0.834540 0.749640 -0.307711
O18   O     O_3   0.665470 0.834540 0.250360 -0.280440
O19   O     O_3   0.834530 0.334540 0.749640 -0.307708
O20   O     O_3   0.165470 0.334540 0.250360 -0.280448
O21   O     O_R   0.236990 0.958390 0.823710 -0.493477
O22   O     O_R   0.763010 0.958390 0.176290 -0.500067
O23   O     O_R   0.736990 0.458390 0.823710 -0.493476
O24   O     O_R   0.263010 0.458390 0.176290 -0.500070
O25   O     O_R   0.332380 0.074750 0.830850 -0.532928
O26   O     O_R   0.667620 0.074750 0.169150 -0.510607
O27   O     O_R   0.832380 0.574750 0.830850 -0.532924
O28   O     O_R   0.167620 0.574750 0.169150 -0.510621
O29   O     O_R   0.445800 0.917770 0.825070 -0.496166
O30   O     O_R   0.554200 0.917770 0.174930 -0.493672
O31   O     O_R   0.945800 0.417770 0.825070 -0.496157
O32   O     O_R   0.054200 0.417770 0.174930 -0.493675
O33   O     O_R   0.456410 0.716580 0.829970 -0.495438
O34   O     O_R   0.543590 0.716580 0.170030 -0.516187
O35   O     O_R   0.956410 0.216580 0.829970 -0.495444
O36   O     O_R   0.043590 0.216580 0.170030 -0.516181
O37   O     O_R   0.321080 0.625290 0.822650 -0.514190
O38   O     O_R   0.678920 0.625290 0.177350 -0.510871
O39   O     O_R   0.821080 0.125290 0.822650 -0.514194
O40   O     O_R   0.178920 0.125290 0.177350 -0.510875
O41   O     O_R   0.214930 0.711450 0.668160 -0.430847
O42   O     O_R   0.785070 0.711450 0.331840 -0.433631
O43   O     O_R   0.714930 0.211450 0.668160 -0.430801
O44   O     O_R   0.285070 0.211450 0.331840 -0.433608
O45   O     O_R   0.236850 0.959870 0.675420 -0.491881
O46   O     O_R   0.763150 0.959870 0.324580 -0.492388
O47   O     O_R   0.736850 0.459870 0.675420 -0.491865
O48   O     O_R   0.263150 0.459870 0.324580 -0.492380
O49   O     O_R   0.332230 0.076350 0.670880 -0.523551
O50   O     O_R   0.667770 0.076350 0.329120 -0.517664
O51   O     O_R   0.832230 0.576350 0.670880 -0.523555
O52   O     O_R   0.167770 0.576350 0.329120 -0.517610
O53   O     O_3   0.127642 0.609943 0.582288 -0.661099
H41   H     H_    0.089711 0.610681 0.546911 0.315666
O54   O     O_3   0.870973 0.623542 0.420818 -0.672278
H42   H     H_    0.907659 0.630066 0.457347 0.313572
O55   O     O_3   0.627628 0.110187 0.582309 -0.661096
H43   H     H_    0.589697 0.111077 0.546933 0.315658
O56   O     O_3   0.370975 0.123533 0.420813 -0.672243
H44   H     H_    0.407667 0.130038 0.457339 0.313557
N1    N     N_3   0.295967 0.646384 0.446915 -0.669440
H45   H     H_    0.293980 0.729785 0.419452 0.235554
H46   H     H_    0.340422 0.598829 0.429227 0.230068
N2    N     N_3   0.699494 0.644167 0.554696 -0.651960
H47   H     H_    0.698603 0.726950 0.583335 0.235834
H48   H     H_    0.656028 0.593146 0.570844 0.246628
N3    N     N_3   0.796189 0.145823 0.446943 -0.669469
H49   H     H_    0.794623 0.229079 0.419272 0.235585
H50   H     H_    0.840531 0.097594 0.429525 0.230041
N4    N     N_3   0.199484 0.144142 0.554693 -0.651934
H51   H     H_    0.198574 0.226926 0.583341 0.235839
H52   H     H_    0.156019 0.093090 0.570831 0.246616
O57   O     O_3   0.091730 0.749447 0.034535 -0.727005
H53   H     H_    0.088783 0.814260 0.997876 0.320179
O58   O     O_3   0.968584 0.777057 0.944485 -0.718154
H54   H     H_    0.979987 0.841442 0.979914 0.320255
O59   O     O_3   0.591753 0.249430 0.034527 -0.727011
H55   H     H_    0.588808 0.314246 0.997869 0.320181
O60   O     O_3   0.468612 0.277062 0.944472 -0.718148
H56   H     H_    0.480015 0.341446 0.979903 0.320254

loop_
_geom_bond_atom_site_label_1
_geom_bond_atom_site_label_2
_ccdc_geom_bond_type
Cr10  O10   S    
N3    H49   S    
C38   C70   S    
C16   C28   D    
C37   C69   S    
C6    H14   S    
Cr9   O13   S    
C35   C36   S    
C70   O14   A    
C36   H36   S    
C67   O7    A    
C2    O26   A    
C81   C82   A    
Cr12  O20   S    
C77   C78   A    
C31   C67   S    
N3    H50   S    
C19   H27   S    
C50   C54   S    
C75   C79   A    
C81   H1    S    
Cr6   O26   S    
Cr4   O20   S    
Cr7   O31   S    
C47   C76   S    
C5    C11   A    
C59   O39   A    
C8    H16   S    
C6    C12   A    
C8    C10   A    
N4    H52   S    
C75   C84   A    
Cr4   O48   S    
C13   C57   S    
C11   O59   S    
C51   H7    S    
Cr12  O16   S    
Cr2   O42   S    
C65   O5    A    
C3    C18   S    
C16   C60   S    
C71   O43   A    
N1    H46   S    
Cr11  O39   S    
Cr4   O4    S    
C21   C25   S    
Cr12  O36   S    
C69   O41   A    
C48   O36   A    
C15   C27   D    
C41   C49   D    
C71   O15   A    
O58   H54   S    
C9    O57   S    
N2    H47   S    
C72   O16   A    
C38   C54   D    
C76   C80   A    
C4    O28   A    
Cr9   O9    S    
C23   C27   S    
Cr6   O18   S    
C40   C72   S    
C9    C10   A    
C74   C78   A    
C68   O12   A    
C3    O27   A    
C62   O50   A    
C37   C53   D    
Cr8   O28   S    
C29   H38   S    
C1    O25   A    
C15   H31   S    
Cr6   O30   S    
C3    O23   A    
C82   H2    S    
C48   C75   S    
Cr7   O27   S    
C58   O38   A    
Cr1   O21   S    
Cr12  O12   S    
C76   C83   A    
Cr5   O25   S    
Cr9   O37   S    
Cr4   O44   S    
Cr7   O7    S    
C33   C34   S    
C14   C58   S    
C39   C55   D    
C63   O47   A    
C54   O54   S    
Cr8   O8    S    
O54   H42   S    
C84   H4    S    
C32   C35   D    
C24   C28   S    
C17   H25   S    
Cr11  O11   S    
C79   C80   A    
C16   H32   S    
C41   N1    S    
C28   H24   S    
N4    H51   S    
C70   O42   A    
Cr1   O17   S    
Cr6   O50   S    
C51   C55   S    
C40   C56   D    
O59   H55   S    
C23   H19   S    
C29   C34   D    
N1    H45   S    
C17   C21   D    
C46   O34   A    
C45   O33   A    
C45   C74   S    
C38   H10   S    
C19   C23   D    
O60   H56   S    
C18   H26   S    
C37   H9    S    
Cr3   O47   S    
C62   O46   A    
C56   O56   S    
C47   O31   A    
Cr8   O32   S    
Cr5   O17   S    
C83   C84   A    
C48   O32   A    
C59   O3    A    
Cr10  O18   S    
C30   H37   S    
Cr9   O33   S    
C61   O49   A    
O57   H53   S    
C57   O1    A    
C57   O37   A    
Cr8   O20   S    
C64   O52   A    
C14   C26   D    
Cr2   O22   S    
Cr5   O29   S    
C30   C66   S    
C42   C50   D    
C29   C65   S    
C4    C17   S    
N2    H48   S    
C21   H17   S    
C55   O55   S    
C60   O4    A    
C24   H20   S    
C63   O51   A    
C43   N3    S    
C60   O40   A    
Cr3   O19   S    
Cr11  O15   S    
Cr7   O19   S    
C72   O44   A    
C74   C81   A    
C5    C77   A    
Cr3   O23   S    
Cr1   O1    S    
C73   C82   A    
C45   O29   A    
C66   O10   A    
C7    C79   A    
C33   H33   S    
C42   N2    S    
C7    C9    A    
Cr7   O51   S    
C52   H8    S    
C1    C20   S    
Cr1   O45   S    
C46   O30   A    
C30   C33   D    
C2    C19   S    
C18   C22   D    
Cr5   O49   S    
Cr10  O38   S    
C10   O58   S    
C26   H22   S    
Cr3   O3    S    
C31   H40   S    
C13   C25   D    
C25   H21   S    
C44   C52   D    
Cr12  O40   S    
C32   H39   S    
C47   O35   A    
C11   C12   A    
Cr8   O52   S    
C50   H6    S    
C66   O6    A    
C27   H23   S    
C44   C61   S    
Cr6   O6    S    
C44   N4    S    
C61   O45   A    
C14   H30   S    
C40   H12   S    
C41   C64   S    
C69   O13   A    
Cr9   O17   S    
Cr2   O18   S    
C35   H35   S    
C13   H29   S    
Cr10  O34   S    
C32   C68   S    
C49   H5    S    
C58   O2    A    
Cr2   O46   S    
C4    O24   A    
C5    H13   S    
C43   C51   D    
Cr5   O5    S    
C65   O9    A    
C1    O21   A    
C7    H15   S    
C68   O8    A    
Cr11  O19   S    
Cr4   O24   S    
O53   H41   S    
C39   H11   S    
C15   C59   S    
C20   H28   S    
C49   C53   S    
C6    C78   A    
Cr2   O2    S    
Cr3   O43   S    
O56   H44   S    
C64   O48   A    
Cr10  O14   S    
C22   H18   S    
C2    O22   A    
C34   H34   S    
C73   C77   A    
Cr1   O41   S    
O55   H43   S    
C22   C26   S    
C67   O11   A    
C8    C80   A    
C39   C71   S    
C31   C36   D    
C83   H3    S    
C12   O60   S    
Cr11  O35   S    
C53   O53   S    
C42   C63   S    
C20   C24   D    
C46   C73   S    
C52   C56   S    
C43   C62   S    
