data_mof_unit_13944.cif
_audit_creation_date              2012-12-11T20:10:11-0500
_audit_creation_method            fapswitch 2.2
_symmetry_space_group_name_H-M    P1
_symmetry_Int_Tables_number       1
_space_group_crystal_system       triclinic
_cell_length_a                    8.242876
_cell_length_b                    15.999746
_cell_length_c                    18.742918
_cell_angle_alpha                 111.363965
_cell_angle_beta                  90.415736
_cell_angle_gamma                 85.063761
_cell_volume                      2292.72266054

loop_
_atom_site_label
_atom_site_type_symbol
_atom_type_description
_atom_site_fract_x
_atom_site_fract_y
_atom_site_fract_z
_atom_type_partial_charge
Ba1   Ba    Ba6+2 0.333520 0.539550 0.472180 1.669594
Ba2   Ba    Ba6+2 0.856270 0.460520 0.527840 1.684898
C1    C     C_3   0.053136 0.861418 0.343239 -0.342257
C2    C     C_3   0.050564 0.771103 0.352888 0.344415
C3    C     C_3   0.050687 0.313192 0.279540 0.288013
C4    C     C_3   0.004503 0.275826 0.195169 -0.196230
C5    C     C_3   0.649819 0.284448 0.693267 0.364543
C6    C     C_3   0.671478 0.263190 0.765625 -0.279371
C7    C     C_3   0.116422 0.226334 0.636162 0.358531
C8    C     C_3   0.097431 0.133361 0.639038 -0.289124
C9    C     C_R   0.508511 0.465045 0.045947 0.016516
C10   C     C_R   0.429359 0.421546 0.086969 0.033079
C11   C     C_R   0.282242 0.385766 0.061341 -0.062938
C12   C     C_3   0.537853 0.721744 0.305288 0.345712
C13   C     C_R   0.221274 0.385496 0.992119 -0.083878
C14   C     C_R   0.307724 0.419690 0.945497 -0.015325
C15   C     C_R   0.446722 0.464777 0.974897 0.013198
C16   C     C_R   0.267695 0.401688 0.868180 -0.051210
C17   C     C_R   0.338913 0.448147 0.825748 -0.079577
C18   C     C_R   0.472540 0.499816 0.858289 -0.006647
C19   C     C_R   0.528855 0.504875 0.931814 -0.005610
C20   C     C_R   0.286293 0.443063 0.751287 -0.005054
C21   C     C_R   0.373715 0.483707 0.710419 -0.256764
C22   C     C_R   0.506174 0.533407 0.740761 0.033329
C23   C     C_3   0.516719 0.748460 0.235557 -0.354760
C24   C     C_R   0.555314 0.543080 0.816459 -0.032034
C25   C     C_R   0.651725 0.505828 0.074760 -0.003810
C26   C     C_R   0.712880 0.505367 0.145884 -0.001967
C27   C     C_R   0.630722 0.461677 0.187154 -0.046593
C28   C     C_R   0.495636 0.415430 0.153837 -0.036112
C29   C     C_R   0.686707 0.593336 0.851395 -0.011017
C30   C     C_R   0.747399 0.593484 0.921829 0.027624
C31   C     C_R   0.669132 0.548848 0.962153 0.016453
C32   C     C_R   0.731565 0.548378 0.033069 0.023103
C33   C     C_R   0.887189 0.636914 0.952335 -0.073089
C34   C     C_3   0.642703 0.738921 0.665790 0.306850
C35   C     C_R   0.951221 0.634248 0.020971 -0.092997
C36   C     C_R   0.874205 0.590310 0.062051 0.036242
C37   C     C_R   0.855947 0.548038 0.175242 -0.043120
C38   C     C_R   0.936536 0.588867 0.131896 -0.113459
C39   C     C_R   0.911037 0.549583 0.247690 -0.000636
C40   C     C_R   0.821314 0.512145 0.289925 -0.295655
C41   C     C_R   0.683803 0.467251 0.260982 0.038851
C42   C     C_2   0.385521 0.238810 0.486823 -0.322090
C43   C     C_R   0.810069 0.748551 0.512459 -0.293067
C44   C     C_2   0.211915 0.118256 0.420005 -0.076795
C45   C     C_3   0.680209 0.836042 0.707820 -0.374792
C46   C     C_2   0.247411 0.203467 0.437934 0.043476
C47   C     C_2   0.498153 0.183384 0.503000 0.036820
C48   C     C_3   0.480388 0.082382 0.470817 -0.009132
C49   C     C_3   0.304604 0.058235 0.454232 -0.033606
C50   C     C_2   0.560906 0.027194 0.512981 -0.023396
C51   C     C_2   0.654671 0.953292 0.470076 -0.101638
C52   C     C_R   0.886764 0.924550 0.542850 0.006860
C53   C     C_R   0.747791 0.893825 0.501871 -0.001858
C54   C     C_R   0.984070 0.868637 0.570843 -0.149139
C55   C     C_R   0.946367 0.780218 0.555050 0.048144
C56   C     C_3   0.599341 0.250042 0.326635 0.254065
C57   C     C_R   0.704790 0.806532 0.489540 0.026894
C58   C     C_3   0.702324 0.160285 0.286771 -0.202495
C59   C     C_3   0.203495 0.745017 0.729746 0.340836
C60   C     C_3   0.226913 0.845706 0.758959 -0.400189
H1    H     H_    0.114484 0.774832 0.406208 0.088088
H2    H     H_    0.779839 0.838748 0.748561 0.146413
H3    H     H_    0.717931 0.866027 0.666691 0.097656
H4    H     H_    0.570990 0.877128 0.740122 0.117890
H5    H     H_    0.472921 0.237641 0.336762 0.032213
H6    H     H_    0.653181 0.286770 0.382540 0.040252
H7    H     H_    0.686066 0.136983 0.223771 0.101247
H8    H     H_    0.833168 0.170601 0.296961 0.082272
H9    H     H_    0.306913 0.705256 0.692180 -0.001432
H10   H     H_    0.180471 0.875488 0.336409 0.149679
H11   H     H_    0.247401 0.867152 0.709962 0.097436
H12   H     H_    0.333629 0.860716 0.796476 0.135591
H13   H     H_    0.117088 0.885548 0.792284 0.113615
H14   H     H_    0.921621 0.758550 0.357861 -0.072199
H15   H     H_    0.996251 0.916276 0.394309 0.095008
H16   H     H_    0.937310 0.344755 0.313989 -0.023510
H17   H     H_    0.136640 0.365502 0.288155 0.061885
H18   H     H_    0.906775 0.230089 0.188575 0.072521
H19   H     H_    0.955232 0.332355 0.178001 -0.027949
H20   H     H_    0.984284 0.860485 0.291837 0.130409
H21   H     H_    0.583782 0.697213 0.185379 0.074683
H22   H     H_    0.703565 0.348829 0.702606 0.064954
H23   H     H_    0.517382 0.292264 0.683003 0.003346
H24   H     H_    0.802223 0.253400 0.775680 0.155863
H25   H     H_    0.614971 0.319312 0.815784 0.077696
H26   H     H_    0.616203 0.200302 0.759705 0.176897
H27   H     H_    0.247823 0.235372 0.633465 0.027635
H28   H     H_    0.060051 0.229719 0.583463 0.074773
H29   H     H_    0.163410 0.124791 0.687964 0.162311
H30   H     H_    0.146794 0.079861 0.585496 0.069885
H31   H     H_    0.488618 0.655435 0.292443 0.085922
H32   H     H_    0.968194 0.123409 0.645703 0.140232
H33   H     H_    0.213741 0.357982 0.094972 0.079521
H34   H     H_    0.106097 0.357743 0.975864 0.144290
H35   H     H_    0.333820 0.479521 0.654220 0.069825
H36   H     H_    0.436825 0.375814 0.180019 0.132688
H37   H     H_    0.746536 0.631118 0.823592 0.140748
H38   H     H_    0.948203 0.672593 0.922889 0.132968
H39   H     H_    0.060427 0.667423 0.042303 0.077219
H40   H     H_    0.046964 0.620786 0.152260 0.108889
H41   H     H_    0.670213 0.715494 0.315930 -0.075266
H42   H     H_    0.862635 0.515148 0.345638 0.073795
H43   H     H_    0.109427 0.093341 0.384175 0.118530
H44   H     H_    0.089193 0.894034 0.603915 0.095136
H45   H     H_    0.401121 0.310193 0.504899 0.061541
H46   H     H_    0.780738 0.680356 0.501213 0.065978
H47   H     H_    0.668064 0.936749 0.408677 0.110219
H48   H     H_    0.385775 0.753432 0.221929 0.148621
H49   H     H_    0.565480 0.814598 0.247027 0.118176
H50   H     H_    0.752820 0.699981 0.633485 0.031875
H51   H     H_    0.542661 0.737368 0.625481 0.043722
O1    O     O_2   0.402610 0.439360 0.314250 -0.456257
O2    O     O_3   0.054342 0.730576 0.692365 -0.631796
O3    O     O_3   0.452529 0.787587 0.368218 -0.603810
O4    O     O_2   0.787080 0.560670 0.685800 -0.425728
O5    O     O_3   0.541120 0.553770 0.595290 -0.508145
O6    O     O_3   0.080800 0.396070 0.612520 -0.484723
O7    O     O_3   0.596064 0.703948 0.719968 -0.618141
O8    O     O_3   0.164600 0.390590 0.443970 -0.473500
O9    O     O_3   0.682580 0.347920 0.567870 -0.497183
O10   O     O_2   0.835873 0.185408 0.493562 -0.469703
O11   O     O_3   0.730439 0.213933 0.631840 -0.595678
O12   O     O_3   0.648560 0.446300 0.404730 -0.499549
O13   O     O_3   0.025080 0.609480 0.556050 -0.451006
O14   O     O_2   0.948320 0.280590 0.426090 -0.470908
O15   O     O_3   0.123321 0.242644 0.299950 -0.608177
O16   O     O_2   0.944906 0.464118 0.749829 -0.458132
O17   O     O_3   0.039081 0.293052 0.701061 -0.587453
O18   O     O_3   0.108870 0.604000 0.387500 -0.484924
O19   O     O_2   0.249611 0.536984 0.250018 -0.495414
O20   O     O_3   0.594381 0.296328 0.275829 -0.621790
O21   O     O_3   0.130298 0.703611 0.289323 -0.602570
O22   O     O_2   0.241370 0.719440 0.573960 -0.485918
O23   O     O_3   0.507090 0.652150 0.432150 -0.487354
O24   O     O_2   0.367488 0.815927 0.509915 -0.463071
P1    P     P_3+3 0.582960 0.413890 0.320860 0.986150
P2    P     P_3+3 0.071690 0.707860 0.593450 0.988307
P3    P     P_3+3 0.507446 0.767150 0.451060 0.968544
P4    P     P_3+3 0.606720 0.586180 0.679160 0.999731
P5    P     P_3+3 0.686562 0.231799 0.547066 0.966567
P6    P     P_3+3 0.099071 0.598238 0.292634 0.935999
P7    P     P_3+3 0.128512 0.277683 0.399740 0.971870
P8    P     P_3+3 0.091052 0.398902 0.706245 0.991149
C61   C     C_2   0.657149 0.086483 0.311891 0.800296
O25   O     O_2   0.755883 0.053107 0.345049 -0.623677
O26   O     O_R   0.505661 0.052417 0.292868 -0.752638
H52   H     H_    0.493124 0.998461 0.307857 0.304752
C62   C     C_2   0.200399 0.713053 0.795985 0.796691
O27   O     O_2   0.088247 0.671648 0.803900 -0.613613
O28   O     O_R   0.328170 0.728834 0.847376 -0.776311
H53   H     H_    0.312615 0.703817 0.889147 0.303462
C63   C     C_2   0.145049 0.224676 0.141805 0.888663
O29   O     O_2   0.119949 0.186809 0.073683 -0.605771
O30   O     O_R   0.302992 0.220971 0.169024 -0.726745
H54   H     H_    0.385790 0.185295 0.126889 0.313756
C64   C     C_2   0.212028 0.311627 0.827863 0.876519
O31   O     O_2   0.305343 0.253397 0.782616 -0.633234
O32   O     O_R   0.060444 0.290390 0.845537 -0.760802
H55   H     H_    0.047725 0.223485 0.821257 0.307557
C65   C     C_2   0.515644 0.045679 0.594506 0.860187
O33   O     O_2   0.461326 0.121011 0.635350 -0.641598
O34   O     O_R   0.528151 0.977007 0.624152 -0.769947
H56   H     H_    0.489374 0.998690 0.679671 0.304692

loop_
_geom_bond_atom_site_label_1
_geom_bond_atom_site_label_2
_ccdc_geom_bond_type
C42   C47   D    
C35   H39   S    
C53   C57   A    
C39   C40   A    
C17   C18   A    
C5    O11   S    
O23   P3    S    
O5    P4    S    
Ba2   O5    S    
C5    C6    S    
C37   C39   A    
C7    O17   S    
O22   P2    D    
C10   C11   A    
C2    H1    S    
C55   P2    S    
C35   C36   A    
C11   H33   S    
C57   P3    S    
O34   H56   S    
C33   C35   A    
C22   C24   A    
C39   P6    S    
C3    C4    S    
C42   H45   S    
C19   C31   A    
C8    H32   S    
C56   C58   S    
C13   C14   A    
C44   H43   S    
C54   C55   A    
C46   P7    S    
C41   P1    S    
C16   C17   A    
O21   P6    S    
C43   C57   A    
C14   C15   A    
C59   O2    S    
C48   C50   S    
C21   C22   A    
C60   H11   S    
C58   H8    S    
C3    H17   S    
Ba1   O23   S    
C7    C8    S    
C12   H31   S    
C65   O34   S    
Ba1   P2    S    
C43   H46   S    
O14   P7    D    
Ba2   O14   S    
C59   H9    S    
O19   P6    D    
Ba2   O9    S    
C5    H22   S    
C8    H30   S    
O20   P1    S    
C56   O20   S    
C4    H19   S    
C27   C41   A    
O17   P8    S    
C64   O32   S    
O8    P7    S    
O11   P5    S    
C58   C61   S    
C34   O7    S    
C34   H51   S    
Ba2   O4    S    
C31   C32   A    
C61   O26   S    
C51   C53   S    
C25   C32   A    
O24   P3    D    
C44   C46   D    
O13   P2    S    
C30   C33   A    
C17   C20   A    
O26   H52   S    
C3    O15   S    
C7    H27   S    
C37   C38   A    
C26   C37   A    
C44   C49   S    
C15   C19   A    
C40   H42   S    
C6    H26   S    
O30   H54   S    
O4    P4    D    
C34   H50   S    
C27   C28   A    
C16   C64   S    
C4    H18   S    
C29   C30   A    
C20   P8    S    
C9    C25   A    
C22   P4    S    
C9    C10   A    
C43   C55   A    
C47   P5    S    
C1    H20   S    
C48   C49   S    
O28   H53   S    
O15   P7    S    
C54   H44   S    
C63   O29   D    
C4    C63   S    
C23   H48   S    
Ba2   O13   S    
C56   H6    S    
C21   H35   S    
O2    P2    S    
C8    H29   S    
C29   H37   S    
C11   C13   A    
Ba1   O13   S    
C64   O31   D    
C62   O28   S    
C34   C45   S    
O6    P8    S    
C40   C41   A    
O9    P5    S    
C1    C2    S    
C1    H15   S    
C13   H34   S    
O18   P6    S    
C50   C51   D    
C2    O21   S    
C61   O25   D    
C59   C62   S    
Ba2   O8    S    
C51   H47   S    
C52   C53   A    
C26   C27   A    
C45   H4    S    
C10   C28   A    
C32   C36   A    
C63   O30   S    
C20   C21   A    
O7    P4    S    
Ba1   O12   S    
Ba1   O18   S    
C9    C15   A    
C7    H28   S    
Ba2   O6    S    
C45   H2    S    
C52   C54   A    
O16   P8    D    
O12   P1    S    
C65   O33   D    
C28   H36   S    
C6    H25   S    
O32   H55   S    
C1    H10   S    
C30   C31   A    
C36   C38   A    
C12   H41   S    
C5    H23   S    
C18   C24   A    
C58   H7    S    
C12   O3    S    
Ba1   Ba2   S    
O10   P5    D    
C6    H24   S    
Ba1   O5    S    
O1    P1    D    
C12   C23   S    
C59   C60   S    
C60   H13   S    
Ba1   O8    S    
C2    H14   S    
C23   H49   S    
C38   H40   S    
Ba2   O12   S    
C42   C46   S    
C56   H5    S    
C24   C29   A    
C18   C19   A    
C14   C16   A    
C47   C48   S    
Ba1   O1    S    
C25   C26   A    
C23   H21   S    
Ba2   P4    S    
C62   O27   D    
C60   H12   S    
C3    H16   S    
Ba1   O22   S    
C45   H3    S    
Ba1   P1    S    
C33   H38   S    
C50   C65   S    
O3    P3    S    
