data_mof_unit_33435.cif
_audit_creation_date              2012-10-26T19:58:12-0400
_audit_creation_method            fapswitch 2.2
_symmetry_space_group_name_H-M    P1
_symmetry_Int_Tables_number       1
_space_group_crystal_system       triclinic
_cell_length_a                    7.444249
_cell_length_b                    8.692457
_cell_length_c                    13.404919
_cell_angle_alpha                 94.276202
_cell_angle_beta                  77.513224
_cell_angle_gamma                 103.221602
_cell_volume                      824.16171591

loop_
_atom_site_label
_atom_site_type_symbol
_atom_type_description
_atom_site_fract_x
_atom_site_fract_y
_atom_site_fract_z
_atom_type_partial_charge
C1    C     C_R   0.545347 0.800201 0.503106 0.526831
C2    C     C_R   0.338007 0.495465 0.806567 -0.005079
C3    C     C_2   0.570793 0.968175 0.504633 -0.144475
C4    C     C_R   0.399854 0.498159 0.694412 0.514682
C5    C     C_2   0.429099 0.031823 0.495588 -0.154492
C6    C     C_R   0.454593 0.199803 0.497008 0.547973
C7    C     C_R   0.601384 0.511081 0.305989 0.544814
C8    C     C_R   0.878997 0.676878 0.054098 -0.127816
C9    C     C_R   0.661902 0.536892 0.196031 -0.004427
C10   C     C_R   0.153327 0.416620 0.848171 -0.136641
C11   C     C_R   0.099070 0.386337 0.951750 -0.136678
C12   C     C_R   0.417922 0.507565 0.975588 0.029553
C13   C     C_R   0.229618 0.427990 0.014687 -0.123681
C14   C     C_R   0.466632 0.553791 0.872181 0.027542
C15   C     C_R   0.558986 0.544450 0.035841 0.025360
C16   C     C_R   0.739187 0.638888 0.995268 0.048387
C17   C     C_R   0.776436 0.697911 0.897474 -0.141494
C18   C     C_R   0.641538 0.658256 0.837463 -0.125172
C19   C     C_R   0.526837 0.490038 0.135363 -0.130749
C20   C     C_R   0.840206 0.626836 0.154368 -0.131105
Cu1   Cu    Cu3+1 0.321300 0.483160 0.488710 1.052980
Cu2   Cu    Cu3+1 0.678700 0.516840 0.511290 1.045378
F1    F     F_    0.976182 0.363258 0.401694 -0.518315
H1    H     H_    0.946180 0.664202 0.200453 0.145389
H2    H     H_    0.675186 0.714183 0.764424 0.136053
H3    H     H_    0.707254 0.039792 0.513173 0.160516
H4    H     H_    0.292631 0.960198 0.487064 0.134708
H5    H     H_    0.009561 0.615623 0.580954 0.178136
H6    H     H_    0.910639 0.775510 0.867134 0.106918
H7    H     H_    0.016765 0.748812 0.023352 0.120242
H8    H     H_    0.395711 0.412999 0.168862 0.136684
H9    H     H_    0.051738 0.373889 0.800013 0.137252
H10   H     H_    0.176917 0.399553 0.094002 0.127786
H11   H     H_    0.955727 0.326137 0.983148 0.134601
N1    N     N_2   0.947230 0.542220 0.528320 -0.189120
N2    N     N_2   0.052770 0.457780 0.471680 0.141941
O1    O     O_R   0.383920 0.714220 0.492660 -0.529785
O2    O     O_R   0.685730 0.742660 0.511730 -0.517046
O3    O     O_R   0.275440 0.478800 0.636790 -0.535377
O4    O     O_R   0.577250 0.507240 0.655860 -0.520664
O5    O     O_R   0.314270 0.257340 0.488270 -0.483387
O6    O     O_R   0.616080 0.285780 0.507340 -0.442194
O7    O     O_R   0.422750 0.492760 0.344140 -0.485251
O8    O     O_R   0.724560 0.521200 0.363210 -0.440779

loop_
_geom_bond_atom_site_label_1
_geom_bond_atom_site_label_2
_ccdc_geom_bond_type
C2    C4    S    
C4    O3    A    
C13   H10   S    
Cu1   O7    S    
C7    O7    A    
C17   H6    S    
C14   C18   A    
C9    C20   A    
N1    N2    D    
Cu1   O3    S    
C12   C15   A    
C1    O1    A    
C4    O4    A    
Cu2   O4    S    
C8    H7    S    
C17   C18   A    
C19   H8    S    
C8    C16   A    
Cu1   N2    S    
C8    C20   A    
C7    O8    A    
C15   C19   A    
Cu2   N1    S    
C11   C13   A    
Cu2   O6    S    
C18   H2    S    
C1    O2    A    
Cu1   O5    S    
Cu1   Cu2   S    
C12   C14   A    
C11   H11   S    
C5    C6    S    
C2    C14   A    
C10   C11   A    
C15   C16   A    
C2    C10   A    
C10   H9    S    
Cu1   O1    S    
C12   C13   A    
F1    N2    S    
C6    O6    A    
C7    C9    S    
C3    C5    D    
C5    H4    S    
C9    C19   A    
C3    H3    S    
Cu2   O8    S    
C20   H1    S    
H5    N1    S    
C16   C17   A    
C1    C3    S    
C6    O5    A    
Cu2   O2    S    
