data_mof_unit_7038.cif
_audit_creation_date              2012-10-26T19:40:06-0400
_audit_creation_method            fapswitch 2.2
_symmetry_space_group_name_H-M    P1
_symmetry_Int_Tables_number       1
_space_group_crystal_system       triclinic
_cell_length_a                    15.019209
_cell_length_b                    8.654752
_cell_length_c                    7.560447
_cell_angle_alpha                 102.501987
_cell_angle_beta                  95.532653
_cell_angle_gamma                 93.933711
_cell_volume                      950.934543843

loop_
_atom_site_label
_atom_site_type_symbol
_atom_type_description
_atom_site_fract_x
_atom_site_fract_y
_atom_site_fract_z
_atom_type_partial_charge
C1    C     C_R   0.495242 0.200170 0.453979 0.530803
C2    C     C_R   0.179464 0.370536 0.419475 -0.149717
C3    C     C_R   0.766428 0.490991 0.497768 0.014865
C4    C     C_R   0.233571 0.509027 0.502225 0.014859
C5    C     C_R   0.803658 0.351445 0.416082 -0.008968
C6    C     C_R   0.196343 0.648586 0.583889 -0.008964
C7    C     C_R   0.898028 0.355568 0.416320 0.017798
C8    C     C_R   0.101968 0.644494 0.583610 0.017797
C9    C     C_R   0.952924 0.497961 0.499623 0.025467
C10   C     C_R   0.047072 0.502102 0.500309 0.025464
C11   C     C_R   0.913734 0.636072 0.582387 0.026430
C12   C     C_R   0.504760 0.799830 0.546021 0.530793
C13   C     C_R   0.086260 0.363994 0.417532 0.026435
C14   C     C_R   0.938654 0.220155 0.335404 -0.111475
C15   C     C_R   0.061336 0.779946 0.664455 -0.111470
C16   C     C_3   0.744177 0.198459 0.333974 -0.395464
C17   C     C_3   0.255837 0.801551 0.666029 -0.395424
C18   C     C_3   0.070271 0.071610 0.246755 -0.407762
C19   C     C_3   0.929713 0.928541 0.752972 -0.407748
C20   C     C_3   0.432091 0.304973 0.937084 -0.120746
C21   C     C_3   0.567910 0.695028 0.062916 -0.120742
C22   C     C_R   0.031552 0.222315 0.335242 -0.000646
C23   C     C_R   0.968438 0.777788 0.664605 -0.000642
C24   C     C_2   0.488010 0.031860 0.430027 -0.169915
C25   C     C_2   0.511993 0.968140 0.569973 -0.169919
C26   C     C_R   0.329619 0.502756 0.500725 0.537122
C27   C     C_R   0.670381 0.497244 0.499274 0.537132
C28   C     C_R   0.820531 0.629506 0.580485 -0.149719
Cu1   Cu    Cu3+1 0.510010 0.517380 0.684380 0.923478
Cu2   Cu    Cu3+1 0.489990 0.482620 0.315620 0.923486
H1    H     H_    0.788215 0.732881 0.641641 0.104380
H2    H     H_    0.235222 0.896734 0.597263 0.108064
H3    H     H_    0.249917 0.838334 0.814246 0.123921
H4    H     H_    0.327824 0.791995 0.650852 0.159626
H5    H     H_    0.017321 0.972529 0.189612 0.132481
H6    H     H_    0.107433 0.092776 0.132886 0.125189
H7    H     H_    0.116258 0.032552 0.349205 0.130824
H8    H     H_    0.982658 0.027653 0.810030 0.132482
H9    H     H_    0.883717 0.967515 0.650456 0.130830
H10   H     H_    0.892556 0.907463 0.866892 0.125173
H11   H     H_    0.385107 0.258851 0.021954 0.103126
H12   H     H_    0.211780 0.267161 0.358323 0.104377
H13   H     H_    0.389898 0.313895 0.813234 0.145504
H14   H     H_    0.482975 0.218934 0.911380 0.112753
H15   H     H_    0.614894 0.741147 0.978044 0.103131
H16   H     H_    0.517027 0.781068 0.088621 0.112749
H17   H     H_    0.610104 0.686106 0.186766 0.145502
H18   H     H_    0.898470 0.110442 0.270643 0.110427
H19   H     H_    0.101513 0.889695 0.729165 0.110412
H20   H     H_    0.460851 0.960441 0.297194 0.115965
H21   H     H_    0.539151 0.039559 0.702806 0.115966
H22   H     H_    0.764816 0.103289 0.402692 0.108055
H23   H     H_    0.672217 0.207994 0.349211 0.159610
H24   H     H_    0.750065 0.161672 0.185769 0.123910
N1    N     N_2   0.474890 0.456420 0.038520 -0.136009
N2    N     N_2   0.525110 0.543580 0.961480 -0.136009
O1    O     O_R   0.506510 0.286130 0.619770 -0.517537
O2    O     O_R   0.493490 0.713870 0.380230 -0.517533
O3    O     O_R   0.489600 0.256770 0.308360 -0.519309
O4    O     O_R   0.510400 0.743230 0.691640 -0.519319
O5    O     O_R   0.378710 0.514640 0.655720 -0.512431
O6    O     O_R   0.621290 0.485360 0.344280 -0.512420
O7    O     O_R   0.361800 0.485290 0.344300 -0.498250
O8    O     O_R   0.638200 0.514710 0.655700 -0.498251

loop_
_geom_bond_atom_site_label_1
_geom_bond_atom_site_label_2
_ccdc_geom_bond_type
C21   N2    S    
C2    C4    A    
N1    N2    D    
C25   H21   S    
C7    C9    A    
Cu1   Cu2   S    
C19   H8    S    
C1    O1    A    
C7    C14   A    
Cu2   N1    S    
C19   C23   S    
C27   O6    A    
Cu1   O4    S    
C12   C25   S    
C26   O7    A    
C12   O2    A    
Cu2   O3    S    
C14   C22   A    
C15   C23   A    
C20   H11   S    
Cu1   O8    S    
C6    C17   S    
Cu1   O5    S    
Cu2   O7    S    
C9    C11   A    
C1    O3    A    
C17   H3    S    
C11   C28   A    
C2    H12   S    
C20   N1    S    
C19   H10   S    
C19   H9    S    
C9    C10   A    
C11   C23   A    
C3    C28   A    
Cu1   N2    S    
C26   O5    A    
Cu1   O1    S    
C13   C22   A    
C6    C8    A    
C8    C15   A    
C21   H15   S    
C3    C27   S    
C15   H19   S    
Cu2   O6    S    
C24   H20   S    
C8    C10   A    
C16   H24   S    
C4    C26   S    
C17   H4    S    
C12   O4    A    
Cu2   O2    S    
C20   H13   S    
C24   C25   D    
C1    C24   S    
C4    C6    A    
C21   H16   S    
C18   H5    S    
C5    C7    A    
C17   H2    S    
C16   H23   S    
C5    C16   S    
C14   H18   S    
C3    C5    A    
C20   H14   S    
C18   C22   S    
C18   H6    S    
C27   O8    A    
C18   H7    S    
C28   H1    S    
C16   H22   S    
C2    C13   A    
C21   H17   S    
C10   C13   A    
