data_mof_unit_28791.cif
_audit_creation_date              2012-12-10T19:11:28-0500
_audit_creation_method            fapswitch 2.2
_symmetry_space_group_name_H-M    P1
_symmetry_Int_Tables_number       1
_space_group_crystal_system       triclinic
_cell_length_a                    10.611887
_cell_length_b                    9.703076
_cell_length_c                    10.52519
_cell_angle_alpha                 89.380584
_cell_angle_beta                  89.852111
_cell_angle_gamma                 90.035562
_cell_volume                      1083.69002717

loop_
_atom_site_label
_atom_site_type_symbol
_atom_type_description
_atom_site_fract_x
_atom_site_fract_y
_atom_site_fract_z
_atom_type_partial_charge
C1    C     C_R   0.257686 0.500325 0.500535 0.844704
C2    C     C_3   0.498543 0.502599 0.122214 -0.115956
C3    C     C_3   0.071729 0.652099 0.507209 -0.404061
C4    C     C_3   0.072184 0.419780 0.617806 -0.411463
C5    C     C_3   0.928710 0.652081 0.506049 -0.395627
C6    C     C_3   0.927616 0.420793 0.618487 -0.401179
C7    C     C_3   0.072938 0.434536 0.377380 -0.388605
C8    C     C_3   0.121465 0.501601 0.500767 0.188154
C9    C     C_3   0.878934 0.501516 0.500666 0.200219
C10   C     C_3   0.928342 0.433179 0.377835 -0.428489
C11   C     C_3   0.371556 0.081415 0.476005 -0.230939
C12   C     C_3   0.371457 0.919008 0.476809 -0.238430
C13   C     C_3   0.582266 0.082542 0.395689 -0.237450
C14   C     C_3   0.582675 0.920018 0.396133 -0.235274
C15   C     C_3   0.545471 0.079646 0.619726 -0.233921
C16   C     C_3   0.545837 0.917263 0.619336 -0.236525
C17   C     C_R   0.499074 0.500850 0.257126 0.932510
C18   C     C_R   0.742602 0.500334 0.500365 0.831203
C19   C     C_R   0.499512 0.499176 0.742731 0.914234
C20   C     C_3   0.490632 0.629937 0.036733 0.536589
C21   C     C_3   0.399561 0.430337 0.041934 0.488917
C22   C     C_3   0.389006 0.558930 0.955727 -0.389301
C23   C     C_3   0.497774 0.497621 0.877438 -0.096601
C24   C     C_3   0.598530 0.571619 0.955892 -0.188092
C25   C     C_3   0.505423 0.367095 0.961604 -0.216851
C26   C     C_3   0.605480 0.441942 0.042598 -0.307345
H1    H     H_    0.301495 0.600697 0.912675 0.130300
H2    H     H_    0.892610 0.489566 0.292558 0.153500
H3    H     H_    0.894412 0.324825 0.372046 0.172097
H4    H     H_    0.333882 0.120582 0.383890 0.155696
H5    H     H_    0.332493 0.880561 0.385981 0.134220
H6    H     H_    0.306275 0.118698 0.551009 0.140520
H7    H     H_    0.306932 0.880984 0.552964 0.149869
H8    H     H_    0.550227 0.120969 0.301226 0.162035
H9    H     H_    0.551885 0.882799 0.302019 0.197441
H10   H     H_    0.642082 0.118406 0.639424 0.143937
H11   H     H_    0.642490 0.878250 0.638991 0.140773
H12   H     H_    0.692791 0.395703 0.082359 0.158110
H13   H     H_    0.893312 0.703998 0.593037 0.166428
H14   H     H_    0.892788 0.469626 0.707147 0.158763
H15   H     H_    0.895253 0.712520 0.422089 0.169903
H16   H     H_    0.892348 0.312696 0.618111 0.174509
H17   H     H_    0.107856 0.493838 0.293249 0.170198
H18   H     H_    0.108554 0.327038 0.369239 0.182243
N1    N     N_3   0.499750 0.138610 0.497240 -0.032377
N2    N     N_3   0.499750 0.861390 0.497240 -0.034876
O1    O     O_R   0.314910 0.616040 0.499970 -0.642292
O2    O     O_R   0.314910 0.383960 0.499970 -0.631671
O3    O     O_R   0.500080 0.616020 0.313900 -0.606253
O4    O     O_R   0.500080 0.383980 0.313900 -0.610432
O5    O     O_R   0.685320 0.616040 0.499930 -0.638032
O6    O     O_R   0.685320 0.383960 0.499930 -0.637726
O7    O     O_R   0.500150 0.616060 0.686000 -0.630155
O8    O     O_R   0.500150 0.383940 0.686000 -0.636999
Zn1   Zn    Zn3+2 0.500150 0.654960 0.499940 0.906875
Zn2   Zn    Zn3+2 0.500150 0.345040 0.499940 0.907357
H19   H     H_    0.484830 0.115933 0.698933 0.148310
H20   H     H_    0.485087 0.878014 0.697275 0.167766
H21   H     H_    0.680112 0.121250 0.407955 0.142655
H22   H     H_    0.680665 0.881897 0.409258 0.142396
O9    O     O_3   0.496665 0.764457 0.087053 -0.660651
C27   C     C_3   0.380787 0.835164 0.075330 0.112528
H23   H     H_    0.366565 0.895275 0.163214 0.113146
H24   H     H_    0.296876 0.766430 0.071642 0.129380
C28   C     C_3   0.387498 0.937993 0.963617 -0.349071
H25   H     H_    0.401402 0.043696 0.000588 0.186059
H26   H     H_    0.470603 0.915029 0.903622 0.231917
C29   C     C_3   0.269046 0.935522 0.881650 -1.016518
H27   H     H_    0.259601 0.834299 0.834501 0.268491
H28   H     H_    0.275525 0.017007 0.807072 0.251568
H29   H     H_    0.184080 0.954778 0.940574 0.261801
O10   O     O_3   0.298550 0.360352 0.101626 -0.665373
C30   C     C_3   0.224393 0.289345 0.012177 0.070654
H30   H     H_    0.212652 0.182240 0.048389 0.173365
H31   H     H_    0.266968 0.282438 0.915345 0.126946
C31   C     C_3   0.094234 0.356251 0.002504 -0.350786
H32   H     H_    0.055933 0.374002 0.099186 0.230830
H33   H     H_    0.102609 0.457436 0.952798 0.201942
C32   C     C_3   0.002075 0.264713 0.930919 -0.995314
H34   H     H_    0.040390 0.238380 0.836077 0.267239
H35   H     H_    0.911053 0.319559 0.918422 0.264493
H36   H     H_    0.984559 0.167874 0.985427 0.262723
H37   H     H_    0.679138 0.630472 0.915241 0.132711
H38   H     H_    0.510521 0.259957 0.926062 0.134665
H39   H     H_    0.106848 0.713929 0.424570 0.167021
H40   H     H_    0.106122 0.311275 0.615144 0.168082
H41   H     H_    0.105480 0.702592 0.595447 0.167237
H42   H     H_    0.108125 0.466492 0.706832 0.159406

loop_
_geom_bond_atom_site_label_1
_geom_bond_atom_site_label_2
_ccdc_geom_bond_type
C7    C10   S    
C3    H39   S    
C1    C8    S    
C30   H31   S    
C30   H30   S    
C31   C32   S    
C4    C8    S    
C6    C9    S    
C18   O6    A    
C7    C8    S    
C14   N2    S    
C24   H37   S    
C24   C26   S    
C4    H40   S    
C15   C16   S    
C20   O9    S    
C21   C25   S    
C20   C24   S    
N1    Zn2   S    
C29   H27   S    
C28   H26   S    
N2    Zn1   S    
C25   H38   S    
C27   H24   S    
C23   C24   S    
C7    H17   S    
C9    C10   S    
C16   H11   S    
C19   O7    A    
C21   C22   S    
C2    C17   S    
C15   H19   S    
C18   O5    A    
O7    Zn1   S    
O8    Zn2   S    
C21   O10   S    
C3    H41   S    
C31   H32   S    
C11   H4    S    
C4    C6    S    
C3    C8    S    
C17   O3    A    
C14   H9    S    
C32   H35   S    
C1    O1    A    
C25   C26   S    
O3    Zn1   S    
C2    C20   S    
O4    Zn2   S    
C19   C23   S    
C5    C9    S    
C27   H23   S    
C28   C29   S    
C2    C21   S    
C2    C26   S    
C16   H20   S    
C7    H18   S    
C13   H21   S    
C19   O8    A    
C12   N2    S    
C20   C22   S    
C11   H6    S    
C22   H1    S    
C5    H13   S    
C12   H5    S    
C30   C31   S    
C6    H14   S    
C11   N1    S    
C15   N1    S    
C16   N2    S    
C15   H10   S    
O1    Zn1   S    
C10   H2    S    
O2    Zn2   S    
C5    H15   S    
C27   C28   S    
C26   H12   S    
C31   H33   S    
O10   C30   S    
C3    C5    S    
C17   O4    A    
C32   H36   S    
C11   C12   S    
C1    O2    A    
C4    H42   S    
C14   H22   S    
C13   H8    S    
C13   N1    S    
C10   H3    S    
C29   H29   S    
O5    Zn1   S    
C23   C25   S    
O9    C27   S    
C32   H34   S    
C9    C18   S    
C29   H28   S    
C28   H25   S    
C6    H16   S    
C22   C23   S    
C12   H7    S    
C13   C14   S    
O6    Zn2   S    
