data_mof_unit_20268.cif
_audit_creation_date              2012-12-10T20:07:05-0500
_audit_creation_method            fapswitch 2.2
_symmetry_space_group_name_H-M    P1
_symmetry_Int_Tables_number       1
_space_group_crystal_system       triclinic
_cell_length_a                    19.258863
_cell_length_b                    18.467296
_cell_length_c                    10.697412
_cell_angle_alpha                 88.495843
_cell_angle_beta                  89.407306
_cell_angle_gamma                 89.913286
_cell_volume                      3803.11476283

loop_
_atom_site_label
_atom_site_type_symbol
_atom_type_description
_atom_site_fract_x
_atom_site_fract_y
_atom_site_fract_z
_atom_type_partial_charge
C1    C     C_R   0.365595 0.500102 0.498033 0.898459
C2    C     C_R   0.634380 0.499888 0.502037 0.893918
C3    C     C_R   0.709589 0.499441 0.508524 -0.120642
C4    C     C_R   0.290326 0.500456 0.492161 -0.149362
C5    C     C_R   0.961180 0.511383 0.392596 -0.025473
C6    C     C_R   0.038669 0.488441 0.610091 -0.013841
C7    C     C_R   0.032974 0.511582 0.385204 0.001865
C8    C     C_R   0.966866 0.488333 0.617510 -0.004422
C9    C     C_R   0.071344 0.500040 0.493981 0.102685
C10   C     C_R   0.928500 0.499756 0.508694 0.093883
C11   C     C_R   0.549098 0.726934 0.432690 0.043096
C12   C     C_R   0.451446 0.275050 0.433290 0.058444
C13   C     C_R   0.450831 0.724967 0.567300 0.065787
C14   C     C_R   0.548615 0.273044 0.566858 0.042663
C15   C     C_R   0.550107 0.802933 0.431673 -0.248577
C16   C     C_R   0.450512 0.199087 0.432291 -0.243243
C17   C     C_R   0.449820 0.800935 0.568577 -0.243805
C18   C     C_R   0.549679 0.197035 0.568154 -0.247454
C19   C     C_R   0.499983 0.841338 0.500232 0.108547
C20   C     C_R   0.500108 0.158652 0.500322 0.107992
C21   C     C_R   0.437347 0.962087 0.500868 -0.153644
C22   C     C_R   0.562773 0.037894 0.500325 -0.152347
C23   C     C_R   0.562738 0.961849 0.500085 -0.154804
C24   C     C_R   0.437383 0.038132 0.500728 -0.155703
C25   C     C_R   0.500095 0.077301 0.500505 0.107162
C26   C     C_R   0.500023 0.922682 0.500414 0.107698
C27   C     C_R   0.501085 0.501150 0.260327 0.870313
C28   C     C_R   0.499052 0.498852 0.739664 0.873912
C29   C     C_R   0.378386 0.542899 0.129637 -0.303026
C30   C     C_R   0.621888 0.457504 0.870270 -0.345112
C31   C     C_R   0.372089 0.518995 0.875026 -0.326550
C32   C     C_R   0.628208 0.481858 0.124759 -0.325665
C33   C     C_R   0.316029 0.555608 0.066930 0.397985
C34   C     C_R   0.684427 0.445523 0.932807 0.347454
C35   C     C_R   0.311355 0.537474 0.940215 0.300907
C36   C     C_R   0.689028 0.463878 0.059448 0.340068
C37   C     C_R   0.436587 0.512149 0.936470 0.024155
C38   C     C_R   0.563623 0.488137 0.063461 0.021105
C39   C     C_R   0.438732 0.519529 0.065695 0.003145
C40   C     C_R   0.561460 0.480632 0.934257 0.022076
C41   C     C_R   0.498613 0.495576 0.872250 -0.085517
C42   C     C_R   0.501545 0.504462 0.127725 -0.089543
C43   C     C_R   0.745964 0.434882 0.490821 -0.081504
C44   C     C_R   0.253990 0.565413 0.506019 -0.159388
C45   C     C_R   0.254638 0.435884 0.472843 -0.183462
C46   C     C_R   0.745152 0.563449 0.532651 -0.229853
C47   C     C_R   0.817942 0.433709 0.495538 0.448577
C48   C     C_R   0.181956 0.566388 0.502926 0.481543
C49   C     C_R   0.182569 0.435240 0.470619 0.456313
C50   C     C_R   0.817226 0.564086 0.535184 0.410697
C51   C     C_R   0.853585 0.498983 0.515195 -0.143586
C52   C     C_R   0.146259 0.500712 0.487292 -0.172841
H1    H     H_    0.379453 0.553030 0.228607 0.206266
H2    H     H_    0.620790 0.447185 0.771362 0.195182
H3    H     H_    0.368250 0.508481 0.776312 0.177660
H4    H     H_    0.632104 0.492697 0.223357 0.180130
H5    H     H_    0.718159 0.385445 0.472631 0.189729
H6    H     H_    0.281853 0.615325 0.520183 0.200774
H7    H     H_    0.283009 0.385887 0.460665 0.205575
H8    H     H_    0.716652 0.612991 0.548301 0.188034
H9    H     H_    0.930983 0.520106 0.308601 0.202209
H10   H     H_    0.068869 0.479726 0.694080 0.204927
H11   H     H_    0.058664 0.520625 0.295602 0.207139
H12   H     H_    0.941179 0.479289 0.707107 0.208584
H13   H     H_    0.587561 0.697801 0.379308 0.130990
H14   H     H_    0.413375 0.305746 0.380325 0.141027
H15   H     H_    0.412339 0.694276 0.620542 0.128582
H16   H     H_    0.586597 0.302175 0.619732 0.137540
H17   H     H_    0.589230 0.831319 0.376096 0.149292
H18   H     H_    0.411858 0.172355 0.377130 0.154428
H19   H     H_    0.410680 0.827686 0.624217 0.152722
H20   H     H_    0.588377 0.168638 0.623417 0.149521
H21   H     H_    0.387988 0.934161 0.499754 0.153264
H22   H     H_    0.612141 0.065866 0.498780 0.154971
H23   H     H_    0.612072 0.933684 0.501144 0.153067
H24   H     H_    0.388034 0.066248 0.502291 0.153070
N1    N     N_R   0.500000 0.689440 0.500000 -0.099400
N2    N     N_R   0.500000 0.310560 0.500000 -0.102072
O1    O     O_R   0.398180 0.560840 0.499970 -0.626604
O2    O     O_R   0.601820 0.439160 0.500030 -0.627915
O3    O     O_R   0.601820 0.560840 0.500030 -0.628232
O4    O     O_R   0.398180 0.439160 0.499970 -0.623821
O5    O     O_R   0.499990 0.560810 0.316770 -0.617831
O6    O     O_R   0.500010 0.439190 0.683230 -0.619398
O7    O     O_R   0.500010 0.560810 0.683230 -0.615015
O8    O     O_R   0.499990 0.439190 0.316770 -0.610298
Zn1   Zn    Zn3+2 0.500000 0.581210 0.500000 0.968234
Zn2   Zn    Zn3+2 0.500000 0.418790 0.500000 0.971240
S1    S     S_3+6 0.768916 0.468647 0.139214 0.074594
O9    O     O_2   0.782891 0.396642 0.202507 -0.197407
O10   O     O_2   0.828136 0.487263 0.051694 -0.184022
O11   O     O_3   0.763902 0.532636 0.247600 -0.611220
H25   H     H_    0.755379 0.578433 0.199935 0.362023
S2    S     S_3+6 0.231369 0.534510 0.860228 0.088379
O12   O     O_2   0.235770 0.480400 0.758164 -0.341870
O13   O     O_2   0.173284 0.512368 0.947854 -0.148302
O14   O     O_3   0.213945 0.616879 0.797702 -0.441290
H26   H     H_    0.258258 0.633441 0.758913 0.336419
S3    S     S_3+6 0.753273 0.404451 0.849560 0.078738
O15   O     O_2   0.799465 0.462532 0.793929 -0.260232
O16   O     O_2   0.795356 0.355583 0.934082 -0.167681
O17   O     O_3   0.721171 0.354990 0.733867 -0.607127
H27   H     H_    0.693813 0.316151 0.776712 0.349015
S4    S     S_3+6 0.247655 0.597510 0.150083 0.076934
O18   O     O_2   0.205909 0.646083 0.064493 -0.182166
O19   O     O_2   0.201324 0.540155 0.207720 -0.286929
O20   O     O_3   0.281301 0.647747 0.263410 -0.582614
H28   H     H_    0.243087 0.680176 0.289368 0.414227
S5    S     S_3+6 0.861881 0.350072 0.477435 0.136627
O21   O     O_2   0.909211 0.355143 0.365026 -0.169093
O22   O     O_2   0.904875 0.333650 0.591206 -0.228104
O23   O     O_3   0.805254 0.282107 0.457880 -0.493504
H29   H     H_    0.786120 0.270924 0.542494 0.374126
S6    S     S_3+6 0.138063 0.650296 0.517557 0.079260
O24   O     O_2   0.098105 0.666383 0.400114 -0.244461
O25   O     O_2   0.088369 0.645867 0.626732 -0.189479
O26   O     O_3   0.195057 0.717583 0.539698 -0.575931
H30   H     H_    0.166296 0.761895 0.545559 0.407479
S7    S     S_3+6 0.139350 0.351983 0.447973 0.080558
O27   O     O_2   0.095127 0.333707 0.560975 -0.231793
O28   O     O_2   0.093789 0.359097 0.335088 -0.227484
O29   O     O_3   0.197088 0.284914 0.426281 -0.556989
H31   H     H_    0.168589 0.241041 0.414668 0.404863
S8    S     S_3+6 0.860410 0.646713 0.563488 0.089979
O30   O     O_2   0.900976 0.638730 0.682280 -0.185787
O31   O     O_2   0.909876 0.664670 0.457596 -0.246081
O32   O     O_3   0.803293 0.715050 0.578371 -0.511557
H32   H     H_    0.787635 0.726580 0.492184 0.353247

loop_
_geom_bond_atom_site_label_1
_geom_bond_atom_site_label_2
_ccdc_geom_bond_type
C36   S1    S    
O5    Zn1   S    
C21   C26   A    
C21   H21   S    
C28   O6    A    
C33   S4    S    
C14   C18   A    
C6    C9    A    
O1    Zn1   S    
S6    O24   D    
C15   C19   A    
C30   H2    S    
C3    C43   A    
C32   C36   A    
C48   S6    S    
C38   C42   A    
S5    O22   D    
O8    Zn2   S    
C35   S2    S    
C20   C25   S    
C29   C33   A    
C28   C41   S    
C23   C26   A    
C19   C26   S    
O23   H29   S    
C11   N1    A    
C33   C35   A    
C11   C15   A    
C12   C16   A    
C44   H6    S    
C22   C25   A    
C12   N2    A    
O20   H28   S    
C32   C38   A    
S1    O10   D    
C18   C20   A    
O7    Zn1   S    
S2    O12   D    
C9    C52   S    
C10   C51   S    
S4    O19   D    
S4    O18   D    
O14   H26   S    
C39   C42   A    
C4    C45   A    
S7    O28   D    
C50   S8    S    
C18   H20   S    
C15   H17   S    
C13   N1    A    
C30   C34   A    
C5    H9    S    
C16   H18   S    
C24   C25   A    
S5    O23   S    
C5    C7    A    
C24   H24   S    
C6    C8    A    
C4    C44   A    
S2    O14   S    
C50   C51   A    
C1    O4    A    
C47   S5    S    
C12   H14   S    
C31   C37   A    
C27   O8    A    
S6    O25   D    
S3    O15   D    
C45   C49   A    
C16   C20   A    
C49   C52   A    
C29   C39   A    
C34   S3    S    
C30   C40   A    
S1    O11   S    
S2    O13   D    
C7    H11   S    
O3    Zn1   S    
C8    H12   S    
S8    O32   S    
C8    C10   A    
C40   C41   A    
S3    O16   D    
C17   H19   S    
C1    O1    A    
C31   C35   A    
C22   H22   S    
O32   H32   S    
S8    O31   D    
C13   H15   S    
S7    O29   S    
N2    Zn2   S    
C7    C9    A    
C45   H7    S    
C46   H8    S    
O6    Zn2   S    
C23   H23   S    
C47   C51   A    
S7    O27   D    
C46   C50   A    
C3    C46   A    
C13   C17   A    
C1    C4    S    
C6    H10   S    
C27   O5    A    
C2    C3    S    
O29   H31   S    
C5    C10   A    
C37   C39   A    
O26   H30   S    
C38   C40   A    
C27   C42   S    
C49   S7    S    
C29   H1    S    
O4    Zn2   S    
O11   H25   S    
C17   C19   A    
C34   C36   A    
C14   N2    A    
C37   C41   A    
O17   H27   S    
S6    O26   S    
C2    O2    A    
C43   H5    S    
C44   C48   A    
C48   C52   A    
S3    O17   S    
N1    Zn1   S    
O2    Zn2   S    
C21   C24   A    
C28   O7    A    
C14   H16   S    
C22   C23   A    
C2    O3    A    
C31   H3    S    
S1    O9    D    
S5    O21   D    
C43   C47   A    
C32   H4    S    
S4    O20   S    
C11   H13   S    
S8    O30   D    
