data_mof_unit_66052.cif
_audit_creation_date              2012-12-10T18:16:46-0500
_audit_creation_method            fapswitch 2.2
_symmetry_space_group_name_H-M    P1
_symmetry_Int_Tables_number       1
_space_group_crystal_system       triclinic
_cell_length_a                    38.7112
_cell_length_b                    32.274131
_cell_length_c                    21.442076
_cell_angle_alpha                 90.012016
_cell_angle_beta                  123.537079
_cell_angle_gamma                 90.028161
_cell_volume                      22329.4656952

loop_
_atom_site_label
_atom_site_type_symbol
_atom_type_description
_atom_site_fract_x
_atom_site_fract_y
_atom_site_fract_z
_atom_type_partial_charge
C1    C     C_R   0.920469 0.999980 0.420836 0.858646
C2    C     C_R   0.079531 0.000005 0.579162 0.858569
C3    C     C_R   0.420469 0.499980 0.420836 0.858656
C4    C     C_R   0.579531 0.500006 0.579162 0.858562
C5    C     C_3   0.000650 0.000061 0.689429 -0.044166
C6    C     C_3   0.999355 0.000030 0.310576 -0.043948
C7    C     C_3   0.500649 0.500060 0.689429 -0.044127
C8    C     C_3   0.499357 0.500031 0.310577 -0.043947
C9    C     C_R   0.727870 0.992418 0.168598 -0.106196
C10   C     C_R   0.272116 0.992419 0.831367 -0.106412
C11   C     C_R   0.227870 0.492427 0.168596 -0.106189
C12   C     C_R   0.772115 0.492394 0.831359 -0.106345
C13   C     C_R   0.706331 0.001313 0.203294 0.029212
C14   C     C_R   0.293671 0.001351 0.796711 0.029078
C15   C     C_R   0.206331 0.501317 0.203292 0.029221
C16   C     C_R   0.793671 0.501350 0.796712 0.029128
C17   C     C_R   0.728660 0.009155 0.281070 0.163231
C18   C     C_R   0.271356 0.009252 0.718972 0.163168
C19   C     C_R   0.228660 0.509155 0.281068 0.163229
C20   C     C_R   0.771356 0.509275 0.718981 0.163212
C21   C     C_R   0.772039 0.007645 0.323499 -0.205822
C22   C     C_R   0.227974 0.007766 0.676539 -0.206211
C23   C     C_R   0.272039 0.507644 0.323496 -0.205812
C24   C     C_R   0.727975 0.507789 0.676546 -0.206221
C25   C     C_R   0.793688 0.998981 0.290250 0.025735
C26   C     C_R   0.206310 0.999067 0.709749 0.025749
C27   C     C_R   0.293688 0.498984 0.290248 0.025730
C28   C     C_R   0.706310 0.499067 0.709748 0.025755
C29   C     C_R   0.771926 0.991474 0.212414 -0.069239
C30   C     C_R   0.228058 0.991498 0.787548 -0.068907
C31   C     C_R   0.271926 0.491482 0.212412 -0.069247
C32   C     C_R   0.728058 0.491473 0.787539 -0.068911
C33   C     C_1   0.661323 0.000731 0.159827 0.004114
C34   C     C_1   0.338677 0.000749 0.840174 0.003679
C35   C     C_1   0.161323 0.500734 0.159826 0.004131
C36   C     C_1   0.838677 0.500749 0.840175 0.003755
C37   C     C_1   0.838536 0.999524 0.337120 0.004647
C38   C     C_1   0.161463 0.999616 0.662879 0.004552
C39   C     C_1   0.338536 0.499525 0.337118 0.004658
C40   C     C_1   0.661463 0.499616 0.662878 0.004551
C41   C     C_1   0.875940 0.999847 0.375691 -0.117244
C42   C     C_1   0.124060 0.999924 0.624307 -0.117466
C43   C     C_1   0.375940 0.499847 0.375690 -0.117225
C44   C     C_1   0.624060 0.499924 0.624306 -0.117480
C45   C     C_R   0.000146 0.000002 0.620684 0.848279
C46   C     C_R   0.999856 0.999993 0.379318 0.848155
C47   C     C_R   0.500146 0.500001 0.620684 0.848273
C48   C     C_R   0.499857 0.499993 0.379319 0.848154
C49   C     C_1   0.623902 0.000341 0.123381 -0.121539
C50   C     C_1   0.376098 0.000347 0.876619 -0.122852
C51   C     C_1   0.123902 0.500343 0.123380 -0.121555
C52   C     C_1   0.876098 0.500347 0.876619 -0.122817
C53   C     C_R   0.999970 0.920531 0.999934 0.804796
C54   C     C_R   0.499969 0.420531 0.999941 0.804739
C55   C     C_R   0.000027 0.000105 0.879439 0.849850
C56   C     C_R   0.999973 0.000092 0.120561 0.850363
C57   C     C_R   0.500027 0.500104 0.879439 0.849847
C58   C     C_R   0.499973 0.500093 0.120561 0.850319
C59   C     C_R   0.000013 0.079601 0.000012 0.916733
C60   C     C_R   0.500013 0.579601 0.000012 0.916710
C61   C     C_R   0.500000 0.920679 0.999994 0.808320
C62   C     C_R   0.000000 0.420679 0.999994 0.808331
C63   C     C_R   0.579360 0.000044 0.079232 0.812044
C64   C     C_R   0.420640 0.000040 0.920768 0.808530
C65   C     C_R   0.079360 0.500044 0.079231 0.812025
C66   C     C_R   0.920640 0.500041 0.920768 0.808558
C67   C     C_R   0.500052 0.079398 0.000059 0.808312
C68   C     C_R   0.000050 0.579398 0.000058 0.808303
C69   C     C_R   0.489976 0.228055 0.044975 -0.027069
C70   C     C_R   0.508414 0.227991 0.952517 -0.026047
C71   C     C_R   0.987553 0.728060 0.041384 -0.027234
C72   C     C_R   0.010879 0.727985 0.955905 -0.026223
C73   C     C_R   0.500077 0.206343 0.999987 -0.072727
C74   C     C_R   0.000078 0.706342 0.999960 -0.072696
C75   C     C_R   0.009743 0.771916 0.953791 0.064213
C76   C     C_R   0.986300 0.771988 0.039815 0.063521
C77   C     C_R   0.507240 0.271922 0.950496 0.064635
C78   C     C_R   0.488706 0.271984 0.043527 0.063806
C79   C     C_3   0.989768 0.962344 0.719334 -0.163556
C80   C     C_3   0.010145 0.962301 0.280552 -0.163887
C81   C     C_3   0.489760 0.462344 0.719325 -0.163671
C82   C     C_3   0.510143 0.462301 0.280550 -0.163825
C83   C     C_R   0.997996 0.793697 0.996732 0.074399
C84   C     C_R   0.497949 0.293697 0.996953 0.074461
C85   C     C_1   0.500176 0.161292 0.000182 0.059852
C86   C     C_1   0.000172 0.661291 0.000175 0.059683
C87   C     C_1   0.999107 0.838677 0.998352 -0.030570
C88   C     C_1   0.499085 0.338677 0.998490 -0.030255
C89   C     C_1   0.999756 0.876058 0.999391 -0.173451
C90   C     C_1   0.499749 0.376058 0.999462 -0.173325
C91   C     C_1   0.500138 0.123897 0.000161 -0.100186
C92   C     C_1   0.000134 0.623896 0.000159 -0.100265
C93   C     C_R   0.479593 0.772281 0.932493 -0.187971
C94   C     C_R   0.520505 0.772336 0.067543 -0.187934
C95   C     C_R   0.979584 0.272281 0.932493 -0.187972
C96   C     C_R   0.020512 0.272336 0.067545 -0.187918
C97   C     C_R   0.500040 0.793939 0.000011 0.090570
C98   C     C_R   0.000039 0.293939 0.000012 0.090580
C99   C     C_R   0.020758 0.228760 0.069014 -0.030978
C100  C     C_R   0.979371 0.228705 0.931055 -0.030835
C101  C     C_R   0.520751 0.728760 0.069012 -0.030974
C102  C     C_R   0.479380 0.728705 0.931054 -0.030848
C103  C     C_R   0.000068 0.206545 0.000039 -0.025714
C104  C     C_R   0.500069 0.706545 0.000038 -0.025727
C105  C     C_1   0.500023 0.838684 0.999999 -0.021110
C106  C     C_1   0.000023 0.338684 0.999999 -0.021098
C107  C     C_3   0.027775 0.972092 0.798989 -0.213458
C108  C     C_3   0.972161 0.972089 0.200927 -0.212678
C109  C     C_3   0.527769 0.472084 0.798983 -0.213472
C110  C     C_3   0.472160 0.472092 0.200927 -0.212524
C111  C     C_1   0.000058 0.161568 0.000041 0.062401
C112  C     C_1   0.500058 0.661568 0.000041 0.062420
C113  C     C_1   0.000042 0.124133 0.000034 -0.052504
C114  C     C_1   0.500042 0.624132 0.000033 -0.052490
C115  C     C_1   0.500011 0.876111 0.999993 -0.141921
C116  C     C_1   0.000010 0.376111 0.999992 -0.141918
C117  C     C_3   0.000158 0.000527 0.811337 -0.044491
C118  C     C_3   0.999846 0.000500 0.188667 -0.044582
C119  C     C_3   0.500157 0.500525 0.811337 -0.044451
C120  C     C_3   0.499847 0.500501 0.188667 -0.044623
C121  C     C_3   0.962159 0.990718 0.732628 -0.164067
C122  C     C_3   0.037822 0.990649 0.267343 -0.164124
C123  C     C_3   0.462157 0.490724 0.732626 -0.164074
C124  C     C_3   0.537822 0.490648 0.267342 -0.164243
C125  C     C_3   0.972984 0.028441 0.701744 -0.216388
C126  C     C_3   0.027090 0.028382 0.298347 -0.216368
C127  C     C_3   0.472990 0.528445 0.701751 -0.216357
C128  C     C_3   0.527093 0.528381 0.298349 -0.216365
C129  C     C_3   0.010937 0.037871 0.781142 -0.042815
C130  C     C_3   0.989159 0.037852 0.218980 -0.042852
C131  C     C_3   0.510945 0.537867 0.781151 -0.042820
C132  C     C_3   0.489163 0.537854 0.218984 -0.042844
C133  C     C_3   0.038283 0.009772 0.767967 -0.035524
C134  C     C_3   0.961745 0.009779 0.232068 -0.035705
C135  C     C_3   0.538285 0.509762 0.767969 -0.035536
C136  C     C_3   0.461747 0.509782 0.232071 -0.035735
Cu1   Cu    Cu3+1 0.000000 0.041030 0.500000 1.044452
Cu2   Cu    Cu3+1 0.500000 0.541030 0.500000 1.044440
Cu3   Cu    Cu3+1 0.000000 0.958990 0.500000 1.003698
Cu4   Cu    Cu3+1 0.500000 0.458990 0.500000 1.003704
Cu5   Cu    Cu3+1 0.041030 0.000050 0.040990 1.019453
Cu6   Cu    Cu3+1 0.958970 0.000050 0.959010 1.020105
Cu7   Cu    Cu3+1 0.541030 0.500050 0.040990 1.019535
Cu8   Cu    Cu3+1 0.458970 0.500050 0.959010 1.020200
Cu9   Cu    Cu3+1 0.500010 0.000050 0.062750 1.017076
Cu10  Cu    Cu3+1 0.499990 0.000050 0.937250 1.016099
Cu11  Cu    Cu3+1 0.000010 0.500050 0.062750 1.017174
Cu12  Cu    Cu3+1 0.999990 0.500050 0.937250 1.015986
H1    H     H_    0.050239 0.949075 0.839738 0.162237
H2    H     H_    0.949642 0.949093 0.160108 0.163033
H3    H     H_    0.550227 0.449061 0.839725 0.162249
H4    H     H_    0.449639 0.449099 0.160105 0.163105
H5    H     H_    0.789241 0.013796 0.383127 0.145081
H6    H     H_    0.210784 0.013961 0.616939 0.145075
H7    H     H_    0.289241 0.513792 0.383125 0.145085
H8    H     H_    0.710784 0.514001 0.616953 0.145058
H9    H     H_    0.464112 0.789719 0.880678 0.189156
H10   H     H_    0.535977 0.789818 0.119345 0.189251
H11   H     H_    0.964096 0.289719 0.880676 0.189139
H12   H     H_    0.035989 0.289818 0.119348 0.189251
H13   H     H_    0.980971 0.931221 0.692903 0.159539
H14   H     H_    0.018863 0.931164 0.306871 0.158145
H15   H     H_    0.480957 0.431223 0.692888 0.159449
H16   H     H_    0.518860 0.431164 0.306867 0.158091
H17   H     H_    0.930790 0.982789 0.718952 0.158492
H18   H     H_    0.069171 0.982688 0.280990 0.158063
H19   H     H_    0.430786 0.482801 0.718948 0.158466
H20   H     H_    0.569169 0.482684 0.280987 0.158045
H21   H     H_    0.950611 0.051554 0.661113 0.162159
H22   H     H_    0.049521 0.051473 0.339050 0.162122
H23   H     H_    0.450622 0.551563 0.661125 0.162157
H24   H     H_    0.549525 0.551470 0.339055 0.162113
O1    O     O_R   0.940150 0.034650 0.440170 -0.569211
O2    O     O_R   0.059850 0.034650 0.559830 -0.569061
O3    O     O_R   0.440150 0.534650 0.440170 -0.569225
O4    O     O_R   0.559850 0.534650 0.559830 -0.569054
O5    O     O_R   0.559860 0.000050 0.112810 -0.584902
O6    O     O_R   0.440140 0.000050 0.887190 -0.585527
O7    O     O_R   0.059860 0.500050 0.112810 -0.584880
O8    O     O_R   0.940140 0.500050 0.887190 -0.585566
O9    O     O_R   0.559850 0.999980 0.006800 -0.555218
O10   O     O_R   0.440150 0.999980 0.993200 -0.555492
O11   O     O_R   0.059850 0.499980 0.006800 -0.555262
O12   O     O_R   0.940150 0.499980 0.993200 -0.555515
O13   O     O_R   0.500000 0.059900 0.052920 -0.568025
O14   O     O_R   0.500000 0.059900 0.947080 -0.571029
O15   O     O_R   1.000000 0.559900 0.052920 -0.567704
O16   O     O_R   0.000000 0.559900 0.947080 -0.571387
O17   O     O_R   0.940170 0.965370 0.440140 -0.575609
O18   O     O_R   0.059830 0.965370 0.559860 -0.576022
O19   O     O_R   0.440170 0.465370 0.440140 -0.575565
O20   O     O_R   0.559830 0.465370 0.559860 -0.576055
O21   O     O_R   0.000010 0.034650 0.591580 -0.565003
O22   O     O_R   0.999990 0.034650 0.408420 -0.564885
O23   O     O_R   0.500010 0.534650 0.591580 -0.565010
O24   O     O_R   0.499990 0.534650 0.408420 -0.564891
O25   O     O_R   0.000020 0.965370 0.591550 -0.594462
O26   O     O_R   0.999980 0.965370 0.408450 -0.594775
O27   O     O_R   0.500020 0.465370 0.591550 -0.594490
O28   O     O_R   0.499980 0.465370 0.408450 -0.594738
O29   O     O_R   0.034640 0.940200 0.034570 -0.585879
O30   O     O_R   0.965360 0.940200 0.965430 -0.586230
O31   O     O_R   0.534640 0.440200 0.034570 -0.585819
O32   O     O_R   0.465360 0.440200 0.965430 -0.586171
O33   O     O_R   0.034640 0.000050 0.943030 -0.563051
O34   O     O_R   0.965360 0.000050 0.056970 -0.562978
O35   O     O_R   0.534640 0.500050 0.943030 -0.563007
O36   O     O_R   0.465360 0.500050 0.056970 -0.562962
O37   O     O_R   0.965370 0.000070 0.873780 -0.596675
O38   O     O_R   0.034630 0.000070 0.126220 -0.596771
O39   O     O_R   0.465370 0.500070 0.873780 -0.596709
O40   O     O_R   0.534630 0.500070 0.126220 -0.596776
O41   O     O_R   0.034650 0.059910 0.034650 -0.562581
O42   O     O_R   0.965350 0.059910 0.965350 -0.562860
O43   O     O_R   0.534650 0.559910 0.034650 -0.562594
O44   O     O_R   0.465350 0.559910 0.965350 -0.562856
O45   O     O_R   0.500030 0.940190 0.053050 -0.575192
O46   O     O_R   0.499970 0.940190 0.946950 -0.575011
O47   O     O_R   0.000030 0.440190 0.053050 -0.575196
O48   O     O_R   0.999970 0.440190 0.946950 -0.574987
C137  C     C_3   0.975009 0.795885 0.087546 -0.385813
C138  C     C_3   0.013289 0.803432 0.165945 -0.793169
H25   H     H_    0.027220 0.773492 0.194373 0.268915
H26   H     H_    0.036674 0.821696 0.162976 0.254559
H27   H     H_    0.004408 0.821051 0.199519 0.242107
H28   H     H_    0.960434 0.826101 0.061637 0.208536
H29   H     H_    0.951269 0.779453 0.091783 0.239720
C139  C     C_3   0.023490 0.795710 0.909608 -0.398862
C140  C     C_3   0.070298 0.802443 0.956616 -0.770057
H30   H     H_    0.079645 0.820465 0.007796 0.256387
H31   H     H_    0.086751 0.772229 0.973082 0.268184
H32   H     H_    0.079576 0.819992 0.923566 0.245622
H33   H     H_    0.014420 0.779509 0.857127 0.238408
H34   H     H_    0.007800 0.826231 0.890719 0.204690
C141  C     C_3   0.480043 0.295871 0.094887 -0.386467
C142  C     C_3   0.519998 0.303322 0.171123 -0.792929
H35   H     H_    0.534471 0.273348 0.198665 0.268828
H36   H     H_    0.542229 0.321553 0.164780 0.255070
H37   H     H_    0.513009 0.320937 0.207382 0.241689
H38   H     H_    0.465070 0.326125 0.070079 0.208086
H39   H     H_    0.457526 0.279469 0.102584 0.239661
C143  C     C_3   0.518379 0.295725 0.902465 -0.399114
C144  C     C_3   0.565085 0.302549 0.944732 -0.771069
H40   H     H_    0.576210 0.320600 0.996660 0.256528
H41   H     H_    0.581562 0.272365 0.959601 0.268569
H42   H     H_    0.572457 0.320104 0.908947 0.245029
H43   H     H_    0.507467 0.279495 0.849142 0.238327
H44   H     H_    0.502516 0.326212 0.884959 0.204756
C145  C     C_2   0.481614 0.204246 0.094505 0.853343
O49   O     O_2   0.447074 0.204753 0.083497 -0.586021
O50   O     O_R   0.513034 0.180046 0.151992 -0.748806
H45   H     H_    0.503568 0.164774 0.181340 0.343062
C146  C     C_2   0.519150 0.204111 0.906304 0.852654
O51   O     O_2   0.496136 0.204740 0.838057 -0.593304
O52   O     O_R   0.554918 0.179710 0.941382 -0.745014
H46   H     H_    0.558725 0.164415 0.904273 0.346032
C147  C     C_2   0.976634 0.704257 0.087399 0.853031
O53   O     O_2   0.941123 0.704748 0.071867 -0.586087
O54   O     O_R   0.006828 0.680082 0.146801 -0.748192
H47   H     H_    0.995655 0.664811 0.173409 0.343482
C148  C     C_2   0.024125 0.704098 0.913411 0.853023
O55   O     O_2   0.003197 0.704748 0.845009 -0.592708
O56   O     O_R   0.059818 0.679667 0.952048 -0.745805
H48   H     H_    0.065440 0.664372 0.917228 0.346308
C149  C     C_2   0.957150 0.207965 0.856250 0.862444
O57   O     O_2   0.963502 0.171583 0.849955 -0.592148
O58   O     O_R   0.929081 0.230617 0.792050 -0.757642
H49   H     H_    0.916108 0.213438 0.744645 0.347588
C150  C     C_2   0.043000 0.208081 0.143838 0.862689
O59   O     O_2   0.036774 0.171656 0.150144 -0.592151
O60   O     O_R   0.070953 0.230838 0.208043 -0.757325
H50   H     H_    0.083955 0.213692 0.255457 0.347813
C151  C     C_2   0.457167 0.707965 0.856250 0.862471
O61   O     O_2   0.463503 0.671579 0.849959 -0.592153
O62   O     O_R   0.429124 0.730623 0.792045 -0.757653
H51   H     H_    0.416154 0.713444 0.744641 0.347594
C152  C     C_2   0.542986 0.708081 0.143835 0.862665
O63   O     O_2   0.536764 0.671654 0.150136 -0.592170
O64   O     O_R   0.570927 0.730840 0.208045 -0.757361
H52   H     H_    0.583925 0.713694 0.255458 0.347798
C153  C     C_2   0.022669 0.080605 0.813890 0.884434
O65   O     O_2   0.029445 0.107476 0.781815 -0.556408
O66   O     O_R   0.025975 0.089528 0.880696 -0.759666
H53   H     H_    0.034478 0.119292 0.897268 0.352656
C154  C     C_2   0.977532 0.080600 0.186371 0.884173
O67   O     O_2   0.970820 0.107475 0.218531 -0.556756
O68   O     O_R   0.974250 0.089532 0.119597 -0.759800
H54   H     H_    0.965820 0.119305 0.103121 0.352472
C155  C     C_2   0.522684 0.580599 0.813906 0.884430
O69   O     O_2   0.529468 0.607468 0.781839 -0.556408
O70   O     O_R   0.525987 0.589523 0.880709 -0.759664
H55   H     H_    0.534494 0.619285 0.897285 0.352641
C156  C     C_2   0.477538 0.580602 0.186378 0.884172
O71   O     O_2   0.470829 0.607476 0.218542 -0.556777
O72   O     O_R   0.474254 0.589533 0.119601 -0.759797
H56   H     H_    0.465824 0.619306 0.103126 0.352479
C157  C     C_2   0.081351 0.020338 0.789998 0.876424
O73   O     O_2   0.108404 0.026213 0.855880 -0.569660
O74   O     O_R   0.090370 0.023630 0.735524 -0.756007
H57   H     H_    0.120347 0.031407 0.757444 0.344334
C158  C     C_2   0.918700 0.020381 0.210066 0.876731
O75   O     O_2   0.891666 0.026298 0.144204 -0.569726
O76   O     O_R   0.909681 0.023656 0.264542 -0.756005
H58   H     H_    0.879721 0.031456 0.242643 0.344122
C159  C     C_2   0.581355 0.520318 0.790004 0.876412
O77   O     O_2   0.608409 0.526188 0.855888 -0.569606
O78   O     O_R   0.590376 0.523607 0.735532 -0.756023
H59   H     H_    0.620355 0.531378 0.757455 0.344342
C160  C     C_2   0.418704 0.520387 0.210070 0.876782
O79   O     O_2   0.391670 0.526306 0.144209 -0.569714
O80   O     O_R   0.409684 0.523662 0.264546 -0.755998
H60   H     H_    0.379725 0.531463 0.242648 0.344112
C161  C     C_2   0.795243 0.984391 0.176703 0.892377
O81   O     O_2   0.824384 0.960189 0.204698 -0.566600
O82   O     O_R   0.783941 0.005653 0.111225 -0.729081
H61   H     H_    0.802162 0.998339 0.092486 0.362475
C162  C     C_2   0.204729 0.984370 0.823227 0.891946
O83   O     O_2   0.175547 0.960173 0.795130 -0.567908
O84   O     O_R   0.216066 0.005581 0.888795 -0.728262
H62   H     H_    0.197833 0.998239 0.907502 0.362319
C163  C     C_2   0.295242 0.484404 0.176700 0.892401
O85   O     O_2   0.324384 0.460202 0.204690 -0.566499
O86   O     O_R   0.283941 0.505670 0.111228 -0.729133
H63   H     H_    0.302162 0.498359 0.092489 0.362496
C164  C     C_2   0.704729 0.484319 0.823211 0.891984
O87   O     O_2   0.675544 0.460124 0.795086 -0.567936
O88   O     O_R   0.716069 0.505503 0.888804 -0.728194
H64   H     H_    0.697835 0.498145 0.907503 0.362324
C165  C     C_2   0.704341 0.982386 0.087302 0.910159
O89   O     O_2   0.675233 0.004125 0.042088 -0.562508
O90   O     O_R   0.715526 0.947949 0.062636 -0.735590
H65   H     H_    0.697325 0.944391 0.006310 0.347340
C166  C     C_2   0.295625 0.982324 0.912616 0.910641
O91   O     O_2   0.324777 0.004032 0.957928 -0.561204
O92   O     O_R   0.284372 0.947863 0.937123 -0.736620
H66   H     H_    0.302565 0.944262 0.993432 0.347154
C167  C     C_2   0.204341 0.482401 0.087298 0.910154
O93   O     O_2   0.175233 0.504142 0.042090 -0.562698
O94   O     O_R   0.215524 0.447968 0.062626 -0.735538
H67   H     H_    0.197324 0.444413 0.006300 0.347355
C168  C     C_2   0.795625 0.482272 0.912597 0.910636
O95   O     O_2   0.824776 0.503974 0.957931 -0.561144
O96   O     O_R   0.784373 0.447794 0.937067 -0.736626
H68   H     H_    0.802567 0.444175 0.993372 0.347158
C169  C     C_3   0.706980 0.018988 0.320362 -0.412221
C170  C     C_3   0.691986 0.063833 0.306705 -0.763353
H69   H     H_    0.718622 0.085324 0.327490 0.255320
H70   H     H_    0.669136 0.069591 0.246210 0.258030
H71   H     H_    0.676884 0.070321 0.337133 0.245456
H72   H     H_    0.680422 0.997597 0.301172 0.211473
H73   H     H_    0.728311 0.014262 0.381743 0.202689
C171  C     C_3   0.293053 0.019120 0.679721 -0.410524
C172  C     C_3   0.308129 0.063959 0.693563 -0.766724
H74   H     H_    0.281531 0.085454 0.672867 0.255872
H75   H     H_    0.330988 0.069680 0.754081 0.256139
H76   H     H_    0.323242 0.070476 0.663163 0.245836
H77   H     H_    0.319572 0.997726 0.698822 0.211317
H78   H     H_    0.271713 0.014432 0.618322 0.202592
C173  C     C_3   0.206981 0.518985 0.320360 -0.412127
C174  C     C_3   0.191988 0.563830 0.306709 -0.763548
H79   H     H_    0.218625 0.585319 0.327499 0.255339
H80   H     H_    0.169139 0.569590 0.246215 0.258044
H81   H     H_    0.176886 0.570317 0.337136 0.245461
H82   H     H_    0.180422 0.497596 0.301167 0.211492
H83   H     H_    0.228311 0.514257 0.381739 0.202705
C175  C     C_3   0.793053 0.519168 0.679739 -0.410429
C176  C     C_3   0.808128 0.564008 0.693621 -0.767069
H84   H     H_    0.781530 0.585500 0.672942 0.255934
H85   H     H_    0.830987 0.569714 0.754145 0.256216
H86   H     H_    0.823242 0.570543 0.663228 0.245620
H87   H     H_    0.819573 0.497778 0.698821 0.211276
H88   H     H_    0.771714 0.514496 0.618336 0.202559

loop_
_geom_bond_atom_site_label_1
_geom_bond_atom_site_label_2
_ccdc_geom_bond_type
C136  C160  S    
C99   C103  A    
C23   H7    S    
C165  O90   S    
O70   H55   S    
Cu9   Cu10  S    
C166  O91   D    
C79   C121  S    
C72   C148  S    
C20   C175  S    
C47   O23   A    
C109  H3    S    
C60   O43   A    
C61   O45   A    
C110  H4    S    
C46   O26   A    
C28   C40   S    
Cu7   Cu8   S    
C96   C99   A    
C9    C13   A    
C124  H20   S    
C11   C15   A    
C12   C16   A    
C68   O15   A    
C61   C115  S    
C125  H21   S    
C69   C145  S    
C97   C105  S    
C168  O96   S    
C130  C134  S    
Cu7   O43   S    
C79   H13   S    
C76   C83   A    
C82   C124  S    
C139  C140  S    
C172  H75   S    
C167  O93   D    
C25   C29   A    
C145  O50   S    
C27   C31   A    
O86   H63   S    
C2    O18   A    
C28   C32   A    
C26   C38   S    
C94   C97   A    
Cu2   O23   S    
C17   C21   A    
C19   C23   A    
Cu1   O1    S    
C140  H30   S    
C55   O37   A    
C18   C171  S    
C10   C30   A    
C6    C80   S    
O76   H58   S    
C16   C20   A    
C171  C172  S    
C111  C113  T    
C11   C167  S    
Cu2   Cu4   S    
C129  C133  S    
C1    C41   S    
C150  O60   S    
C35   C51   T    
Cu5   O41   S    
C104  C112  S    
C55   C117  S    
Cu10  O9    S    
C19   C173  S    
C84   C88   S    
C98   C106  S    
C59   O41   A    
C119  C123  S    
Cu12  O16   S    
C137  H29   S    
C77   C84   A    
C173  H83   S    
C62   O47   A    
Cu4   O28   S    
C154  O68   S    
C9    C165  S    
C68   C92   S    
C10   C166  S    
C176  H86   S    
Cu6   O34   S    
C127  C131  S    
O92   H66   S    
Cu10  O46   S    
C157  O73   D    
Cu11  O7    S    
O88   H64   S    
C140  H31   S    
C163  O85   D    
C173  C174  S    
C21   H5    S    
C175  H87   S    
Cu8   O39   S    
O60   H50   S    
Cu7   O31   S    
C57   O39   A    
C122  C126  S    
C63   O9    A    
C171  H78   S    
C109  C135  S    
C141  H38   S    
C110  C136  S    
Cu11  Cu12  S    
Cu3   O18   S    
C112  C114  T    
C5    C133  S    
C1    O1    A    
C145  O49   D    
C137  C138  S    
C82   H16   S    
C81   C123  S    
C95   H11   S    
C29   C161  S    
C54   C90   S    
C140  H32   S    
C148  O55   D    
C161  O82   S    
C127  H23   S    
C54   O31   A    
C142  H35   S    
Cu10  O6    S    
C147  O53   D    
C118  C122  S    
C169  H72   S    
C164  O88   S    
C141  H39   S    
C123  C127  S    
C8    C128  S    
C159  O78   S    
C96   C98   A    
C119  C131  S    
C173  H82   S    
C5    C79   S    
C117  C129  S    
C36   C52   T    
C64   O10   A    
Cu8   O32   S    
C152  O63   D    
C70   C77   A    
C157  O74   S    
C47   O27   A    
C72   C75   A    
C174  H79   S    
C46   O22   A    
C160  O80   S    
C131  C155  S    
C10   C14   A    
Cu8   O44   S    
C138  H27   S    
C143  H44   S    
Cu9   O13   S    
C129  C153  S    
C121  C125  S    
C156  O71   D    
C126  H22   S    
C125  C129  S    
C170  H70   S    
C58   O36   A    
C132  C136  S    
C144  H42   S    
C80   H14   S    
C155  O69   D    
C138  H26   S    
C149  O58   S    
C73   C85   S    
C139  H33   S    
C12   C168  S    
C108  H2    S    
C7    C81   S    
C26   C30   A    
C4    O4    A    
C93   C97   A    
C170  H71   S    
C21   C25   A    
Cu1   O22   S    
C18   C22   A    
C105  C115  T    
C24   C28   A    
C14   C34   S    
O58   H49   S    
Cu7   O40   S    
Cu2   O24   S    
C76   C137  S    
C71   C147  S    
C121  H17   S    
C80   C108  S    
C142  H37   S    
C13   C17   A    
C60   O44   A    
C16   C36   S    
C2    C42   S    
Cu12  O11   S    
C151  O62   S    
C122  H18   S    
C37   C41   T    
Cu5   O33   S    
C107  H1    S    
C67   O13   A    
C40   C44   T    
C56   O34   A    
C68   O16   A    
C94   H10   S    
C5    C125  S    
Cu2   O3    S    
Cu4   O19   S    
Cu6   O37   S    
C7    C127  S    
C174  H81   S    
O52   H46   S    
C1    O17   A    
Cu11  O12   S    
C83   C87   S    
C8    C136  S    
C4    O20   A    
O62   H51   S    
O96   H68   S    
C172  H74   S    
Cu3   O26   S    
O50   H45   S    
C80   C122  S    
C15   C19   A    
Cu1   Cu3   S    
C48   O28   A    
C8    C82   S    
Cu6   O30   S    
C101  C152  S    
C65   O11   A    
C71   C76   A    
C102  C104  A    
C126  C130  S    
C33   C49   T    
C144  H40   S    
C132  C156  S    
C103  C111  S    
C51   C65   S    
C162  O84   S    
C175  C176  S    
C60   C114  S    
Cu7   O35   S    
C141  C142  S    
C69   C73   A    
C32   C164  S    
C134  C158  S    
C124  C128  S    
C166  O92   S    
O82   H61   S    
Cu12  O8    S    
C150  O59   D    
C167  O94   S    
C158  O76   S    
C45   O21   A    
C55   O33   A    
C95   C98   A    
O78   H59   S    
C61   O46   A    
Cu6   O42   S    
C72   C74   A    
O72   H56   S    
C95   C100  A    
C65   O7    A    
Cu11  O15   S    
C160  O79   D    
C66   O8    A    
C137  H28   S    
C99   C150  S    
C100  C103  A    
C106  C116  T    
C62   O48   A    
O90   H65   S    
C8    C48   S    
C56   O38   A    
C154  O67   D    
C118  C130  S    
C64   O6    A    
O94   H67   S    
C70   C73   A    
C67   C91   S    
C143  C144  S    
C79   C107  S    
C176  H85   S    
Cu12  O48   S    
C6    C126  S    
C24   H8    S    
C3    O3    A    
C88   C90   T    
C101  C104  A    
C153  O66   S    
C175  H88   S    
C172  H76   S    
C52   C66   S    
C109  C119  S    
C56   C118  S    
Cu10  O14   S    
C158  O75   D    
Cu3   O17   S    
C93   C102  A    
C71   C74   A    
C58   O40   A    
C4    C44   S    
C53   O30   A    
O64   H52   S    
Cu1   O2    S    
C107  C133  S    
C75   C83   A    
C161  O81   D    
C146  O51   D    
C5    C45   S    
C54   O32   A    
C142  H36   S    
C102  C151  S    
C164  O87   D    
C53   O29   A    
C62   C116  S    
O84   H62   S    
Cu9   O45   S    
C156  O72   S    
C159  O77   D    
C22   C26   A    
C87   C89   T    
C133  C157  S    
C45   O25   A    
Cu5   O38   S    
C107  C117  S    
C7    C47   S    
Cu8   O36   S    
O80   H60   S    
C49   C63   S    
C50   C64   S    
C165  O89   D    
C14   C18   A    
C176  H84   S    
O74   H57   S    
C174  H80   S    
C85   C91   T    
C59   O42   A    
C168  O95   D    
C108  C134  S    
C3    C43   S    
C82   C110  S    
C75   C139  S    
Cu4   O27   S    
Cu5   O29   S    
C38   C42   T    
C131  C135  S    
C100  C149  S    
C31   C163  S    
C117  C121  S    
C25   C37   S    
C20   C24   A    
C94   C101  A    
C27   C39   S    
C78   C141  S    
C163  O86   S    
C23   C27   A    
C149  O57   D    
C139  H34   S    
C67   O14   A    
C59   C113  S    
C57   C119  S    
C123  H19   S    
C11   C31   A    
C171  H77   S    
C12   C32   A    
C81   H15   S    
C69   C78   A    
C138  H25   S    
C130  C154  S    
C128  C132  S    
C70   C146  S    
C15   C35   S    
Cu1   O21   S    
C34   C50   T    
C77   C143  S    
C108  C118  S    
C30   C162  S    
C110  C120  S    
C148  O56   S    
C39   C43   T    
C144  H41   S    
C153  O65   D    
Cu9   O10   S    
C147  O54   S    
C169  H73   S    
C7    C135  S    
C3    O19   A    
C146  O52   S    
C151  O61   D    
C17   C169  S    
C74   C86   S    
C93   H9    S    
C96   H12   S    
C128  H24   S    
C152  O64   S    
O68   H54   S    
Cu2   O4    S    
Cu4   O20   S    
C58   C120  S    
O54   H47   S    
O66   H53   S    
C135  C159  S    
C22   H6    S    
C66   O12   A    
C6    C46   S    
C120  C132  S    
C81   C109  S    
Cu3   O25   S    
C9    C29   A    
C57   O35   A    
C143  H43   S    
C63   O5    A    
O56   H48   S    
C6    C134  S    
C86   C92   T    
Cu5   Cu6   S    
C2    O2    A    
C53   C89   S    
C170  H69   S    
C155  O70   S    
C162  O83   D    
Cu11  O47   S    
C78   C84   A    
C13   C33   S    
Cu9   O5    S    
C169  C170  S    
C48   O24   A    
C120  C124  S    
