data_mof_unit_61660.cif
_audit_creation_date              2013-03-05T15:42:01-0500
_audit_creation_method            fapswitch 2.2
_symmetry_space_group_name_H-M    P1
_symmetry_Int_Tables_number       1
_space_group_crystal_system       triclinic
_cell_length_a                    21.764098
_cell_length_b                    21.764647
_cell_length_c                    47.15777
_cell_angle_alpha                 90.000787
_cell_angle_beta                  90.00171
_cell_angle_gamma                 90.083107
_cell_volume                      22338.0420122

loop_
_atom_site_label
_atom_site_type_symbol
_atom_site_description
_atom_site_fract_x
_atom_site_fract_y
_atom_site_fract_z
_atom_type_partial_charge
O1    O     O_R   0.999970 0.909590 0.023670 -0.627681
O2    O     O_R   0.090410 0.999970 0.023670 -0.627146
O3    O     O_R   0.000030 0.090410 0.023670 -0.627679
O4    O     O_R   0.909590 0.000030 0.023670 -0.627134
O5    O     O_R   0.499970 0.409590 0.523670 -0.628417
O6    O     O_R   0.590410 0.499970 0.523670 -0.627616
O7    O     O_R   0.500030 0.590410 0.523670 -0.628169
O8    O     O_R   0.409590 0.500030 0.523670 -0.627888
O9    O     O_R   1.000000 0.909590 0.976330 -0.553625
O10   O     O_R   0.090410 0.000000 0.976330 -0.554659
O11   O     O_R   1.000000 0.090410 0.976330 -0.553617
O12   O     O_R   0.909590 0.000000 0.976330 -0.554707
O13   O     O_R   0.500000 0.409590 0.476330 -0.553155
O14   O     O_R   0.590410 0.500000 0.476330 -0.553968
O15   O     O_R   0.500000 0.590410 0.476330 -0.553218
O16   O     O_R   0.409590 0.500000 0.476330 -0.553973
C1    C     C_R   0.998297 0.880828 0.000188 0.875764
C2    C     C_R   0.119163 0.998318 0.000191 0.875528
C3    C     C_R   0.001703 0.119172 0.000189 0.875773
C4    C     C_R   0.880837 0.001681 0.000190 0.875517
C5    C     C_R   0.498316 0.380830 0.500189 0.876078
C6    C     C_R   0.619162 0.498319 0.500191 0.875405
C7    C     C_R   0.501684 0.619170 0.500189 0.875987
C8    C     C_R   0.380837 0.501680 0.500190 0.875154
Zn1   Zn    Zn3+2 0.000000 0.000000 0.031610 1.047730
Zn2   Zn    Zn3+2 0.500000 0.500000 0.531610 1.044687
Zn3   Zn    Zn3+2 0.000000 0.000000 0.968400 1.181988
Zn4   Zn    Zn3+2 0.500000 0.500000 0.468400 1.185262
C9    C     C_2   0.716849 0.046145 0.982943 0.427260
C10   C     C_2   0.954218 0.716686 0.982769 0.423895
C11   C     C_2   0.283149 0.953854 0.982943 0.427312
C12   C     C_2   0.045781 0.283313 0.982770 0.423903
C13   C     C_2   0.216848 0.546139 0.482939 0.428696
C14   C     C_2   0.454175 0.216698 0.482811 0.426233
C15   C     C_2   0.783149 0.453859 0.482941 0.428633
C16   C     C_2   0.545824 0.783300 0.482813 0.427210
C17   C     C_2   0.683717 0.997751 0.991736 -0.329730
C18   C     C_2   0.002471 0.683718 0.991749 -0.323939
C19   C     C_2   0.316281 0.002248 0.991737 -0.329674
C20   C     C_2   0.997529 0.316281 0.991750 -0.323962
C21   C     C_2   0.183717 0.497748 0.491736 -0.329727
C22   C     C_2   0.502464 0.183715 0.491739 -0.328214
C23   C     C_2   0.816281 0.502251 0.491737 -0.329554
C24   C     C_2   0.497536 0.816284 0.491741 -0.328199
H1    H     H_    0.705412 0.953021 0.994059 0.150061
H2    H     H_    0.047157 0.705545 0.994244 0.151676
H3    H     H_    0.294586 0.046977 0.994063 0.150077
H4    H     H_    0.952843 0.294454 0.994244 0.151669
H5    H     H_    0.205411 0.453019 0.494062 0.149151
H6    H     H_    0.547168 0.205529 0.494185 0.151149
H7    H     H_    0.794586 0.546979 0.494065 0.149466
H8    H     H_    0.452832 0.794470 0.494187 0.150690
C25   C     C_2   0.784007 0.038702 0.981024 0.468385
C26   C     C_2   0.961637 0.783866 0.980885 0.469693
C27   C     C_2   0.215991 0.961296 0.981024 0.468469
C28   C     C_2   0.038362 0.216132 0.980887 0.469712
C29   C     C_2   0.284007 0.538696 0.481021 0.468396
C30   C     C_2   0.461606 0.283873 0.480916 0.469327
C31   C     C_2   0.715991 0.461301 0.481023 0.468443
C32   C     C_2   0.538393 0.716126 0.480918 0.469266
C33   C     C_2   0.814500 0.008944 0.001711 0.094877
C34   C     C_2   0.990981 0.814465 0.001693 0.096358
C35   C     C_2   0.185500 0.991052 0.001712 0.094826
C36   C     C_2   0.009021 0.185535 0.001694 0.096333
C37   C     C_2   0.314500 0.508943 0.501710 0.095685
C38   C     C_2   0.491045 0.314467 0.501695 0.093683
C39   C     C_2   0.685500 0.491055 0.501712 0.095845
C40   C     C_2   0.508956 0.685532 0.501696 0.094191
O17   O     O_R   0.500030 0.051130 0.958080 -0.619335
O18   O     O_R   0.948870 0.500030 0.958080 -0.619251
O19   O     O_R   0.499970 0.948870 0.958080 -0.619354
O20   O     O_R   0.051130 0.499970 0.958080 -0.619228
O21   O     O_R   0.000030 0.551130 0.458080 -0.619082
O22   O     O_R   0.448870 0.000030 0.458080 -0.620078
O23   O     O_R   0.999970 0.448870 0.458080 -0.619127
O24   O     O_R   0.551130 0.999970 0.458080 -0.619883
C41   C     C_R   0.499979 0.000001 0.944550 0.860446
C42   C     C_R   0.999999 0.500000 0.944559 0.861260
C43   C     C_R   1.000000 0.499999 0.444557 0.860727
C44   C     C_R   0.499999 0.000000 0.444544 0.863186
O25   O     O_R   0.590470 0.051110 0.000000 -0.549842
O26   O     O_R   0.948890 0.590470 0.000000 -0.553473
O27   O     O_R   0.409530 0.948890 0.000000 -0.549855
O28   O     O_R   0.051110 0.409530 0.000000 -0.553462
O29   O     O_R   0.090470 0.551110 0.500000 -0.546783
O30   O     O_R   0.448890 0.090470 0.500000 -0.551873
O31   O     O_R   0.909530 0.448890 0.500000 -0.546746
O32   O     O_R   0.551110 0.909530 0.500000 -0.550681
O33   O     O_R   0.590450 0.948970 0.000000 -0.635412
O34   O     O_R   0.051030 0.590450 0.000000 -0.631251
O35   O     O_R   0.409550 0.051030 0.000000 -0.635408
O36   O     O_R   0.948970 0.409550 0.000000 -0.631259
O37   O     O_R   0.090450 0.448970 0.500000 -0.639175
O38   O     O_R   0.551030 0.090450 0.500000 -0.634077
O39   O     O_R   0.909550 0.551030 0.500000 -0.638798
O40   O     O_R   0.448970 0.909550 0.500000 -0.635367
C45   C     C_R   0.618756 0.999907 0.997664 0.978392
C46   C     C_R   0.000170 0.618753 0.997662 0.977312
C47   C     C_R   0.381243 0.000092 0.997665 0.978365
C48   C     C_R   0.999830 0.381246 0.997663 0.977316
C49   C     C_R   0.118756 0.499907 0.497664 0.977787
C50   C     C_R   0.500169 0.118754 0.497663 0.978586
C51   C     C_R   0.881243 0.500093 0.497665 0.977991
C52   C     C_R   0.499831 0.881246 0.497664 0.977996
Zn5   Zn    Zn3+2 0.500010 0.068250 0.000000 1.056191
Zn6   Zn    Zn3+2 0.931750 0.500010 0.000000 1.056942
Zn7   Zn    Zn3+2 0.499990 0.931750 0.000000 1.056152
Zn8   Zn    Zn3+2 0.068250 0.499990 0.000000 1.056990
Zn9   Zn    Zn3+2 0.000010 0.568250 0.500000 1.055382
Zn10  Zn    Zn3+2 0.431750 0.000010 0.500000 1.049899
Zn11  Zn    Zn3+2 0.999990 0.431750 0.500000 1.054826
Zn12  Zn    Zn3+2 0.568250 0.999990 0.500000 1.054604
O41   O     O_R   0.499980 0.051120 0.041920 -0.616043
O42   O     O_R   0.948880 0.499980 0.041920 -0.615390
O43   O     O_R   0.500020 0.948880 0.041920 -0.616047
O44   O     O_R   0.051120 0.500020 0.041920 -0.615391
O45   O     O_R   0.999980 0.551120 0.541920 -0.615488
O46   O     O_R   0.448880 0.999980 0.541920 -0.614914
O47   O     O_R   0.000020 0.448880 0.541920 -0.615603
O48   O     O_R   0.551120 0.000020 0.541920 -0.619282
C53   C     C_R   0.500000 0.000000 0.055453 0.936767
C54   C     C_R   0.000001 0.500000 0.055446 0.935424
C55   C     C_R   1.000000 0.500000 0.555448 0.935527
C56   C     C_R   0.500002 0.999893 0.555453 0.934959
C57   C     C_R   0.965787 0.457081 0.190277 0.590497
C58   C     C_R   0.545512 0.969440 0.190264 0.590729
C59   C     C_R   0.034229 0.542911 0.190279 0.590494
C60   C     C_R   0.454478 0.030564 0.190263 0.590722
C61   C     C_R   0.463543 0.955426 0.690404 0.657712
C62   C     C_R   0.956818 0.466116 0.690285 0.589116
C63   C     C_R   0.535024 0.038723 0.690115 0.613866
C64   C     C_R   0.043173 0.533895 0.690287 0.589001
N1    N     N_R   0.000008 0.499996 0.176226 -0.390512
N2    N     N_R   0.499995 0.000002 0.176226 -0.390619
N3    N     N_R   0.499590 0.996571 0.676191 -0.362538
N4    N     N_R   0.999996 0.500005 0.676234 -0.390403
C65   C     C_R   0.035991 0.543170 0.220049 -0.212142
C66   C     C_R   0.453601 0.031642 0.220034 -0.213251
C67   C     C_R   0.964026 0.456821 0.220047 -0.212144
C68   C     C_R   0.546388 0.968360 0.220035 -0.213253
C69   C     C_R   0.536476 0.039689 0.719888 -0.220774
C70   C     C_R   0.043453 0.535645 0.720058 -0.215044
C71   C     C_R   0.461446 0.956014 0.720173 -0.226533
C72   C     C_R   0.956536 0.464367 0.720056 -0.215117
C73   C     C_R   0.000008 0.499995 0.235044 -0.166446
C74   C     C_R   0.499994 0.000001 0.235014 -0.166812
C75   C     C_R   0.498863 0.998184 0.735026 -0.166050
C76   C     C_R   0.999994 0.500007 0.735053 -0.167074
C77   C     C_R   0.073413 0.584595 0.235062 0.684924
C78   C     C_R   0.407217 0.062564 0.235077 0.687636
C79   C     C_R   0.926604 0.415395 0.235059 0.684927
C80   C     C_R   0.592772 0.937438 0.235079 0.687639
C81   C     C_R   0.575154 0.080182 0.734769 0.685860
C82   C     C_R   0.085182 0.572728 0.735072 0.685500
C83   C     C_R   0.422396 0.916349 0.735319 0.684452
C84   C     C_R   0.914805 0.427285 0.735068 0.685472
C85   C     C_R   0.577958 0.078816 0.764269 0.353299
C86   C     C_R   0.083283 0.575816 0.764559 0.352208
C87   C     C_R   0.419259 0.918980 0.764793 0.355782
C88   C     C_R   0.916704 0.424198 0.764555 0.352171
C89   C     C_R   0.076497 0.582660 0.264548 0.353755
C90   C     C_R   0.405869 0.061567 0.264608 0.358828
C91   C     C_R   0.923519 0.417330 0.264545 0.353752
C92   C     C_R   0.594118 0.938433 0.264610 0.358829
C93   C     C_R   0.538037 0.039638 0.779813 -0.185635
C94   C     C_R   0.042170 0.537639 0.779974 -0.185567
C95   C     C_R   0.459221 0.958597 0.780078 -0.186329
C96   C     C_R   0.957816 0.462375 0.779972 -0.185527
C97   C     C_R   0.037990 0.541857 0.279964 -0.183093
C98   C     C_R   0.453644 0.032111 0.279924 -0.186709
C99   C     C_R   0.962025 0.458134 0.279962 -0.183096
C100  C     C_R   0.546343 0.967889 0.279925 -0.186715
C101  C     C_R   0.498692 0.998822 0.765006 -0.097384
C102  C     C_R   0.999993 0.500007 0.765033 -0.100625
C103  C     C_R   0.000008 0.499995 0.265023 -0.100183
C104  C     C_R   0.499994 0.000000 0.264972 -0.094064
C105  C     C_R   0.535042 0.040689 0.809643 0.566187
C106  C     C_R   0.042626 0.534631 0.809805 0.566585
C107  C     C_R   0.462272 0.958410 0.809909 0.565145
C108  C     C_R   0.957360 0.465382 0.809804 0.566575
C109  C     C_R   0.034998 0.542329 0.309795 0.567929
C110  C     C_R   0.457892 0.035055 0.309671 0.561358
C111  C     C_R   0.965014 0.457662 0.309794 0.567936
C112  C     C_R   0.542094 0.964944 0.309672 0.561355
N5    N     N_R   0.498743 0.999690 0.823843 -0.356207
N6    N     N_R   0.999993 0.500006 0.823874 -0.355679
N7    N     N_R   0.000006 0.499996 0.323864 -0.355995
N8    N     N_R   0.499993 1.000000 0.323792 -0.353295
O49   O     O_2   0.933506 0.415184 0.175317 -0.427083
O50   O     O_2   0.589587 0.940377 0.175286 -0.427572
O51   O     O_2   0.066510 0.584808 0.175321 -0.427084
O52   O     O_2   0.410404 0.059628 0.175284 -0.427574
O53   O     O_2   0.429994 0.914238 0.675617 -0.429430
O54   O     O_2   0.914681 0.434149 0.675325 -0.425178
O55   O     O_2   0.568777 0.079231 0.675031 -0.427020
O56   O     O_2   0.085311 0.565861 0.675328 -0.425457
O57   O     O_2   0.567660 0.082390 0.824544 -0.508749
O58   O     O_2   0.085402 0.565527 0.824840 -0.511068
O59   O     O_2   0.429652 0.917162 0.825075 -0.508835
O60   O     O_2   0.914584 0.434486 0.824836 -0.511141
O61   O     O_2   0.066276 0.584826 0.324830 -0.511066
O62   O     O_2   0.421610 0.073673 0.324491 -0.506944
O63   O     O_2   0.933736 0.415166 0.324827 -0.511050
O64   O     O_2   0.578376 0.926325 0.324492 -0.506891
C113  C     C_R   0.477809 0.051271 0.869128 -0.073764
C114  C     C_R   0.050579 0.476665 0.869147 -0.075662
C115  C     C_R   0.520791 0.948487 0.869090 -0.075416
C116  C     C_R   0.949411 0.523342 0.869147 -0.075752
C117  C     C_R   0.977185 0.550816 0.369138 -0.073207
C118  C     C_R   0.552603 0.018476 0.369087 -0.077426
C119  C     C_R   0.022822 0.449179 0.369139 -0.073235
C120  C     C_R   0.447388 0.981525 0.369087 -0.077488
H9    H     H_    0.460629 0.090952 0.857787 0.165004
H10   H     H_    0.089648 0.458174 0.857793 0.166214
H11   H     H_    0.537703 0.908735 0.857716 0.164114
H12   H     H_    0.910342 0.541833 0.857793 0.166130
H13   H     H_    0.959094 0.590072 0.357784 0.166441
H14   H     H_    0.593300 0.033231 0.357750 0.156449
H15   H     H_    0.040914 0.409922 0.357786 0.166412
H16   H     H_    0.406689 0.966770 0.357749 0.156409
C121  C     C_R   0.478665 0.051611 0.898637 -0.184296
C122  C     C_R   0.050869 0.477205 0.898656 -0.182498
C123  C     C_R   0.520611 0.948311 0.898599 -0.183649
C124  C     C_R   0.949124 0.522799 0.898656 -0.182537
C125  C     C_R   0.977732 0.551101 0.398646 -0.184358
C126  C     C_R   0.552798 0.018030 0.398591 -0.180787
C127  C     C_R   0.022271 0.448895 0.398647 -0.184392
C128  C     C_R   0.447195 0.981971 0.398590 -0.180865
H17   H     H_    0.462044 0.091795 0.909789 0.172311
H18   H     H_    0.090383 0.459040 0.909805 0.180532
H19   H     H_    0.537450 0.908174 0.909716 0.172152
H20   H     H_    0.909611 0.540962 0.909806 0.180493
H21   H     H_    0.959987 0.590810 0.409791 0.172239
H22   H     H_    0.593911 0.032464 0.409705 0.173362
H23   H     H_    0.040016 0.409187 0.409793 0.172171
H24   H     H_    0.406083 0.967537 0.409703 0.173263
C129  C     C_R   0.499790 0.999992 0.913539 -0.035609
C130  C     C_R   0.999997 0.500001 0.913564 -0.045347
C131  C     C_R   0.000001 0.499998 0.413558 -0.035592
C132  C     C_R   0.499997 0.000000 0.413520 -0.038355
C133  C     C_R   0.499108 0.999825 0.854245 0.266456
C134  C     C_R   0.999995 0.500004 0.854279 0.265103
C135  C     C_R   0.000004 0.499997 0.354270 0.264930
C136  C     C_R   0.499995 0.000000 0.354205 0.276523
C137  C     C_R   0.949061 0.524238 0.130818 0.499986
C138  C     C_R   0.478431 0.947806 0.130846 0.499392
C139  C     C_R   0.050950 0.475758 0.130818 0.499988
C140  C     C_R   0.521561 0.052198 0.130847 0.499394
C141  C     C_R   0.448548 0.019280 0.631225 0.506786
C142  C     C_R   0.976038 0.551079 0.630826 0.499937
C143  C     C_R   0.551270 0.973455 0.630652 0.449766
C144  C     C_R   0.023957 0.448928 0.630827 0.499905
C145  C     C_R   0.949308 0.522873 0.101303 -0.170832
C146  C     C_R   0.479641 0.948179 0.101333 -0.170491
C147  C     C_R   0.050700 0.477125 0.101303 -0.170830
C148  C     C_R   0.520354 0.051824 0.101334 -0.170490
C149  C     C_R   0.448721 0.019922 0.601508 -0.308474
C150  C     C_R   0.977391 0.550816 0.601310 -0.171622
C151  C     C_R   0.551102 0.976216 0.601149 -0.168231
C152  C     C_R   0.022607 0.449188 0.601312 -0.172020
H25   H     H_    0.910136 0.541193 0.089927 0.203656
H26   H     H_    0.463302 0.908066 0.089978 0.204499
H27   H     H_    0.089870 0.458806 0.089927 0.203658
H28   H     H_    0.536694 0.091937 0.089980 0.204500
H29   H     H_    0.409319 0.037768 0.590151 0.180493
H30   H     H_    0.959280 0.590087 0.589937 0.201687
H31   H     H_    0.590665 0.959168 0.589643 0.202205
H32   H     H_    0.040717 0.409917 0.589939 0.201290
C153  C     C_R   0.000003 0.499999 0.086461 -0.236763
C154  C     C_R   0.499999 0.000001 0.086481 -0.237632
C155  C     C_R   0.500007 0.998883 0.586477 -0.177122
C156  C     C_R   0.999999 0.500001 0.586467 -0.234227
C157  C     C_R   0.000006 0.499998 0.145843 0.004420
C158  C     C_R   0.499996 0.000002 0.145858 0.005732
C159  C     C_R   0.499782 0.995945 0.645807 0.093849
C160  C     C_R   0.999997 0.500004 0.645852 0.006416
O65   O     O_3   0.688747 0.100893 0.975788 -0.710096
H33   H     H_    0.721250 0.130792 0.970574 0.371989
O66   O     O_3   0.899638 0.688385 0.975374 -0.719349
H34   H     H_    0.869811 0.720776 0.970041 0.369022
O67   O     O_3   0.311251 0.899109 0.975784 -0.710037
H35   H     H_    0.278749 0.869210 0.970569 0.372015
O68   O     O_3   0.100360 0.311614 0.975375 -0.719300
H36   H     H_    0.130187 0.279223 0.970042 0.369059
O69   O     O_3   0.188746 0.600883 0.475778 -0.710763
H37   H     H_    0.221248 0.630780 0.470562 0.370876
O70   O     O_3   0.399535 0.188422 0.475491 -0.712973
H38   H     H_    0.369689 0.220827 0.470197 0.370239
O71   O     O_3   0.811251 0.399115 0.475780 -0.710583
H39   H     H_    0.778749 0.369217 0.470564 0.371013
O72   O     O_3   0.600463 0.811577 0.475493 -0.711881
H40   H     H_    0.630308 0.779172 0.470199 0.370610
F1    F     F_    0.814294 0.064609 0.958753 -0.644968
F2    F     F_    0.936135 0.814047 0.958506 -0.648675
F3    F     F_    0.185701 0.935394 0.958752 -0.644853
F4    F     F_    0.063861 0.185951 0.958507 -0.648606
F5    F     F_    0.314294 0.564597 0.458750 -0.645738
F6    F     F_    0.435990 0.314059 0.458566 -0.644898
F7    F     F_    0.685701 0.435399 0.458751 -0.645649
F8    F     F_    0.564005 0.685940 0.458567 -0.644829
O73   O     O_3   0.783785 0.992274 0.026354 -0.782973
H41   H     H_    0.810520 0.965340 0.037947 0.371022
O74   O     O_3   0.007219 0.783790 0.026397 -0.783635
H42   H     H_    0.033960 0.810585 0.038093 0.371337
O75   O     O_3   0.216218 0.007716 0.026357 -0.782982
H43   H     H_    0.189483 0.034647 0.037951 0.371031
O76   O     O_3   0.992786 0.216211 0.026398 -0.783630
H44   H     H_    0.966046 0.189416 0.038094 0.371339
O77   O     O_3   0.283784 0.492279 0.526354 -0.784236
H45   H     H_    0.310519 0.465347 0.537948 0.369477
O78   O     O_3   0.507413 0.283793 0.526381 -0.785464
H46   H     H_    0.534188 0.310604 0.538052 0.371430
O79   O     O_3   0.716218 0.507719 0.526357 -0.783701
H47   H     H_    0.689483 0.534650 0.537951 0.369900
O80   O     O_3   0.492593 0.716207 0.526382 -0.784816
H48   H     H_    0.465820 0.689397 0.538054 0.371217
F9    F     F_    0.109866 0.625599 0.221267 -0.543489
F10   F     F_    0.361192 0.092350 0.221308 -0.542713
F11   F     F_    0.890151 0.374391 0.221262 -0.543486
F12   F     F_    0.638796 0.907652 0.221311 -0.542705
F13   F     F_    0.613095 0.119600 0.720844 -0.537642
F14   F     F_    0.126477 0.608852 0.721277 -0.537670
F15   F     F_    0.384495 0.876461 0.721656 -0.538054
F16   F     F_    0.873511 0.391161 0.721271 -0.537644
O81   O     O_3   0.621276 0.115695 0.777051 -0.618498
H49   H     H_    0.645467 0.088924 0.789866 0.371594
O82   O     O_3   0.121654 0.617658 0.777453 -0.618915
H50   H     H_    0.095673 0.642928 0.790169 0.372152
O83   O     O_3   0.375638 0.882826 0.777798 -0.619131
H51   H     H_    0.351732 0.910114 0.790492 0.372572
O84   O     O_3   0.878331 0.382357 0.777447 -0.619083
H52   H     H_    0.904311 0.357086 0.790164 0.372127
O85   O     O_3   0.118653 0.620686 0.277442 -0.626267
H53   H     H_    0.143730 0.594493 0.290147 0.371715
O86   O     O_3   0.355888 0.088187 0.277612 -0.626908
H54   H     H_    0.340638 0.058618 0.291974 0.366020
O87   O     O_3   0.881363 0.379303 0.277436 -0.626255
H55   H     H_    0.856284 0.405496 0.290141 0.371725
O88   O     O_3   0.644099 0.911813 0.277615 -0.626876
H56   H     H_    0.659349 0.941381 0.291978 0.366042
O89   O     O_3   0.898498 0.549825 0.143993 -0.701745
H57   H     H_    0.905976 0.553150 0.164618 0.351842
O90   O     O_3   0.455664 0.895852 0.144030 -0.702225
H58   H     H_    0.452711 0.902836 0.164703 0.352197
O91   O     O_3   0.101515 0.450171 0.143992 -0.701743
H59   H     H_    0.094039 0.446845 0.164617 0.351841
O92   O     O_3   0.544327 0.104153 0.144033 -0.702221
H60   H     H_    0.547277 0.097169 0.164706 0.352199
O93   O     O_3   0.399361 0.041531 0.646595 -0.708347
H61   H     H_    0.367319 0.056203 0.633275 0.348938
O94   O     O_3   0.950743 0.601789 0.644000 -0.705880
H62   H     H_    0.947438 0.594360 0.664630 0.350557
O95   O     O_3   0.602208 0.948337 0.643695 -0.702703
H63   H     H_    0.594086 0.943071 0.664188 0.343639
O96   O     O_3   0.049252 0.398218 0.644003 -0.706806
H64   H     H_    0.052555 0.405649 0.664632 0.350471

loop_
_geom_bond_atom_site_label_1
_geom_bond_atom_site_label_2
_geom_bond_distance
_ccdc_geom_bond_type
C55   C156  1.462768 S    
C56   C155  1.463216 S    
C112  O64   1.349203 S    
O8    Zn2   2.002992 S    
O72   H40   0.991454 S    
C14   C22   1.341370 D    
C150  H30   1.083761 S    
Zn10  O46   2.011691 S    
O87   H55   0.991330 S    
C109  N7    1.366406 A    
C98   C104  1.416071 A    
O85   H53   0.991330 S    
C86   C94   1.420351 A    
C34   O74   1.388697 S    
C99   C111  1.408336 A    
O30   Zn10  2.003327 S    
C82   C86   1.392772 A    
C115  C133  1.401014 A    
C9    O65   1.381979 S    
C32   F8    1.361761 S    
C33   O73   1.388678 S    
C10   C18   1.341357 D    
C30   F6    1.361762 S    
C73   C103  1.413771 A    
C74   C104  1.412757 A    
C141  C159  1.405610 A    
O3    C3    1.272519 A    
C143  O95   1.381258 S    
C142  C160  1.418227 A    
C115  H11   1.082905 S    
C68   C80   1.406180 A    
C114  H10   1.082899 S    
C88   O84   1.376319 S    
C42   C130  1.461646 S    
O40   Zn10  2.004719 S    
O26   C46   1.278550 A    
C21   H5    1.088136 S    
C84   F16   1.359076 S    
C63   O55   1.349468 S    
C94   C102  1.416906 A    
O12   Zn3   2.002925 S    
O28   C48   1.278550 A    
C138  C158  1.417895 A    
C149  H29   1.083540 S    
O39   Zn9   2.003604 S    
O37   C49   1.272292 A    
N6    C134  1.433865 S    
O17   Zn5   2.011663 S    
C120  H16   1.082926 S    
C96   C108  1.408357 A    
C137  C145  1.392198 A    
C76   C102  1.413785 A    
C121  C129  1.403154 A    
O22   Zn10  2.011677 S    
O74   H42   0.990950 S    
O11   Zn3   2.002955 S    
O11   C3    1.288041 A    
O12   C4    1.288052 A    
O13   C5    1.288022 A    
O46   C56   1.282645 A    
C8    C37   1.454405 S    
C107  N5    1.366342 A    
O36   Zn6   2.004719 S    
C13   O69   1.381979 S    
O40   C52   1.272379 A    
C125  C131  1.402867 A    
C16   C24   1.341372 D    
C17   H1    1.088138 S    
C144  C152  1.392216 A    
C19   H3    1.088136 S    
C145  H25   1.083770 S    
C20   H4    1.088123 S    
C109  O61   1.348955 S    
O34   C46   1.272357 A    
C20   C48   1.441960 S    
O47   C55   1.282531 A    
C117  H13   1.082898 S    
C13   C21   1.341304 D    
C37   O77   1.388680 S    
O10   C2    1.288050 A    
C87   C95   1.420318 A    
N3    C159  1.432931 S    
C88   C96   1.420350 A    
C6    C39   1.454406 S    
C69   C75   1.411980 A    
O86   H54   0.991156 S    
C106  N6    1.366391 A    
O31   Zn11  2.004343 S    
C58   N2    1.365243 A    
C14   C30   1.473431 S    
C124  C130  1.402822 A    
O10   Zn3   2.002900 S    
C115  C123  1.391571 A    
O93   H61   0.991703 S    
O43   C53   1.282649 A    
C5    C38   1.454512 S    
C93   C105  1.408405 A    
O35   Zn5   2.003604 S    
O17   C41   1.282737 A    
O94   H62   0.988783 S    
C18   C46   1.441962 S    
O4    Zn1   2.002992 S    
O79   H47   0.990989 S    
C96   C102  1.416906 A    
C10   C26   1.473499 S    
O7    Zn2   2.003052 S    
Zn5   O41   2.011709 S    
C11   O67   1.381977 S    
C128  C132  1.403207 A    
C29   F5    1.361758 S    
C83   F15   1.359078 S    
C144  O96   1.381653 S    
Zn11  O47   2.011699 S    
C4    C33   1.454405 S    
C58   O50   1.349426 S    
C60   C66   1.404270 A    
O20   C42   1.282528 A    
C54   C153  1.462589 S    
C31   C39   1.346431 D    
C61   N3    1.365529 A    
C25   C33   1.346424 D    
O20   Zn8   2.011655 S    
C27   C35   1.346429 D    
C28   C36   1.346458 D    
C138  O90   1.381710 S    
C152  H32   1.083761 S    
C12   O68   1.382018 S    
C62   C72   1.404459 A    
C63   C69   1.404534 A    
C27   F3    1.361758 S    
C89   C97   1.420348 A    
C28   F4    1.361757 S    
C105  O57   1.348941 S    
O65   H33   0.991451 S    
C98   C110  1.407329 A    
C118  C126  1.391369 A    
C113  C133  1.400976 A    
O32   C52   1.278531 A    
O39   C51   1.272292 A    
O25   Zn5   2.004343 S    
N1    C157  1.432776 S    
C92   O88   1.377287 S    
C83   C87   1.392792 A    
C84   C88   1.392769 A    
C123  C129  1.403008 A    
C85   C93   1.420296 A    
C59   O51   1.349416 S    
C60   O52   1.349425 S    
C120  C128  1.391369 A    
C72   C84   1.405462 A    
C108  O60   1.348953 S    
C60   N2    1.365244 A    
C19   C47   1.442033 S    
C64   N4    1.365364 A    
C29   C37   1.346429 D    
O71   H39   0.991451 S    
O21   C43   1.282599 A    
O5    C5    1.272474 A    
C110  N8    1.366436 A    
C70   C82   1.405462 A    
C137  O89   1.381649 S    
C144  C160  1.418227 A    
O38   C50   1.272379 A    
C108  N6    1.366391 A    
C26   F2    1.361756 S    
C149  C155  1.399815 A    
C22   H6    1.088122 S    
C92   C100  1.419755 A    
C121  H17   1.083144 S    
O30   C50   1.278534 A    
C143  C159  1.416928 A    
C150  C156  1.398871 A    
O96   H64   0.988783 S    
O24   C44   1.282887 A    
C90   O86   1.377285 S    
C116  C124  1.391629 A    
C119  H15   1.082899 S    
O1    C1    1.272518 A    
C126  H22   1.083113 S    
O14   C6    1.288045 A    
O34   Zn8   2.004719 S    
C69   C81   1.405566 A    
C15   O71   1.381979 S    
O23   C43   1.282597 A    
C66   C74   1.412370 A    
O7    C7    1.272475 A    
C67   C79   1.405450 A    
O8    C8    1.272378 A    
O26   Zn6   2.003327 S    
C18   H2    1.088122 S    
C77   F9    1.359077 S    
O41   C53   1.282651 A    
C122  H18   1.083204 S    
O68   H36   0.991451 S    
O27   C47   1.278677 A    
O35   C47   1.272305 A    
C100  C104  1.416073 A    
C82   F14   1.359076 S    
C16   O72   1.382014 S    
C95   C107  1.408325 A    
O19   Zn7   2.011673 S    
O19   C41   1.282778 A    
O90   H58   0.988775 S    
C117  C135  1.401137 A    
O95   H63   0.989108 S    
Zn9   O45   2.011709 S    
C89   O85   1.376311 S    
O44   C54   1.282465 A    
C114  C134  1.401162 A    
C65   C73   1.412166 A    
C116  C134  1.401163 A    
O29   Zn9   2.004343 S    
O18   C42   1.282529 A    
O6    C6    1.272380 A    
C105  N5    1.366305 A    
C15   C31   1.473606 S    
C143  C151  1.392618 A    
C145  C153  1.398818 A    
O66   H34   0.991450 S    
O13   Zn4   2.002967 S    
C94   C106  1.408355 A    
C91   C99   1.420348 A    
C95   C101  1.416868 A    
C91   O87   1.376312 S    
C113  H9    1.082897 S    
O80   H48   0.990958 S    
O22   C44   1.282888 A    
C41   C129  1.462448 S    
C117  C125  1.391610 A    
C123  H19   1.083149 S    
C78   C90   1.393071 A    
C126  C132  1.403205 A    
O76   H44   0.990952 S    
C119  C135  1.401142 A    
O3    Zn1   2.003052 S    
N7    C135  1.433884 S    
O18   Zn6   2.011677 S    
C68   C74   1.412367 A    
O92   H60   0.988776 S    
C139  O91   1.381647 S    
N5    C133  1.433725 S    
C138  C146  1.392026 A    
O77   H45   0.990989 S    
C148  C154  1.399145 A    
C66   C78   1.406180 A    
C40   O80   1.388690 S    
C152  C156  1.398874 A    
O84   H52   0.991329 S    
C140  C158  1.417894 A    
O69   H37   0.991452 S    
C111  N7    1.366407 A    
C1    C34   1.454633 S    
O88   H56   0.991155 S    
C90   C98   1.419753 A    
C3    C36   1.454633 S    
C127  C131  1.402866 A    
O33   Zn7   2.003604 S    
C79   F11   1.359074 S    
C97   C103  1.416902 A    
C80   F12   1.359076 S    
C97   C109  1.408337 A    
O37   Zn11  2.003604 S    
C31   F7    1.361757 S    
C142  O94   1.381652 S    
N8    C136  1.434228 S    
C77   C89   1.392756 A    
O9    Zn3   2.002967 S    
Zn12  O48   2.011713 S    
C110  O62   1.349199 S    
O73   H41   0.990988 S    
C59   N1    1.365369 A    
C141  C149  1.401481 A    
C62   O54   1.349415 S    
C75   C101  1.413830 A    
O21   Zn9   2.011663 S    
C61   C71   1.404646 A    
C151  C155  1.400103 A    
C26   C34   1.346459 D    
O23   Zn11  2.011673 S    
C71   C83   1.405576 A    
C125  H21   1.083171 S    
Zn8   O44   2.011713 S    
O82   H50   0.991332 S    
C23   H7    1.088136 S    
O15   Zn4   2.002955 S    
C107  O59   1.348977 S    
O28   Zn8   2.003327 S    
C21   C49   1.442033 S    
Zn7   O43   2.011699 S    
O2    Zn1   2.003012 S    
C81   C85   1.392791 A    
O81   H49   0.991334 S    
C23   C51   1.442031 S    
C151  H31   1.083719 S    
O5    Zn2   2.003045 S    
O32   Zn12  2.003327 S    
C32   C40   1.346407 D    
O75   H43   0.990989 S    
C9    C17   1.341308 D    
C141  O93   1.381094 S    
C11   C27   1.473609 S    
C12   C28   1.473495 S    
C139  C147  1.392200 A    
O16   Zn4   2.002925 S    
O78   H46   0.990960 S    
O2    C2    1.272377 A    
O83   H51   0.991315 S    
C35   O75   1.388673 S    
C43   C131  1.461839 S    
C72   C76   1.412175 A    
C15   C23   1.341304 D    
C17   C45   1.442037 S    
C24   C52   1.441979 S    
O6    Zn2   2.003012 S    
O89   H57   0.988781 S    
C57   C67   1.404442 A    
C81   F13   1.359080 S    
C71   C75   1.412065 A    
C58   C68   1.404270 A    
C10   O66   1.382016 S    
C9    C25   1.473612 S    
Zn6   O42   2.011691 S    
C114  C122  1.391628 A    
C63   N3    1.365805 A    
C124  H20   1.083206 S    
C2    C35   1.454409 S    
C93   C101  1.416942 A    
C137  C157  1.418247 A    
O38   Zn12  2.004719 S    
C36   O76   1.388698 S    
C122  C130  1.402822 A    
C30   C38   1.346406 D    
C39   O79   1.388675 S    
C11   C19   1.341308 D    
O15   C7    1.288022 A    
C86   O82   1.376318 S    
C106  O58   1.348953 S    
O16   C8    1.288049 A    
C119  C127  1.391607 A    
O1    Zn1   2.003045 S    
C65   C77   1.405451 A    
N4    C160  1.432776 S    
C140  O92   1.381711 S    
C22   C50   1.441986 S    
C25   F1    1.361758 S    
C64   C70   1.404458 A    
C87   O83   1.376387 S    
C70   C76   1.412175 A    
C85   O81   1.376295 S    
O67   H35   0.991451 S    
C99   C103  1.416903 A    
C146  C154  1.399143 A    
C112  N8    1.366437 A    
O33   C45   1.272305 A    
C7    C40   1.454514 S    
C100  C112  1.407323 A    
O24   Zn12  2.011655 S    
C14   O70   1.382013 S    
C146  H26   1.083734 S    
C80   C92   1.393067 A    
O9    C1    1.288042 A    
C79   C91   1.392760 A    
O70   H38   0.991455 S    
N2    C158  1.432125 S    
O31   C51   1.278687 A    
C139  C157  1.418243 A    
O29   C49   1.278688 A    
O36   C48   1.272357 A    
C147  C153  1.398820 A    
C57   N1    1.365366 A    
C67   C73   1.412166 A    
C13   C29   1.473611 S    
C62   N4    1.365363 A    
C147  H27   1.083770 S    
C16   C32   1.473424 S    
C61   O53   1.349468 S    
C38   O78   1.388690 S    
C140  C148  1.392028 A    
O4    C4    1.272373 A    
C78   F10   1.359076 S    
C127  H23   1.083170 S    
C118  H14   1.082926 S    
C111  O63   1.348954 S    
C44   C132  1.462999 S    
C148  H28   1.083734 S    
O45   C55   1.282529 A    
C118  C136  1.401350 A    
C120  C136  1.401352 A    
C24   H8    1.088124 S    
O25   C45   1.278676 A    
C113  C121  1.391741 A    
O27   Zn7   2.004343 S    
C12   C20   1.341358 D    
C128  H24   1.083112 S    
O42   C54   1.282464 A    
C116  H12   1.082897 S    
C64   O56   1.349415 S    
C57   O49   1.349415 S    
C59   C65   1.404439 A    
O14   Zn4   2.002900 S    
O91   H59   0.988785 S    
C53   C154  1.463202 S    
C142  C150  1.392218 A    
O48   C56   1.282589 A    
