data_mof_unit_53112.cif
_audit_creation_date              2012-12-11T15:23:42-0500
_audit_creation_method            fapswitch 2.2
_symmetry_space_group_name_H-M    P1
_symmetry_Int_Tables_number       1
_space_group_crystal_system       triclinic
_cell_length_a                    6.932368
_cell_length_b                    17.513304
_cell_length_c                    19.282336
_cell_angle_alpha                 109.534101
_cell_angle_beta                  90.208972
_cell_angle_gamma                 90.694591
_cell_volume                      2206.06273998

loop_
_atom_site_label
_atom_site_type_symbol
_atom_type_description
_atom_site_fract_x
_atom_site_fract_y
_atom_site_fract_z
_atom_type_partial_charge
O1    O     O_R   0.505810 0.439670 0.562310 -0.541758
O2    O     O_R   0.169070 0.404920 0.411210 -0.540795
O3    O     O_R   0.005550 0.560330 0.437690 -0.538200
C1    C     C_R   0.338322 0.381096 0.383309 0.689980
O4    O     O_R   0.175650 0.430000 0.560110 -0.539786
O5    O     O_R   0.012170 0.585580 0.587650 -0.538388
C2    C     C_R   0.344105 0.413002 0.580186 0.719010
O6    O     O_R   0.499180 0.414420 0.412350 -0.541839
O7    O     O_3   0.341430 0.551020 0.508860 -0.366476
V1    V     V_3+5 0.063930 0.490540 0.498360 1.388764
O8    O     O_R   0.682850 0.595080 0.588790 -0.541916
C3    C     C_R   0.853121 0.618346 0.616917 0.678104
O9    O     O_R   0.676280 0.570000 0.439890 -0.542259
C4    C     C_R   0.845364 0.585172 0.418227 0.713814
V2    V     V_3+5 0.564760 0.509460 0.501640 1.385770
O10   O     O_3   0.837130 0.448980 0.491140 -0.373381
C5    C     C_R   0.751149 0.871016 0.176481 -0.220005
C6    C     C_R   0.913935 0.866055 0.131709 -0.085576
C7    C     C_R   0.065629 0.814638 0.135135 -0.227801
C8    C     C_R   0.054530 0.767914 0.181762 0.090925
C9    C     C_R   0.891468 0.773783 0.226811 0.053176
C10   C     C_R   0.739764 0.825858 0.224398 0.088871
C11   C     C_R   0.203487 0.715217 0.184054 -0.183861
C12   C     C_R   0.192319 0.669443 0.231152 -0.192255
C13   C     C_R   0.031779 0.675396 0.276730 0.088839
C14   C     C_R   0.880047 0.727456 0.274325 0.052880
C15   C     C_R   0.716878 0.733220 0.319304 0.090190
C16   C     C_R   0.568136 0.786075 0.317136 -0.181564
C17   C     C_R   0.579416 0.831940 0.270098 -0.191257
C18   C     C_R   0.020158 0.630016 0.324435 -0.218718
C19   C     C_R   0.856982 0.634591 0.368924 -0.087178
C20   C     C_R   0.705424 0.686163 0.365665 -0.227218
H1    H     H_    0.634192 0.910943 0.174822 0.122496
H2    H     H_    0.191391 0.810156 0.100807 0.127799
H3    H     H_    0.329446 0.709733 0.149696 0.134221
H4    H     H_    0.309981 0.629651 0.232193 0.131081
H5    H     H_    0.137206 0.590126 0.326075 0.124605
H6    H     H_    0.579497 0.690463 0.399876 0.128274
H7    H     H_    0.442183 0.791560 0.351496 0.135046
H8    H     H_    0.461867 0.871809 0.269117 0.131148
C21   C     C_3   0.709316 0.777451 0.773190 -0.109919
C22   C     C_3   0.799105 0.774825 0.699005 -0.143619
H9    H     H_    0.727431 0.794817 0.656560 0.102232
H10   H     H_    0.563527 0.800298 0.792513 0.111181
C23   C     C_3   0.869220 0.688543 0.687599 -0.005966
C24   C     C_3   0.779569 0.690338 0.760968 -0.146383
C25   C     C_3   0.971948 0.725069 0.801053 -0.145057
C26   C     C_3   0.061737 0.722443 0.726868 -0.110210
C27   C     C_3   0.991486 0.809555 0.739090 -0.145531
C28   C     C_3   0.901833 0.811352 0.812461 -0.006587
H11   H     H_    0.691670 0.640815 0.769417 0.098186
H12   H     H_    0.207523 0.699593 0.707543 0.111853
H13   H     H_    0.079386 0.859077 0.730636 0.098473
C29   C     C_3   0.484151 0.236984 0.303230 0.349425
C30   C     C_3   0.325433 0.179383 0.258208 -0.143541
H14   H     H_    0.277989 0.121624 0.265169 0.100304
C31   C     C_3   0.415193 0.188658 0.187950 -0.052741
C32   C     C_3   0.576204 0.245048 0.233509 -0.165853
C33   C     C_3   0.445569 0.319212 0.242143 -0.186402
C34   C     C_3   0.285151 0.262127 0.195563 -0.116214
C35   C     C_3   0.196288 0.253948 0.266672 -0.166537
C36   C     C_3   0.356222 0.310511 0.312613 -0.066093
H15   H     H_    0.731876 0.240966 0.219980 0.108545
H16   H     H_    0.492890 0.377148 0.235514 0.113749
H17   H     H_    0.203033 0.272478 0.150051 0.108734
H18   H     H_    0.040979 0.258109 0.280764 0.116727
C37   C     C_R   0.266755 0.117128 0.815037 -0.216597
C38   C     C_R   0.416907 0.132444 0.867362 -0.086091
C39   C     C_R   0.556130 0.192659 0.870484 -0.224416
C40   C     C_R   0.542710 0.238752 0.823298 0.098729
C41   C     C_R   0.391370 0.222901 0.770857 0.065729
C42   C     C_R   0.255108 0.160913 0.766117 0.099616
C43   C     C_R   0.677749 0.300504 0.827628 -0.179464
C44   C     C_R   0.661690 0.346810 0.781228 -0.180751
C45   C     C_R   0.511864 0.331535 0.728896 0.090376
C46   C     C_R   0.376881 0.268782 0.722906 -0.002443
C47   C     C_R   0.229497 0.250940 0.668545 0.069380
C48   C     C_R   0.100519 0.186082 0.662777 -0.161045
C49   C     C_R   0.110824 0.142923 0.711852 -0.207504
C50   C     C_R   0.496760 0.377654 0.682186 -0.285013
C51   C     C_R   0.352036 0.361247 0.627715 -0.144533
C52   C     C_R   0.217213 0.296841 0.620283 0.237072
H19   H     H_    0.160794 0.069850 0.811443 0.119269
H20   H     H_    0.672421 0.204731 0.910623 0.125113
H21   H     H_    0.795358 0.313316 0.867211 0.126044
H22   H     H_    0.599052 0.426852 0.688212 0.130770
H23   H     H_    0.990483 0.167866 0.620316 0.161925
H24   H     H_    0.006992 0.094514 0.706632 0.127124
O11   O     O_R   0.271890 0.085690 0.087580 -0.536986
O12   O     O_R   0.595690 0.070020 0.939870 -0.541767
O13   O     O_R   0.758900 0.914390 0.912370 -0.538901
C53   C     C_R   0.427035 0.084798 0.917944 0.710192
O14   O     O_R   0.602020 0.095100 0.088770 -0.541470
O15   O     O_R   0.765280 0.939660 0.062330 -0.539656
C54   C     C_R   0.432892 0.118528 0.116977 0.689611
O16   O     O_R   0.265520 0.060430 0.937620 -0.539210
O17   O     O_3   0.429560 0.949050 0.991100 -0.369636
V3    V     V_3+5 0.707160 0.009450 0.001650 1.400173
O18   O     O_R   0.094540 0.929890 0.060190 -0.543737
C55   C     C_R   0.925435 0.915018 0.082027 0.709429
O19   O     O_R   0.088200 0.904800 0.911290 -0.543138
C56   C     C_R   0.917934 0.881559 0.883141 0.678952
V4    V     V_3+5 0.206300 0.990390 0.998440 1.396535
O20   O     O_3   0.934030 0.050940 0.008900 -0.366886
H25   H     H_    0.043625 0.705076 0.843497 0.101588
N1    N     N_2   0.592062 0.224256 0.362779 -0.534169
H26   H     H_    0.677396 0.273448 0.391230 0.260856
C57   C     C_3   0.694641 0.148701 0.343169 -0.568733
H27   H     H_    0.765784 0.143222 0.392948 0.208896
H28   H     H_    0.806955 0.146781 0.301666 0.185450
H29   H     H_    0.593142 0.096577 0.320806 0.202656
H30   H     H_    0.767608 0.394333 0.785913 0.122563
N2    N     N_2   0.079185 0.273990 0.561502 -0.536102
H31   H     H_    0.126057 0.279703 0.512765 0.259106
C58   C     C_3   0.886119 0.303789 0.581254 -0.490184
H32   H     H_    0.789044 0.280450 0.532577 0.194624
H33   H     H_    0.885210 0.370967 0.600681 0.207981
H34   H     H_    0.828518 0.282939 0.625474 0.195157

loop_
_geom_bond_atom_site_label_1
_geom_bond_atom_site_label_2
_ccdc_geom_bond_type
C48   H23   S    
O18   V4    S    
C9    C14   A    
C37   H19   S    
O19   C56   A    
C10   C17   A    
C21   C22   S    
C7    C8    A    
C4    C19   S    
C1    O6    A    
O17   V3    S    
C23   C24   S    
C14   C15   A    
C12   H4    S    
C6    C55   S    
C16   C17   A    
C6    C7    A    
C42   C49   A    
C44   H30   S    
C41   C46   A    
V3    O20   S    
N1    H26   S    
O15   V3    S    
V2    O10   S    
C1    C36   S    
C53   O16   A    
C57   H27   S    
C37   C42   A    
C43   C44   A    
C50   H22   S    
C24   C25   S    
O8    V2    S    
C35   H18   S    
C19   C20   A    
C38   C39   A    
C25   H25   S    
C21   C24   S    
C40   C41   A    
O1    V2    S    
C20   H6    S    
C45   C50   A    
C33   C34   S    
O19   V4    S    
O9    C4    A    
O11   V4    S    
C35   C36   S    
C5    H1    S    
C40   C43   A    
C49   H24   S    
C51   C52   A    
C25   C28   S    
C44   C45   A    
C29   N1    S    
C37   C38   A    
C26   H12   S    
C12   C13   A    
O4    C2    A    
C48   C49   A    
C50   C51   A    
C31   C34   S    
C29   C36   S    
C16   H7    S    
C58   H33   S    
C32   C33   S    
C47   C48   A    
C24   H11   S    
C18   H5    S    
C34   C35   S    
C22   C23   S    
O11   C54   A    
O2    C1    A    
C45   C46   A    
O12   C53   A    
C25   C26   S    
C8    C11   A    
O15   C55   A    
C11   C12   A    
C58   H34   S    
C30   H14   S    
C29   C32   S    
C5    C6    A    
C33   H16   S    
C46   C47   A    
C43   H21   S    
O17   V4    S    
O3    C4    A    
C26   C27   S    
C2    C51   S    
C34   H17   S    
C28   C56   S    
O6    V2    S    
C11   H3    S    
C30   C31   S    
C21   H10   S    
C22   H9    S    
O13   C56   A    
O2    V1    S    
C21   C28   S    
V4    O20   S    
N2    H31   S    
O7    V1    S    
C23   C26   S    
C13   C18   A    
C29   C30   S    
C33   C36   S    
C15   C20   A    
O1    C2    A    
C32   H15   S    
C52   N2    S    
C3    C23   S    
C7    H2    S    
O5    V1    S    
O8    C3    A    
C57   H29   S    
C5    C10   A    
O18   C55   A    
O9    V2    S    
C13   C14   A    
C41   C42   A    
O3    V1    S    
V1    O10   S    
O5    C3    A    
C31   C32   S    
C18   C19   A    
N1    C57   S    
C47   C52   A    
C27   H13   S    
C30   C35   S    
C17   H8    S    
C38   C53   S    
C57   H28   S    
O13   V3    S    
O7    V2    S    
C39   C40   A    
C22   C27   S    
O4    V1    S    
C8    C9    A    
O14   C54   A    
C27   C28   S    
C31   C54   S    
O16   V4    S    
C15   C16   A    
C39   H20   S    
C9    C10   A    
O14   V3    S    
O12   V3    S    
C58   H32   S    
N2    C58   S    
