data_mof_unit_51622.cif
_audit_creation_date              2013-03-05T16:31:28-0500
_audit_creation_method            fapswitch 2.2
_symmetry_space_group_name_H-M    P1
_symmetry_Int_Tables_number       1
_space_group_crystal_system       triclinic
_cell_length_a                    14.992614
_cell_length_b                    10.820686
_cell_length_c                    9.575092
_cell_angle_alpha                 89.623364
_cell_angle_beta                  88.937381
_cell_angle_gamma                 90.368884
_cell_volume                      1553.0365733

loop_
_atom_site_label
_atom_site_type_symbol
_atom_site_description
_atom_site_fract_x
_atom_site_fract_y
_atom_site_fract_z
_atom_type_partial_charge
O1    O     O_R   0.500000 0.319640 0.618810 -0.563591
O2    O     O_R   0.500010 0.319680 0.381230 -0.589767
C1    C     C_R   0.500874 0.262390 0.500180 0.815231
O3    O     O_R   0.370250 0.499950 0.618800 -0.542319
O4    O     O_R   0.370260 0.499990 0.381220 -0.584902
C2    C     C_R   0.329204 0.497807 0.501026 0.856360
Cu1   Cu    Cu3+1 0.500000 0.499980 0.640670 0.968441
Cu2   Cu    Cu3+1 0.500000 0.500020 0.359330 0.943685
O5    O     O_R   0.499990 0.680320 0.618770 -0.579219
O6    O     O_R   0.500000 0.680360 0.381190 -0.585595
O7    O     O_R   0.629740 0.500010 0.618780 -0.582164
O8    O     O_R   0.629750 0.500050 0.381200 -0.595070
C3    C     C_R   0.501178 0.737550 0.499577 0.788895
C4    C     C_R   0.670936 0.500185 0.498931 0.785081
C5    C     C_R   0.814791 0.602661 0.451010 -0.167309
C6    C     C_R   0.767223 0.498671 0.496868 -0.071365
C7    C     C_R   0.811162 0.394291 0.544696 -0.194836
C8    C     C_R   0.904035 0.392664 0.546009 0.079067
C9    C     C_R   0.953337 0.497399 0.500568 0.032110
C10   C     C_R   0.908300 0.603542 0.451445 -0.036873
C11   C     C_R   0.947565 0.288531 0.595660 -0.210711
C12   C     C_R   0.040299 0.285022 0.601556 0.334847
C13   C     C_R   0.092243 0.387318 0.551532 -0.032888
C14   C     C_R   0.047114 0.495903 0.505050 -0.048692
C15   C     C_R   0.095552 0.602782 0.461451 -0.033813
C16   C     C_R   0.050655 0.709508 0.414660 0.262400
C17   C     C_R   0.957150 0.709170 0.407924 0.244427
C18   C     C_R   0.187022 0.385950 0.542272 0.186640
C19   C     C_R   0.232825 0.494384 0.503302 -0.103371
C20   C     C_R   0.188383 0.600077 0.462432 -0.212070
H1    H     H_    0.778016 0.683511 0.419559 0.160758
H2    H     H_    0.772747 0.314574 0.580889 0.134649
H3    H     H_    0.909046 0.209955 0.634618 0.189099
H4    H     H_    0.227888 0.679171 0.428432 0.186743
C21   C     C_R   0.512056 0.062699 0.624442 0.127192
C22   C     C_R   0.508368 0.129191 0.499394 -0.099228
C23   C     C_R   0.516036 0.065271 0.372325 -0.208341
H5    H     H_    0.517787 0.113911 0.273072 0.166575
C24   C     C_R   0.515852 0.936594 0.372035 -0.205537
H6    H     H_    0.516605 0.889287 0.272911 0.168535
C25   C     C_R   0.508815 0.870762 0.498664 -0.085639
C26   C     C_R   0.512567 0.935409 0.624059 0.119344
C27   C     C_3   0.452622 0.926683 0.750070 -0.436435
C28   C     C_3   0.451555 0.066822 0.749956 -0.463813
H7    H     H_    0.386683 0.884435 0.727285 0.218800
H8    H     H_    0.487048 0.886487 0.841409 0.191749
H9    H     H_    0.385029 0.105637 0.725935 0.212054
H10   H     H_    0.484896 0.107570 0.841780 0.192705
C29   C     C_R   0.552802 0.581281 0.071225 0.182046
N1    N     N_R   0.500570 0.500930 0.147930 -0.214364
C30   C     C_R   0.441092 0.430303 0.077797 -0.123042
H11   H     H_    0.394592 0.372401 0.136623 0.149733
C31   C     C_R   0.438270 0.433589 0.929173 0.318357
N2    N     N_R   0.500570 0.500890 0.852020 -0.195264
C32   C     C_R   0.554442 0.578642 0.924092 0.140705
C33   C     C_3   0.653734 0.585787 0.914730 -0.439572
C34   C     C_3   0.652341 0.592507 0.073992 0.031614
H12   H     H_    0.683553 0.498338 0.876083 0.190066
H13   H     H_    0.677644 0.668995 0.857069 0.207415
H14   H     H_    0.684800 0.511627 0.123576 0.161618
N3    N     N_2   0.368399 0.369774 0.862120 -0.389324
H15   H     H_    0.368302 0.276680 0.885274 0.226756
C35   C     C_3   0.281315 0.423055 0.889460 -0.598425
H16   H     H_    0.262337 0.414022 0.001828 0.205849
H17   H     H_    0.230220 0.374140 0.828643 0.247235
H18   H     H_    0.280956 0.522309 0.858867 0.241489
N4    N     N_2   0.682299 0.709445 0.133129 -0.356823
H19   H     H_    0.674920 0.710398 0.240289 0.267973
C36   C     C_3   0.656576 0.825871 0.069662 -0.585644
H20   H     H_    0.672109 0.903021 0.141427 0.231959
H21   H     H_    0.584036 0.827307 0.048771 0.181517
H22   H     H_    0.695450 0.843041 0.971809 0.238676
N5    N     N_R   0.078416 0.181180 0.670975 0.108583
O9    O     O_R   0.063330 0.070666 0.623800 -0.264123
O10   O     O_R   0.103477 0.193468 0.799580 -0.369082
N6    N     N_2   0.238160 0.275903 0.556067 -0.457866
H23   H     H_    0.236137 0.230050 0.650272 0.296246
C37   C     C_3   0.242834 0.198691 0.433526 -0.547166
H24   H     H_    0.289197 0.120906 0.452233 0.231474
H25   H     H_    0.268580 0.252972 0.342267 0.208053
H26   H     H_    0.175876 0.160634 0.409839 0.279822
N7    N     N_R   0.099700 0.817754 0.369992 0.147032
O11   O     O_R   0.149426 0.876893 0.457581 -0.330466
O12   O     O_R   0.089004 0.863102 0.245279 -0.283983
N8    N     N_R   0.912235 0.817594 0.359206 0.143767
O13   O     O_R   0.866801 0.813616 0.244863 -0.331936
O14   O     O_R   0.923952 0.922996 0.421084 -0.282744

loop_
_geom_bond_atom_site_label_1
_geom_bond_atom_site_label_2
_geom_bond_distance
_ccdc_geom_bond_type
C32   C33   1.491166 S    
C35   H17   1.105208 S    
C8    C11   1.391238 A    
N5    O9    1.301008 A    
C21   C22   1.394992 A    
C3    C25   1.445214 S    
Cu1   Cu2   2.693854 S    
C24   C25   1.404148 A    
N8    O13   1.300933 A    
Cu1   O7    1.952530 S    
C16   C17   1.404541 A    
C23   H5    1.083134 S    
C18   C19   1.400673 A    
N6    C37   1.445778 S    
O1    C1    1.297299 A    
O4    C2    1.291767 A    
O7    C4    1.293074 A    
C37   H25   1.111467 S    
C11   H3    1.084945 S    
C5    C6    1.392533 A    
C29   C34   1.497238 S    
C33   C34   1.526921 S    
C17   N8    1.436015 S    
C8    C9    1.410975 A    
C25   C26   1.395399 A    
C36   H21   1.109628 S    
C21   C26   1.377460 A    
O5    C3    1.294660 A    
C31   N3    1.416990 S    
C9    C10   1.418086 A    
C31   N2    1.380968 A    
C6    C7    1.390443 A    
C13   C14   1.432108 A    
C28   H9    1.112081 S    
C35   H18   1.111438 S    
C16   N7    1.437438 S    
C11   C12   1.393268 A    
N5    O10   1.301496 A    
N3    H15   1.030016 S    
C34   N4    1.461161 S    
O3    Cu1   1.960388 S    
N1    C30   1.360281 A    
N8    O14   1.301097 A    
C5    C10   1.401996 A    
C20   H4    1.082560 S    
C30   H11   1.082141 S    
C14   C15   1.418003 A    
O3    C2    1.294923 A    
C24   H6    1.081228 S    
C37   H24   1.110794 S    
C34   H14   1.112101 S    
C15   C16   1.414891 A    
C29   C32   1.409048 A    
N4    H19   1.030097 S    
N4    C36   1.452605 S    
C36   H22   1.108218 S    
C27   C28   1.516586 S    
C19   C20   1.385168 A    
Cu2   O8    1.960386 S    
N3    C35   1.450710 S    
C7    C8    1.392915 A    
C13   C18   1.422294 A    
N6    H23   1.026474 S    
C21   C28   1.493288 S    
C27   H7    1.112388 S    
O8    C4    1.295334 A    
C29   N1    1.367529 A    
N7    O12   1.301099 A    
C4    C6    1.443576 S    
C26   C27   1.493194 S    
C18   N6    1.427118 S    
Cu2   N1    2.023993 S    
C15   C20   1.392471 A    
Cu1   O5    1.961266 S    
N2    C32   1.362340 A    
C22   C23   1.406721 A    
O1    Cu1   1.963964 S    
O2    Cu2   1.961266 S    
O6    C3    1.295401 A    
O4    Cu2   1.952532 S    
C5    H1    1.081183 S    
C10   C17   1.409979 A    
C12   N5    1.429512 S    
C33   H13   1.107225 S    
C9    C14   1.407620 A    
C23   C24   1.392383 A    
C37   H26   1.110468 S    
C1    C22   1.446457 S    
C33   H12   1.111800 S    
O2    C1    1.293470 A    
C36   H20   1.110996 S    
C27   H8    1.111351 S    
C35   H16   1.111321 S    
C2    C19   1.444966 S    
Cu2   O6    1.963964 S    
N7    O11   1.301072 A    
C7    H2    1.085427 S    
C12   C13   1.424522 A    
Cu1   N2    2.023961 S    
C30   C31   1.424713 A    
C28   H10   1.111695 S    
