data_mof_unit_35234.cif
_audit_creation_date              2012-10-26T19:03:01-0400
_audit_creation_method            fapswitch 2.2
_symmetry_space_group_name_H-M    P1
_symmetry_Int_Tables_number       1
_space_group_crystal_system       triclinic
_cell_length_a                    15.020924
_cell_length_b                    10.94394
_cell_length_c                    9.98359
_cell_angle_alpha                 110.996363
_cell_angle_beta                  98.077884
_cell_angle_gamma                 94.330653
_cell_volume                      1502.88238756

loop_
_atom_site_label
_atom_site_type_symbol
_atom_type_description
_atom_site_fract_x
_atom_site_fract_y
_atom_site_fract_z
_atom_type_partial_charge
C1    C     C_R   0.495643 0.253544 0.439599 0.569550
C2    C     C_2   0.494518 0.474013 0.910619 0.237174
C3    C     C_R   0.329015 0.495363 0.499262 0.581988
C4    C     C_R   0.670870 0.500767 0.499629 0.581265
C5    C     C_R   0.830601 0.606244 0.600290 0.235609
C6    C     C_R   0.169873 0.386902 0.389251 0.192562
C7    C     C_R   0.767818 0.500857 0.499548 -0.001049
C8    C     C_R   0.231856 0.489283 0.497715 -0.018590
C9    C     C_R   0.797003 0.394145 0.397528 -0.111615
C10   C     C_R   0.202149 0.588851 0.606764 -0.105230
C11   C     C_R   0.889368 0.391688 0.390719 -0.010316
C12   C     C_R   0.505850 0.746677 0.560889 0.549483
C13   C     C_R   0.109843 0.591396 0.611250 -0.006560
C14   C     C_R   0.953052 0.492735 0.500240 -0.041042
C15   C     C_R   0.046452 0.492686 0.498414 -0.039549
C16   C     C_R   0.923364 0.592101 0.613880 -0.021531
C17   C     C_R   0.076149 0.396716 0.380970 -0.024688
C18   C     C_R   0.919851 0.295466 0.274815 0.236592
C19   C     C_R   0.079577 0.687060 0.728009 0.235261
C20   C     C_R   0.010937 0.313117 0.260272 0.153666
C21   C     C_R   0.987073 0.675092 0.736468 0.146392
C22   C     C_2   0.489751 0.110562 0.402358 0.224318
C23   C     C_2   0.513207 0.890224 0.602554 0.182550
C24   C     C_2   0.522700 0.064799 0.503873 0.073713
C25   C     C_2   0.478757 0.939604 0.505674 0.095609
C26   C     C_2   0.520774 0.463202 0.058899 0.228160
Cu1   Cu    Cu3+1 0.515770 0.521810 0.644910 1.139547
Cu2   Cu    Cu3+1 0.484230 0.478190 0.355090 1.165899
H1    H     H_    0.745844 0.318670 0.318628 0.205237
H2    H     H_    0.253041 0.660760 0.691055 0.213409
H3    H     H_    0.702801 0.870041 0.577029 0.373745
H4    H     H_    0.257294 0.171609 0.472710 0.366660
H5    H     H_    0.788428 0.102595 0.922543 0.416423
H6    H     H_    0.257711 0.971018 0.851094 0.423729
H7    H     H_    0.463028 0.859044 0.887105 0.399338
H8    H     H_    0.536008 0.128598 0.118696 0.392841
I1    I     I_    0.038710 0.264693 0.043132 0.008291
I2    I     I_    0.948706 0.730884 0.947028 0.043030
I3    I     I_    0.336350 0.879063 0.422633 -0.058942
I4    I     I_    0.658988 0.148408 0.616843 -0.157341
I5    I     I_    0.386017 0.321213 0.773297 -0.125460
I6    I     I_    0.650035 0.399945 0.077723 -0.097061
I7    I     I_    0.632501 0.712850 0.008266 0.092567
I8    I     I_    0.341814 0.530672 0.104764 -0.022467
N1    N     N_2   0.460520 0.445420 0.137370 -0.154534
N2    N     N_2   0.539480 0.554580 0.862630 -0.169926
O1    O     O_R   0.508410 0.332340 0.577400 -0.497279
O2    O     O_2   0.875364 0.872765 0.707420 -0.220565
O3    O     O_3   0.720589 0.781103 0.533124 -0.514606
O4    O     O_2   0.133617 0.120078 0.244551 -0.192366
O5    O     O_2   0.248299 0.240223 0.168714 -0.175511
O6    O     O_3   0.290389 0.204769 0.410817 -0.509745
O7    O     O_2   0.906200 0.043990 0.089640 -0.178027
O8    O     O_2   0.780581 0.100073 0.219885 -0.212389
O9    O     O_3   0.794202 0.184749 0.009852 -0.463016
O10   O     O_2   0.102856 0.932123 0.939257 -0.150975
O11   O     O_2   0.211194 0.781713 0.965516 -0.213235
O12   O     O_R   0.491590 0.667660 0.422600 -0.488505
O13   O     O_3   0.223495 0.889462 0.773891 -0.498922
O14   O     O_2   0.615401 0.970165 0.868679 -0.192892
O15   O     O_2   0.521975 0.129019 0.822086 -0.247091
O16   O     O_3   0.440430 0.928460 0.854854 -0.457684
O17   O     O_2   0.469730 0.863501 0.192894 -0.250270
O18   O     O_2   0.380031 0.024712 0.140980 -0.159238
O19   O     O_3   0.554038 0.052311 0.141945 -0.434235
O20   O     O_R   0.481780 0.295500 0.332650 -0.468710
O21   O     O_R   0.518220 0.704500 0.667350 -0.470258
O22   O     O_R   0.383570 0.518390 0.622380 -0.511243
O23   O     O_R   0.616430 0.481610 0.377620 -0.500507
O24   O     O_R   0.356940 0.481550 0.377630 -0.443257
O25   O     O_R   0.643060 0.518450 0.622370 -0.463381
O26   O     O_2   0.751652 0.782862 0.795787 -0.209720
S1    S     S_3+6 0.795890 0.766203 0.665915 0.069222
S2    S     S_3+6 0.209071 0.233786 0.296805 0.096903
S3    S     S_3+6 0.848638 0.150587 0.148537 0.101230
S4    S     S_3+6 0.154789 0.825566 0.858729 0.097213
S5    S     S_3+6 0.526058 0.985464 0.791614 0.067834
S6    S     S_3+6 0.469496 0.006720 0.215292 0.092519

loop_
_geom_bond_atom_site_label_1
_geom_bond_atom_site_label_2
_ccdc_geom_bond_type
H5    O9    S    
C11   C18   A    
C18   S3    S    
O10   S4    D    
O16   S5    S    
Cu2   O23   S    
O5    S2    D    
O3    S1    S    
C2    N2    D    
C12   C23   S    
C16   C21   A    
O11   S4    D    
C19   S4    S    
C19   C21   A    
O6    S2    S    
O4    S2    D    
C11   C14   A    
C2    I5    S    
C17   C20   A    
C7    C9    A    
H4    O6    S    
C5    C16   A    
Cu1   O22   S    
C26   N1    D    
C21   I2    S    
C3    O22   A    
O15   S5    D    
C9    H1    S    
O9    S3    S    
C22   C24   D    
C1    C22   S    
O7    S3    D    
H3    O3    S    
C4    C7    S    
C4    O23   A    
C6    S2    S    
O14   S5    D    
C12   O21   A    
Cu2   N1    S    
C13   C19   A    
C3    O24   A    
C24   C25   S    
C22   S6    S    
C3    C8    S    
C5    C7    A    
H8    O19   S    
C1    O1    A    
C6    C8    A    
Cu2   O20   S    
C10   H2    S    
C1    O20   A    
C2    C26   S    
C23   S5    S    
C9    C11   A    
Cu1   N2    S    
C13   C15   A    
H6    O13   S    
C14   C16   A    
Cu1   O25   S    
I8    N1    S    
C26   I6    S    
Cu1   O1    S    
C15   C17   A    
C6    C17   A    
O19   S6    S    
O18   S6    D    
O2    S1    D    
Cu2   O24   S    
O26   S1    D    
C10   C13   A    
Cu2   O12   S    
C12   O12   A    
C25   I3    S    
C20   I1    S    
C24   I4    S    
H7    O16   S    
C18   C20   A    
C23   C25   D    
C5    S1    S    
I7    N2    S    
Cu1   O21   S    
O8    S3    D    
C8    C10   A    
Cu1   Cu2   S    
C14   C15   A    
O13   S4    S    
C4    O25   A    
O17   S6    D    
