data_mof_unit_66134.cif
_audit_creation_date              2012-12-10T20:17:26-0500
_audit_creation_method            fapswitch 2.2
_symmetry_space_group_name_H-M    P1
_symmetry_Int_Tables_number       1
_space_group_crystal_system       triclinic
_cell_length_a                    35.496882
_cell_length_b                    35.490991
_cell_length_c                    23.550953
_cell_angle_alpha                 89.966846
_cell_angle_beta                  90.033379
_cell_angle_gamma                 89.999794
_cell_volume                      29669.940292

loop_
_atom_site_label
_atom_site_type_symbol
_atom_type_description
_atom_site_fract_x
_atom_site_fract_y
_atom_site_fract_z
_atom_type_partial_charge
C1    C     C_R   1.000000 0.426628 0.499991 0.921392
C2    C     C_1   0.266732 0.001351 0.498298 0.083183
C3    C     C_R   0.826946 0.970746 0.469590 0.346777
C4    C     C_R   0.028122 0.173441 0.529758 0.346313
C5    C     C_R   0.826243 0.026973 0.529322 0.346091
C6    C     C_R   0.970696 0.826951 0.530333 0.346384
C7    C     C_R   0.173764 0.972966 0.529343 0.345901
C8    C     C_R   0.470669 0.673049 0.969698 0.346610
C9    C     C_R   0.673758 0.527007 0.970733 0.346359
C10   C     C_R   0.529287 0.326961 0.969740 0.346819
C11   C     C_R   0.326644 0.471795 0.970212 0.346339
C12   C     C_R   0.527042 0.673756 0.029202 0.345942
C13   C     C_1   0.998656 0.733259 0.501898 0.083004
C14   C     C_R   0.326641 0.528201 0.029586 0.346196
C15   C     C_R   0.473087 0.326222 0.029515 0.346114
C16   C     C_R   0.673048 0.470693 0.030377 0.347016
C17   C     C_R   0.971803 0.134011 0.470031 0.314346
C18   C     C_R   0.133621 0.029046 0.470141 0.314736
C19   C     C_R   0.027428 0.865652 0.470404 0.314977
C20   C     C_R   0.866356 0.971075 0.469852 0.315548
C21   C     C_R   0.028172 0.134022 0.529857 0.315733
C22   C     C_R   0.865652 0.027405 0.529678 0.315303
C23   C     C_R   0.971031 0.866365 0.530069 0.315171
C24   C     C_1   0.733260 0.998674 0.498119 0.083788
C25   C     C_R   0.134354 0.972526 0.529655 0.314975
C26   C     C_R   0.471000 0.633634 0.969965 0.315204
C27   C     C_R   0.634348 0.527442 0.970373 0.315228
C28   C     C_R   0.528947 0.366374 0.969962 0.315408
C29   C     C_R   0.366049 0.471742 0.970211 0.314706
C30   C     C_R   0.527476 0.634342 0.029559 0.314870
C31   C     C_R   0.366046 0.528246 0.029687 0.316045
C32   C     C_R   0.472644 0.365636 0.029833 0.315741
C33   C     C_R   0.633637 0.471025 0.030110 0.315436
C34   C     C_R   0.999994 0.114334 0.499955 -0.350643
C35   C     C_1   0.498668 0.766739 0.998106 0.083160
C36   C     C_R   0.114313 0.000561 0.499971 -0.350877
C37   C     C_R   0.999449 0.885684 0.500132 -0.350781
C38   C     C_R   0.885682 0.999457 0.499868 -0.350653
C39   C     C_R   0.499455 0.614314 0.999867 -0.350852
C40   C     C_R   0.614317 0.499451 0.000134 -0.350686
C41   C     C_R   0.500568 0.385682 0.999970 -0.350623
C42   C     C_R   0.385713 0.499999 0.999957 -0.350952
C43   C     C_R   0.999994 0.192923 0.499855 -0.224421
C44   C     C_R   0.192878 0.001342 0.499442 -0.223736
C45   C     C_R   0.998673 0.807115 0.500751 -0.223864
C46   C     C_1   0.766738 0.498664 0.001908 0.084455
C47   C     C_R   0.807115 0.998692 0.499253 -0.224102
C48   C     C_R   0.498687 0.692882 0.999246 -0.223717
C49   C     C_R   0.692883 0.498682 0.000761 -0.224015
C50   C     C_R   0.501356 0.307113 0.999437 -0.224086
C51   C     C_R   0.307173 0.500002 0.999871 -0.223525
C52   C     C_1   0.999990 0.233132 0.499821 0.194422
C53   C     C_1   0.233074 0.001510 0.498786 0.193463
C54   C     C_1   0.998498 0.766919 0.501420 0.193209
C55   C     C_1   0.766918 0.998519 0.498592 0.193874
C56   C     C_1   0.498512 0.733079 0.998581 0.193485
C57   C     C_1   0.501360 0.233259 0.998281 0.083837
C58   C     C_1   0.733080 0.498507 0.001430 0.194224
C59   C     C_1   0.501523 0.266918 0.998774 0.193893
C60   C     C_1   0.266995 0.499999 0.999847 0.192565
C61   C     C_3   0.957568 0.388977 0.382041 -0.235247
C62   C     C_3   0.390070 0.044291 0.382620 -0.232824
C63   C     C_3   0.091126 0.620950 0.465034 -0.200847
C64   C     C_3   0.609786 0.955869 0.382525 -0.232478
C65   C     C_3   0.042442 0.388765 0.617833 -0.224313
C66   C     C_3   0.620948 0.091184 0.534746 -0.202011
C67   C     C_3   0.956038 0.609738 0.617601 -0.233887
C68   C     C_1   0.233347 0.500000 0.999848 0.080292
C69   C     C_3   0.379085 0.908773 0.534653 -0.205145
C70   C     C_3   0.455890 0.890225 0.882427 -0.233735
C71   C     C_3   0.879048 0.591197 0.965204 -0.206829
C72   C     C_3   0.544009 0.109892 0.882465 -0.232064
C73   C     C_3   0.120382 0.408245 0.967232 -0.198532
C74   C     C_3   0.591166 0.879044 0.034951 -0.204126
C75   C     C_3   0.120448 0.591762 0.032690 -0.197402
C76   C     C_3   0.408867 0.120920 0.034984 -0.204521
C77   C     C_3   0.890208 0.455807 0.117533 -0.242160
C78   C     C_R   0.972335 0.326258 0.469659 -0.215047
C79   C     C_R   0.326525 0.028459 0.468490 -0.213638
C80   C     C_R   0.027514 0.674293 0.472712 -0.229016
C81   C     C_R   0.426592 0.999984 0.499961 0.946053
C82   C     C_R   0.673435 0.971597 0.468340 -0.213390
C83   C     C_R   0.027667 0.326202 0.530068 -0.214894
C84   C     C_R   0.674289 0.027559 0.527231 -0.227816
C85   C     C_R   0.971629 0.673430 0.531757 -0.213652
C86   C     C_R   0.325737 0.972417 0.527306 -0.228739
C87   C     C_R   0.471602 0.826566 0.968270 -0.214206
C88   C     C_R   0.825707 0.527568 0.972773 -0.227767
C89   C     C_R   0.528389 0.173466 0.968376 -0.212979
C90   C     C_R   0.173959 0.471696 0.971207 -0.229051
C91   C     C_R   0.527549 0.825707 0.027280 -0.228407
C92   C     C_R   0.000016 0.573404 0.500042 0.946377
C93   C     C_R   0.174005 0.528310 0.028581 -0.229046
C94   C     C_R   0.472489 0.174261 0.027389 -0.228195
C95   C     C_R   0.826568 0.471580 0.031709 -0.212820
C96   C     C_R   0.972485 0.365570 0.468643 0.464560
C97   C     C_R   0.365824 0.028045 0.468086 0.458701
C98   C     C_R   0.028670 0.634881 0.472893 0.453114
C99   C     C_R   0.634136 0.972003 0.467987 0.458672
C100  C     C_R   0.027518 0.365512 0.531182 0.462555
C101  C     C_R   0.634881 0.028710 0.527046 0.452214
C102  C     C_R   0.972042 0.634127 0.532106 0.458806
C103  C     C_R   0.573407 0.000016 0.499960 0.946276
C104  C     C_R   0.365145 0.971258 0.527069 0.452771
C105  C     C_R   0.472011 0.865869 0.967921 0.458645
C106  C     C_R   0.865115 0.528720 0.972951 0.453739
C107  C     C_R   0.527970 0.134163 0.967978 0.458547
C108  C     C_R   0.134562 0.470812 0.972217 0.446680
C109  C     C_R   0.528701 0.865119 0.027100 0.452468
C110  C     C_R   0.134605 0.529190 0.027656 0.448479
C111  C     C_R   0.471327 0.134850 0.027159 0.452708
C112  C     C_R   0.865868 0.471989 0.032054 0.460190
C113  C     C_R   0.999999 0.385427 0.499942 -0.282044
C114  C     C_R   0.500016 0.926595 0.999959 0.946316
C115  C     C_R   0.385342 0.999899 0.498702 -0.273954
C116  C     C_R   0.000103 0.614650 0.501346 -0.274617
C117  C     C_R   0.614654 0.000103 0.498666 -0.273719
C118  C     C_R   0.500103 0.885348 0.998662 -0.273690
C119  C     C_R   0.885346 0.500102 0.001348 -0.273898
C120  C     C_R   0.499898 0.114652 0.998696 -0.273860
C121  C     C_R   0.114743 0.499999 0.999960 -0.265798
C122  C     C_R   0.000000 0.306834 0.499841 -0.042671
C123  C     C_R   0.306755 0.000731 0.497911 -0.033676
C124  C     C_R   0.999280 0.693236 0.502247 -0.034032
C125  C     C_R   0.926593 0.500016 0.000044 0.947667
C126  C     C_R   0.693238 0.999290 0.497772 -0.033729
C127  C     C_R   0.499287 0.806762 0.997760 -0.033535
C128  C     C_R   0.806762 0.499284 0.002256 -0.033979
C129  C     C_R   0.500734 0.193237 0.997894 -0.033850
C130  C     C_R   0.193335 0.500004 0.999873 -0.024104
C131  C     C_R   0.926736 0.999915 0.499975 1.045210
C132  C     C_R   0.000001 0.073268 0.499986 1.044994
C133  C     C_R   0.073262 0.000086 0.500006 1.044992
C134  C     C_R   0.999914 0.926737 0.500025 1.045180
C135  C     C_R   0.426747 0.500002 0.999986 1.044966
C136  C     C_R   0.499984 0.073404 0.999961 0.946401
C137  C     C_R   0.499915 0.573262 0.999975 1.044628
C138  C     C_R   0.573264 0.499914 0.000025 1.044610
C139  C     C_R   0.500088 0.426736 0.000006 1.044861
C140  C     C_R   0.000010 0.500001 0.609457 0.869306
C141  C     C_R   0.499999 0.999990 0.609466 0.915389
C142  C     C_R   0.999985 0.499936 0.390540 0.893478
C143  C     C_R   0.500001 0.000010 0.390540 0.868762
C144  C     C_R   0.500010 0.000001 0.109463 0.915447
C145  C     C_R   0.999938 0.499985 0.109462 0.891841
C146  C     C_R   0.499990 0.999999 0.890543 0.868813
C147  C     C_R   0.073436 0.500000 0.999995 0.966368
C148  C     C_R   0.000004 0.500010 0.890534 0.914308
C149  C     C_1   0.000029 0.500016 0.669624 -0.181927
C150  C     C_1   0.499986 0.999972 0.669647 -0.147704
C151  C     C_1   0.999933 0.499859 0.330366 -0.163020
C152  C     C_1   0.500014 0.000028 0.330374 -0.183832
C153  C     C_1   0.500029 0.000014 0.169644 -0.147718
C154  C     C_1   0.999862 0.499933 0.169636 -0.167458
C155  C     C_1   0.499971 0.999986 0.830376 -0.183924
C156  C     C_1   0.000017 0.500030 0.830353 -0.150184
C157  C     C_1   0.000033 0.500028 0.720368 0.016071
C158  C     C_1   0.999992 0.266799 0.499817 0.085806
C159  C     C_1   0.499975 0.999968 0.720396 0.026990
C160  C     C_1   0.999874 0.499835 0.279619 0.022443
C161  C     C_1   0.500025 0.000031 0.279630 0.015530
C162  C     C_1   0.500032 0.000024 0.220393 0.026960
C163  C     C_1   0.999838 0.499872 0.220382 0.020741
C164  C     C_1   0.499968 0.999975 0.779633 0.015481
C165  C     C_1   0.000027 0.500035 0.779604 0.025854
C166  C     C_R   0.971859 0.173431 0.470016 0.346477
C167  C     C_R   0.173031 0.029383 0.469919 0.346569
C168  C     C_R   0.026990 0.826238 0.470760 0.345728
Cl1   Cl    Cl    0.936472 0.198435 0.432808 -0.462447
Cl2   Cl    Cl    0.699210 0.562207 0.933848 -0.467699
Cl3   Cl    Cl    0.564854 0.302414 0.932339 -0.458645
Cl4   Cl    Cl    0.301636 0.436319 0.933256 -0.468337
Cl5   Cl    Cl    0.562277 0.699212 0.066001 -0.468969
Cl6   Cl    Cl    0.301629 0.563672 0.066506 -0.467066
Cl7   Cl    Cl    0.437966 0.300744 0.066510 -0.468207
Cl8   Cl    Cl    0.697606 0.435059 0.067725 -0.458145
Cl9   Cl    Cl    0.935413 0.109472 0.434340 -0.433491
Cl10  Cl    Cl    0.108629 0.065255 0.434692 -0.433996
Cl11  Cl    Cl    0.064051 0.889734 0.434575 -0.434149
Cl12  Cl    Cl    0.197573 0.065085 0.432737 -0.461395
Cl13  Cl    Cl    0.891320 0.934973 0.434217 -0.432861
Cl14  Cl    Cl    0.064517 0.109501 0.565724 -0.431746
Cl15  Cl    Cl    0.889732 0.063986 0.565617 -0.431046
Cl16  Cl    Cl    0.934898 0.891342 0.565605 -0.433431
Cl17  Cl    Cl    0.110282 0.935839 0.565378 -0.434655
Cl18  Cl    Cl    0.434819 0.608656 0.934480 -0.434688
Cl19  Cl    Cl    0.610267 0.564076 0.934496 -0.432310
Cl20  Cl    Cl    0.565030 0.391363 0.934287 -0.431222
Cl21  Cl    Cl    0.390586 0.435285 0.934726 -0.434075
Cl22  Cl    Cl    0.564139 0.610253 0.065347 -0.432827
Cl23  Cl    Cl    0.062175 0.800778 0.433917 -0.470941
Cl24  Cl    Cl    0.390573 0.564655 0.065340 -0.432291
Cl25  Cl    Cl    0.436079 0.389697 0.065788 -0.431794
Cl26  Cl    Cl    0.608666 0.434879 0.065691 -0.431614
Cl27  Cl    Cl    0.802382 0.935167 0.432191 -0.460429
Cl28  Cl    Cl    0.063500 0.198458 0.566921 -0.461566
Cl29  Cl    Cl    0.800793 0.062120 0.566265 -0.466080
Cl30  Cl    Cl    0.935074 0.802388 0.567635 -0.461414
Cl31  Cl    Cl    0.199230 0.937705 0.566121 -0.470788
Cl32  Cl    Cl    0.435001 0.697613 0.932439 -0.463532
H1    H     H_    0.950869 0.310979 0.446367 0.199126
H2    H     H_    0.809891 0.548398 0.948987 0.191737
H3    H     H_    0.550292 0.188458 0.945605 0.198514
H4    H     H_    0.189434 0.450398 0.947923 0.189891
H5    H     H_    0.548361 0.809889 0.051094 0.191521
H6    H     H_    0.189516 0.549608 0.051836 0.190244
H7    H     H_    0.451699 0.190053 0.051223 0.191563
H8    H     H_    0.811605 0.449645 0.054469 0.198424
H9    H     H_    0.961585 0.361256 0.360798 0.166655
H10   H     H_    0.984046 0.405769 0.380255 0.130539
H11   H     H_    0.935801 0.404678 0.357877 0.200074
H12   H     H_    0.311533 0.050417 0.445795 0.198252
H13   H     H_    0.362555 0.040662 0.360589 0.164575
H14   H     H_    0.406830 0.017810 0.380281 0.126972
H15   H     H_    0.406035 0.066403 0.359615 0.206454
H16   H     H_    0.091278 0.613321 0.510940 0.150928
H17   H     H_    0.101430 0.650250 0.459012 0.164627
H18   H     H_    0.111241 0.601915 0.443243 0.198545
H19   H     H_    0.637274 0.959523 0.360468 0.164838
H20   H     H_    0.593026 0.982355 0.380236 0.127088
H21   H     H_    0.593789 0.933789 0.359510 0.206303
H22   H     H_    0.038425 0.361007 0.639015 0.166282
H23   H     H_    0.048300 0.690113 0.448885 0.191617
H24   H     H_    0.015966 0.405556 0.619661 0.132943
H25   H     H_    0.064212 0.404422 0.642028 0.203340
H26   H     H_    0.613325 0.091284 0.488838 0.153249
H27   H     H_    0.650241 0.101500 0.540748 0.166186
H28   H     H_    0.601911 0.111325 0.556481 0.197009
H29   H     H_    0.959754 0.637220 0.639665 0.163606
H30   H     H_    0.982508 0.592950 0.619778 0.125303
H31   H     H_    0.933985 0.593751 0.640686 0.207479
H32   H     H_    0.386665 0.908741 0.488742 0.153267
H33   H     H_    0.349796 0.898453 0.540649 0.165353
H34   H     H_    0.688402 0.949673 0.445598 0.198286
H35   H     H_    0.398139 0.888597 0.556347 0.196665
H36   H     H_    0.459530 0.862731 0.860375 0.164762
H37   H     H_    0.482380 0.906974 0.880187 0.127383
H38   H     H_    0.433822 0.906236 0.859373 0.206122
H39   H     H_    0.886681 0.591277 0.011108 0.152938
H40   H     H_    0.849754 0.601515 0.959207 0.166036
H41   H     H_    0.898079 0.611349 0.943446 0.195416
H42   H     H_    0.540327 0.137407 0.860432 0.164963
H43   H     H_    0.517528 0.093129 0.880232 0.126810
H44   H     H_    0.566063 0.093920 0.859387 0.206486
H45   H     H_    0.049132 0.310881 0.553326 0.199260
H46   H     H_    0.113432 0.408947 0.013358 0.156451
H47   H     H_    0.149530 0.397682 0.960703 0.165230
H48   H     H_    0.100940 0.387844 0.946874 0.194862
H49   H     H_    0.591282 0.886649 0.989036 0.153282
H50   H     H_    0.601477 0.849748 0.041007 0.165638
H51   H     H_    0.611297 0.898092 0.056719 0.196736
H52   H     H_    0.113475 0.591069 0.986560 0.153671
H53   H     H_    0.149598 0.602329 0.039241 0.165116
H54   H     H_    0.101013 0.612156 0.053047 0.195390
H55   H     H_    0.408719 0.113354 0.989067 0.153236
H56   H     H_    0.690102 0.048380 0.551003 0.191788
H57   H     H_    0.398566 0.150212 0.041043 0.165668
H58   H     H_    0.388747 0.101857 0.056742 0.196596
H59   H     H_    0.862714 0.459426 0.139580 0.166358
H60   H     H_    0.906948 0.482303 0.119823 0.126107
H61   H     H_    0.906217 0.433722 0.140557 0.202068
H62   H     H_    0.949735 0.688396 0.554560 0.198301
H63   H     H_    0.309952 0.951565 0.551067 0.191347
H64   H     H_    0.449684 0.811598 0.945482 0.197883
O1    O     O_R   0.031300 0.444560 0.499980 -0.577795
O2    O     O_R   0.944560 0.468700 0.999980 -0.571677
O3    O     O_R   0.468700 0.055440 0.999980 -0.601923
O4    O     O_R   0.055440 0.531300 0.999980 -0.596025
O5    O     O_R   0.468700 0.944560 0.000020 -0.571787
O6    O     O_R   0.055440 0.468700 0.000020 -0.595528
O7    O     O_R   0.531300 0.055440 0.000020 -0.571457
O8    O     O_R   0.944560 0.531300 0.000020 -0.602619
O9    O     O_R   0.031300 0.500000 0.582760 -0.614057
O10   O     O_R   0.500000 0.968700 0.582760 -0.606897
O11   O     O_R   0.968700 0.500000 0.582760 -0.606755
O12   O     O_R   0.444560 0.968700 0.499980 -0.601797
O13   O     O_R   0.500000 0.031300 0.582760 -0.606706
O14   O     O_R   0.968700 0.500000 0.417240 -0.611294
O15   O     O_R   0.500000 0.968700 0.417240 -0.612912
O16   O     O_R   0.031300 0.500000 0.417240 -0.603026
O17   O     O_R   0.500000 0.031300 0.417240 -0.612724
O18   O     O_R   0.531300 0.000000 0.082760 -0.606733
O19   O     O_R   1.000000 0.468700 0.082760 -0.616959
O20   O     O_R   0.468700 0.000000 0.082760 -0.606979
O21   O     O_R   1.000000 0.531300 0.082760 -0.606864
O22   O     O_R   0.468700 0.000000 0.917240 -0.612934
O23   O     O_R   0.968700 0.555440 0.499980 -0.570508
O24   O     O_R   1.000000 0.468700 0.917240 -0.605028
O25   O     O_R   0.531300 0.000000 0.917240 -0.612677
O26   O     O_R   1.000000 0.531300 0.917240 -0.613321
O27   O     O_R   0.944690 0.999980 0.546690 -0.584130
O28   O     O_R   0.999980 0.055310 0.546690 -0.585240
O29   O     O_R   0.055310 0.000020 0.546690 -0.584523
O30   O     O_R   0.000020 0.944690 0.546690 -0.585948
O31   O     O_R   0.055310 0.999980 0.453310 -0.585689
O32   O     O_R   0.000020 0.055310 0.453310 -0.584492
O33   O     O_R   0.944690 0.000020 0.453310 -0.585349
O34   O     O_R   0.555440 0.031300 0.499980 -0.601761
O35   O     O_R   0.999980 0.944690 0.453310 -0.584047
O36   O     O_R   0.444690 0.499980 0.046690 -0.585273
O37   O     O_R   0.499980 0.555310 0.046690 -0.584343
O38   O     O_R   0.555310 0.500020 0.046690 -0.585630
O39   O     O_R   0.500020 0.444690 0.046690 -0.584025
O40   O     O_R   0.555310 0.499980 0.953310 -0.583755
O41   O     O_R   0.500020 0.555310 0.953310 -0.585567
O42   O     O_R   0.444690 0.500020 0.953310 -0.584513
O43   O     O_R   0.499980 0.444690 0.953310 -0.585201
O44   O     O_3   0.944935 0.384423 0.438378 -0.569414
O45   O     O_R   0.968700 0.444560 0.500020 -0.576890
O46   O     O_3   0.384988 0.056046 0.439278 -0.568612
O47   O     O_3   0.055186 0.615979 0.440538 -0.583553
O48   O     O_3   0.614938 0.944039 0.439163 -0.568756
O49   O     O_3   0.055071 0.384308 0.561485 -0.571461
O50   O     O_3   0.615979 0.055265 0.559332 -0.586617
O51   O     O_3   0.944123 0.614920 0.561010 -0.567518
O52   O     O_3   0.384082 0.944654 0.559297 -0.586323
O53   O     O_3   0.444057 0.885076 0.939043 -0.569194
O54   O     O_3   0.884014 0.555290 0.940641 -0.585176
O55   O     O_3   0.555898 0.114989 0.939076 -0.568596
O56   O     O_R   0.555440 0.968700 0.500020 -0.571588
O57   O     O_3   0.115219 0.443767 0.941437 -0.590338
O58   O     O_3   0.555245 0.884025 0.059444 -0.586484
O59   O     O_3   0.115308 0.556235 0.058470 -0.586454
O60   O     O_3   0.444803 0.115909 0.059482 -0.586311
O61   O     O_3   0.885072 0.444013 0.060895 -0.567593
O62   O     O_R   0.031300 0.555440 0.500020 -0.601792
O63   O     O_R   0.444560 0.031300 0.500020 -0.571510
O64   O     O_R   0.531300 0.944560 0.999980 -0.601812
Zn1   Zn    Zn3+2 0.041800 0.500000 0.500000 1.034852
Zn2   Zn    Zn3+2 0.000000 0.000000 0.437610 1.163814
Zn3   Zn    Zn3+2 0.500000 0.500000 0.062390 1.165368
Zn4   Zn    Zn3+2 0.500000 0.500000 0.937610 1.165141
Zn5   Zn    Zn3+2 0.500000 0.958200 0.500000 1.037711
Zn6   Zn    Zn3+2 0.958200 0.500000 0.500000 1.064435
Zn7   Zn    Zn3+2 0.500000 0.041800 0.500000 1.038424
Zn8   Zn    Zn3+2 0.541800 0.000000 0.000000 1.038130
Zn9   Zn    Zn3+2 0.000000 0.458200 0.000000 1.040567
Zn10  Zn    Zn3+2 0.458200 0.000000 0.000000 1.037030
Zn11  Zn    Zn3+2 0.000000 0.541800 0.000000 1.012446
Zn12  Zn    Zn3+2 1.000000 0.000000 0.562390 1.163998

loop_
_geom_bond_atom_site_label_1
_geom_bond_atom_site_label_2
_ccdc_geom_bond_type
C31   C42   A    
C29   C42   A    
C8    C26   A    
C75   H54   S    
C36   C133  S    
C100  O49   S    
C15   C32   A    
C2    C123  S    
C77   H61   S    
C136  O3    A    
C50   C59   S    
O21   Zn11  S    
C71   O54   S    
O16   Zn1   S    
C57   C59   T    
C22   C38   A    
C94   C111  A    
C89   C129  A    
C82   C99   A    
C76   H55   S    
O40   Zn4   S    
C19   C37   A    
C44   C53   S    
C78   C96   A    
C77   H60   S    
C40   C138  S    
C66   H27   S    
C84   H56   S    
C121  C147  S    
O29   Zn12  S    
C70   H37   S    
C97   C115  A    
C85   H62   S    
C93   C110  A    
C12   C30   A    
C167  Cl12  S    
C27   Cl19  S    
C67   H31   S    
C62   H14   S    
C69   O52   S    
C103  C117  S    
C1    C113  S    
C65   H22   S    
C109  C118  A    
C90   H4    S    
C52   C158  T    
C79   H12   S    
C150  C159  T    
C160  C163  S    
C16   C49   A    
C69   H32   S    
C13   C124  S    
C76   O60   S    
C10   Cl3   S    
C23   C37   A    
C31   Cl24  S    
O8    Zn11  S    
C3    Cl27  S    
C132  O32   A    
C142  C151  S    
O7    Zn8   S    
O62   Zn1   S    
C122  C158  S    
O41   Zn4   S    
C65   H25   S    
C114  O64   A    
C35   C127  S    
C92   C116  S    
C25   Cl17  S    
C33   Cl26  S    
C83   C100  A    
C104  O52   S    
C29   Cl21  S    
C105  C118  A    
C17   C34   A    
C157  C165  S    
C93   C130  A    
C114  O5    A    
C19   Cl11  S    
C107  C120  A    
C13   C54   T    
C43   C166  A    
C17   Cl9   S    
C95   H8    S    
C4    Cl28  S    
C103  O56   A    
C79   C97   A    
C2    C53   T    
C73   H47   S    
C4    C43   A    
O2    Zn9   S    
C131  O27   A    
C71   H40   S    
C63   H17   S    
C80   H23   S    
C79   C123  A    
O10   Zn5   S    
O32   Zn2   S    
C61   H10   S    
C106  O54   S    
C25   C36   A    
C67   H29   S    
O64   Zn8   S    
C148  O24   A    
C88   H2    S    
C65   H24   S    
C103  O34   A    
O56   Zn5   S    
C14   C31   A    
C86   C104  A    
C74   H51   S    
O24   Zn9   S    
C147  O6    A    
C17   C166  A    
C110  C121  A    
C65   O49   S    
C43   C52   S    
C20   C38   A    
O31   Zn2   S    
C69   H33   S    
O33   Zn2   S    
C95   C128  A    
C75   O59   S    
C32   C41   A    
C63   H16   S    
C139  O39   A    
C152  C161  T    
O35   Zn2   S    
C97   O46   S    
C46   C58   T    
C24   C126  S    
C83   H45   S    
C99   O48   S    
O1    Zn1   S    
C92   O23   A    
C93   H6    S    
C141  C150  S    
C21   Cl14  S    
C91   C127  A    
C143  O17   A    
C33   C40   A    
C72   H42   S    
O19   Zn9   S    
C9    C49   A    
O14   Zn6   S    
C142  O16   A    
C5    Cl29  S    
O5    Zn10  S    
C140  O9    A    
O22   Zn10  S    
O36   Zn3   S    
C134  O30   A    
C99   C117  A    
C87   C105  A    
C27   C40   A    
C148  O26   A    
O13   Zn7   S    
O15   Zn5   S    
C68   C130  S    
C145  C154  S    
C8    Cl32  S    
O26   Zn11  S    
C145  O19   A    
C74   H49   S    
C137  O41   A    
C64   H19   S    
C35   C56   T    
O17   Zn7   S    
C32   Cl25  S    
C75   H53   S    
C18   C167  A    
C74   O58   S    
C62   O46   S    
C76   H57   S    
O37   Zn3   S    
C81   O12   A    
C69   H35   S    
C90   C108  A    
C109  O58   S    
C26   Cl18  S    
C80   C98   A    
O28   Zn12  S    
C3    C47   A    
C30   C39   A    
C30   Cl22  S    
C83   C122  A    
C138  O40   A    
C45   C168  A    
C101  O50   S    
C112  O61   S    
C18   Cl10  S    
C77   H59   S    
C66   H28   S    
C98   O47   S    
C159  C164  S    
C51   C60   S    
C70   H38   S    
O6    Zn9   S    
C140  C149  S    
C85   C102  A    
C135  O42   A    
C20   Cl13  S    
C81   O63   A    
C6    C45   A    
C106  C119  A    
C62   H15   S    
C72   H44   S    
C72   H43   S    
C78   H1    S    
C108  C121  A    
C12   C48   A    
C142  O14   A    
O63   Zn7   S    
C161  C162  S    
C61   O44   S    
C140  O11   A    
C95   C112  A    
C28   Cl20  S    
C146  O25   A    
C26   C39   A    
C28   C41   A    
C82   C126  A    
C146  C155  S    
C137  O37   A    
C145  O21   A    
C111  O60   S    
C16   Cl8   S    
C108  O57   S    
C11   Cl4   S    
C84   C126  A    
C9    Cl2   S    
O38   Zn3   S    
C91   H5    S    
C66   O50   S    
C125  O8    A    
C147  O4    A    
C21   C34   A    
O18   Zn8   S    
C42   C135  S    
C120  C136  S    
C44   C167  A    
C71   H39   S    
C138  O38   A    
C8    C48   A    
O42   Zn4   S    
C104  C115  A    
C102  O51   S    
C89   C107  A    
C3    C20   A    
C61   H9    S    
C119  C125  S    
C143  C152  S    
C67   O51   S    
C82   H34   S    
C144  O18   A    
C62   H13   S    
C96   C113  A    
C19   C168  A    
C10   C50   A    
C86   H63   S    
C9    C27   A    
C80   C124  A    
C10   C28   A    
C1    O45   A    
O30   Zn12  S    
C94   H7    S    
C112  C119  A    
O27   Zn12  S    
O25   Zn8   S    
C73   H46   S    
C7    C25   A    
C153  C162  T    
C101  C117  A    
O45   Zn6   S    
O39   Zn3   S    
C14   Cl6   S    
C38   C131  S    
C18   C36   A    
C156  C165  T    
C136  O7    A    
C134  O35   A    
C41   C139  S    
C90   C130  A    
C60   C68   T    
C131  O33   A    
C148  C156  S    
C149  C157  T    
C12   Cl5   S    
C39   C137  S    
C125  O2    A    
C87   C127  A    
C73   H48   S    
C24   C55   T    
C5    C47   A    
C168  Cl23  S    
O12   Zn5   S    
C63   H18   S    
C46   C128  S    
C139  O43   A    
C144  C153  S    
C85   C124  A    
C61   H11   S    
C15   C50   A    
C110  O59   S    
C5    C22   A    
C14   C51   A    
C67   H30   S    
C144  O20   A    
C132  O28   A    
C133  O29   A    
C34   C132  S    
O34   Zn7   S    
O9    Zn1   S    
C84   C101  A    
C66   H26   S    
C141  O10   A    
C74   H50   S    
O3    Zn10  S    
C94   C129  A    
C64   H20   S    
O20   Zn10  S    
C154  C163  T    
C11   C51   A    
O43   Zn4   S    
C71   H41   S    
C6    Cl30  S    
C70   H36   S    
C76   H58   S    
C49   C58   S    
O4    Zn11  S    
C111  C120  A    
O11   Zn6   S    
C22   Cl15  S    
C146  O22   A    
C16   C33   A    
C88   C106  A    
C72   O55   S    
C98   C116  A    
C81   C115  S    
C143  O15   A    
C7    C44   A    
C114  C118  S    
C92   O62   A    
C89   H3    S    
C45   C54   S    
C63   O47   S    
C64   O48   S    
C105  O53   S    
O23   Zn6   S    
C47   C55   S    
C107  O55   S    
C48   C56   S    
C37   C134  S    
C77   O61   S    
C100  C113  A    
C70   O53   S    
C73   O57   S    
C155  C164  T    
C15   Cl7   S    
C151  C160  T    
C91   C109  A    
C141  O13   A    
C23   Cl16  S    
C88   C128  A    
C135  O36   A    
C96   O44   S    
C4    C21   A    
C6    C23   A    
C64   H21   S    
C133  O31   A    
C7    Cl31  S    
C78   C122  A    
C102  C116  A    
C1    O1    A    
C11   C29   A    
C166  Cl1   S    
C86   C123  A    
C57   C129  S    
C87   H64   S    
C75   H52   S    
