data_mof_unit_52300.cif
_audit_creation_date              2012-12-10T17:35:38-0500
_audit_creation_method            fapswitch 2.2
_symmetry_space_group_name_H-M    P1
_symmetry_Int_Tables_number       1
_space_group_crystal_system       triclinic
_cell_length_a                    10.725631
_cell_length_b                    12.32301
_cell_length_c                    13.198144
_cell_angle_alpha                 116.707815
_cell_angle_beta                  77.438724
_cell_angle_gamma                 101.41292
_cell_volume                      1510.95034004

loop_
_atom_site_label
_atom_site_type_symbol
_atom_type_description
_atom_site_fract_x
_atom_site_fract_y
_atom_site_fract_z
_atom_type_partial_charge
C1    C     C_R   0.512367 0.854861 0.286581 0.788705
C2    C     C_3   0.123216 0.997888 0.495028 0.127808
C3    C     C_3   0.046620 0.031998 0.617043 -0.392026
C4    C     C_3   0.067926 0.868919 0.412444 -0.407907
C5    C     C_R   0.321009 0.277699 0.019099 -0.190124
C6    C     C_R   0.453233 0.228005 0.834349 -0.052730
C7    C     C_R   0.605618 0.814261 0.086771 -0.152429
C8    C     C_R   0.634094 0.734787 0.972401 -0.135307
C9    C     C_R   0.585889 0.611920 0.934033 -0.181014
C10   C     C_R   0.503422 0.566408 0.009501 0.084878
C11   C     C_R   0.462944 0.650783 0.123040 0.082239
C12   C     C_R   0.740228 0.997470 0.496099 0.764611
C13   C     C_R   0.458769 0.440197 0.975785 0.076353
C14   C     C_R   0.365937 0.402014 0.051577 0.164838
C15   C     C_R   0.316556 0.488444 0.157716 -0.235776
C16   C     C_R   0.362830 0.611130 0.192361 -0.201404
C17   C     C_R   0.504166 0.350345 0.869007 -0.252759
C18   C     C_R   0.363811 0.190999 0.910472 -0.197945
C19   C     C_R   0.522872 0.773044 0.163623 -0.101138
C20   C     C_R   0.704242 0.346478 0.327696 -0.297642
C21   C     C_R   0.325554 0.759336 0.645375 0.073676
C22   C     C_R   0.287959 0.662784 0.677141 -0.255160
C23   C     C_R   0.480771 0.145097 0.713359 0.797009
C24   C     C_R   0.353548 0.559477 0.622481 -0.194826
C25   C     C_R   0.458310 0.551431 0.534748 -0.004370
C26   C     C_R   0.493391 0.652976 0.505240 0.285315
C27   C     C_R   0.529524 0.447084 0.475318 -0.035625
C28   C     C_R   0.633276 0.446737 0.387858 0.171340
C29   C     C_R   0.665887 0.546364 0.360710 -0.283764
C30   C     C_R   0.597869 0.647039 0.418244 -0.186541
C31   C     C_R   0.502980 0.342203 0.498270 0.016920
C32   C     C_R   0.672911 0.246487 0.354196 0.066276
C33   C     C_R   0.260476 0.999193 0.498254 0.761089
C34   C     C_3   0.964670 0.088731 0.446151 -0.145737
C35   C     C_3   0.107050 0.091832 0.451866 -0.399741
C36   C     C_3   0.904339 0.036806 0.616119 -0.430037
C37   C     C_3   0.921075 0.863905 0.418736 -0.155539
C38   C     C_3   0.879388 0.995622 0.491665 0.072022
Cu1   Cu    Cu3+1 0.529690 0.098270 0.475420 0.933389
Cu2   Cu    Cu3+1 0.470310 0.901730 0.524580 0.919184
H1    H     H_    0.936317 0.182075 0.502703 0.134153
H2    H     H_    0.085787 0.797767 0.435986 0.163508
H3    H     H_    0.842433 0.976912 0.654599 0.179545
H4    H     H_    0.053229 0.963225 0.648075 0.172422
H5    H     H_    0.322970 0.096332 0.884341 0.148018
H6    H     H_    0.241689 0.461143 0.214381 0.144333
H7    H     H_    0.249906 0.248089 0.076462 0.139403
H8    H     H_    0.578226 0.372826 0.809638 0.145458
H9    H     H_    0.651319 0.907664 0.115708 0.159356
H10   H     H_    0.612962 0.555894 0.844257 0.127558
H11   H     H_    0.697278 0.767828 0.913639 0.139706
H12   H     H_    0.316525 0.674425 0.273132 0.167181
H13   H     H_    0.726456 0.168442 0.307506 0.145473
H14   H     H_    0.745408 0.546776 0.294114 0.165431
H15   H     H_    0.783354 0.345399 0.260408 0.141892
H16   H     H_    0.425958 0.334548 0.563207 0.121738
H17   H     H_    0.274159 0.839149 0.688395 0.121261
H18   H     H_    0.320284 0.487536 0.650506 0.133194
H19   H     H_    0.207678 0.668052 0.744426 0.147001
H20   H     H_    0.631110 0.718526 0.391457 0.213821
H21   H     H_    0.167508 0.072354 0.366663 0.174678
H22   H     H_    0.142876 0.185701 0.511441 0.161161
H23   H     H_    0.879385 0.131629 0.670902 0.164472
H24   H     H_    0.088071 0.122427 0.677922 0.157156
H25   H     H_    0.119142 0.847563 0.323725 0.159966
N1    N     N_R   0.574690 0.246280 0.438200 -0.182742
N2    N     N_R   0.426100 0.754320 0.561190 -0.206597
O1    O     O_R   0.537340 0.972510 0.318130 -0.578537
O2    O     O_R   0.487200 0.806530 0.359650 -0.600373
O3    O     O_R   0.707380 0.082980 0.479220 -0.585074
O4    O     O_R   0.657240 0.917000 0.520740 -0.604222
O5    O     O_R   0.512800 0.193470 0.640350 -0.586118
O6    O     O_R   0.462660 0.027490 0.681870 -0.584134
O7    O     O_R   0.342760 0.083000 0.479260 -0.590371
O8    O     O_R   0.292620 0.917020 0.520780 -0.599444
C39   C     C_1   0.948213 0.062675 0.328632 0.251565
N3    N     N_1   0.935958 0.042364 0.236562 -0.313515
H26   H     H_    0.871553 0.805067 0.462881 0.140365
C40   C     C_1   0.883342 0.803824 0.302901 0.196528
N4    N     N_1   0.853451 0.756430 0.212260 -0.281325

loop_
_geom_bond_atom_site_label_1
_geom_bond_atom_site_label_2
_ccdc_geom_bond_type
C2    C35   S    
C31   N1    A    
Cu2   O4    S    
Cu1   O1    S    
C17   H8    S    
C7    C8    A    
C3    H24   S    
C37   C40   S    
C11   C19   A    
C37   C38   S    
C26   N2    A    
C28   C29   A    
C4    H25   S    
C29   H14   S    
C15   C16   A    
C1    O1    A    
Cu2   O6    S    
C34   C35   S    
Cu1   O7    S    
C33   O8    A    
C8    C9    A    
Cu2   N2    S    
C30   H20   S    
Cu1   O5    S    
C31   H16   S    
C36   H23   S    
C9    C10   A    
C13   C14   A    
C21   N2    A    
C34   H1    S    
C23   O6    A    
C20   H15   S    
C6    C18   A    
C3    H4    S    
C1    C19   S    
Cu2   O2    S    
C27   C31   A    
C24   C25   A    
C7    H9    S    
Cu1   Cu2   S    
C5    C18   A    
C20   C28   A    
C25   C26   A    
C1    O2    A    
C2    C4    S    
C21   H17   S    
C29   C30   A    
C5    H7    S    
C11   C16   A    
C35   H21   S    
C39   N3    T    
C8    H11   S    
C5    C14   A    
C2    C33   S    
C12   O4    A    
C26   C30   A    
C7    C19   A    
Cu1   N1    S    
C22   C24   A    
C18   H5    S    
C32   H13   S    
C22   H19   S    
C32   N1    A    
C20   C32   A    
C6    C17   A    
C12   O3    A    
C34   C38   S    
C23   O5    A    
C9    H10   S    
C16   H12   S    
C10   C13   A    
C25   C27   A    
C37   H26   S    
Cu2   O8    S    
C13   C17   A    
C36   C38   S    
C2    C3    S    
C4    H2    S    
C3    C36   S    
C6    C23   S    
Cu1   O3    S    
C35   H22   S    
C12   C38   S    
C10   C11   A    
C40   N4    T    
C33   O7    A    
C4    C37   S    
C24   H18   S    
C27   C28   A    
C14   C15   A    
C36   H3    S    
C15   H6    S    
C21   C22   A    
C34   C39   S    
