data_mof_unit_10461.cif
_audit_creation_date              2012-12-10T17:13:14-0500
_audit_creation_method            fapswitch 2.2
_symmetry_space_group_name_H-M    P1
_symmetry_Int_Tables_number       1
_space_group_crystal_system       triclinic
_cell_length_a                    18.288589
_cell_length_b                    18.232986
_cell_length_c                    18.210157
_cell_angle_alpha                 119.460878
_cell_angle_beta                  90.798074
_cell_angle_gamma                 119.888197
_cell_volume                      4305.62986895

loop_
_atom_site_label
_atom_site_type_symbol
_atom_type_description
_atom_site_fract_x
_atom_site_fract_y
_atom_site_fract_z
_atom_type_partial_charge
C1    C     C_R   0.640164 0.779881 0.638092 0.777500
C2    C     C_R   0.170122 0.906390 0.343038 0.131630
C3    C     C_R   0.209070 0.947196 0.293083 0.030275
C4    C     C_R   0.362916 0.219453 0.359962 0.807271
C5    C     C_R   0.286964 0.049234 0.341421 0.027330
C6    C     C_R   0.306071 0.106029 0.303901 -0.114314
C7    C     C_R   0.257913 0.055195 0.214284 -0.238471
C8    C     C_R   0.193458 0.948700 0.159954 0.159783
C9    C     C_R   0.174383 0.892196 0.197988 -0.163728
C10   C     C_R   0.842712 0.662846 0.438189 -0.224241
C11   C     C_R   0.933126 0.710065 0.478716 -0.140166
C12   C     C_3   0.813579 0.598368 0.820851 -0.252907
C13   C     C_R   0.978991 0.672521 0.429624 0.218899
C14   C     C_R   0.934767 0.594730 0.337439 -0.253435
C15   C     C_R   0.846035 0.554555 0.293719 0.081628
C16   C     C_R   0.364440 0.504270 0.644768 0.806469
C17   C     C_R   0.795396 0.576714 0.347116 0.099612
C18   C     C_R   0.699983 0.511555 0.306851 -0.091049
C19   C     C_R   0.660322 0.443294 0.213275 -0.217358
C20   C     C_R   0.713033 0.437802 0.159877 -0.222248
C21   C     C_R   0.805911 0.493382 0.198809 -0.082580
C22   C     C_R   0.783115 0.893069 0.585348 -0.196773
C23   C     C_3   0.710672 0.543003 0.797865 0.141998
C24   C     C_R   0.851541 0.947571 0.561544 -0.152090
C25   C     C_R   0.904080 0.055017 0.614368 -0.139419
C26   C     C_R   0.888748 0.108677 0.691534 -0.177729
C27   C     C_R   0.821113 0.055243 0.718436 0.097419
C28   C     C_R   0.640850 0.504436 0.360480 0.797895
C29   C     C_R   0.767076 0.945620 0.664189 0.104717
C30   C     C_R   0.696541 0.892051 0.688830 -0.066586
C31   C     C_R   0.677848 0.946123 0.762956 -0.218983
C32   C     C_R   0.730915 0.052965 0.816167 -0.206832
C33   C     C_R   0.803595 0.107936 0.796177 -0.073609
C34   C     C_3   0.699126 0.445423 0.778690 0.132762
C35   C     C_R   0.449292 0.676431 0.340550 0.175694
C36   C     C_R   0.479003 0.769744 0.352103 -0.156393
C37   C     C_R   0.426331 0.774340 0.301974 -0.231590
C38   C     C_R   0.341410 0.686395 0.239302 0.187576
C39   C     C_R   0.300457 0.597398 0.242576 0.031905
C40   C     C_R   0.360616 0.501420 0.358621 0.772200
C41   C     C_R   0.354818 0.593390 0.295539 -0.032376
C42   C     C_R   0.312311 0.506480 0.300967 -0.105168
C43   C     C_R   0.221292 0.422406 0.252053 0.141639
C44   C     C_R   0.171271 0.426379 0.198749 -0.204064
C45   C     C_3   0.686118 0.401649 0.679037 -0.246532
C46   C     C_R   0.208482 0.511670 0.195433 -0.097104
C47   C     C_R   0.352641 0.685446 0.760721 0.104225
C48   C     C_R   0.315715 0.739834 0.767836 0.137289
C49   C     C_R   0.224364 0.694909 0.760302 0.069355
C50   C     C_R   0.175485 0.605952 0.759899 0.131010
C51   C     C_R   0.218330 0.561473 0.767029 -0.008009
C52   C     C_R   0.641704 0.499951 0.641339 0.798654
C53   C     C_R   0.297022 0.586624 0.745321 -0.041556
C54   C     C_R   0.315981 0.511523 0.709393 -0.084500
C55   C     C_R   0.277135 0.434626 0.726249 0.098419
C56   C     C_3   0.699592 0.501061 0.698730 -0.125505
C57   C     C_R   0.217451 0.430409 0.772904 -0.269871
C58   C     C_R   0.187323 0.492980 0.794035 -0.095268
C59   C     C_R   0.860269 0.496452 0.140541 0.798349
C60   C     C_R   0.135959 0.496432 0.855650 0.789794
C61   C     C_R   0.132375 0.779768 0.140103 0.796456
C62   C     C_R   0.859891 0.220072 0.858016 0.779397
C63   C     C_R   0.145651 0.504832 0.140943 0.823015
C64   C     C_3   0.801968 0.555714 0.720740 0.185329
C65   C     C_R   0.858268 0.499952 0.858566 0.794698
C66   C     C_3   0.789022 0.456885 0.701822 0.178873
C67   C     C_R   0.341291 0.091346 0.426314 -0.172064
C68   C     C_3   0.800558 0.499018 0.801154 -0.081410
C69   C     C_3   0.830339 0.401595 0.649126 -0.412930
C70   C     C_3   0.804405 0.363455 0.551029 -0.862104
C71   C     C_3   0.140501 0.901864 0.065610 -0.378605
C72   C     C_3   0.193738 0.888052 0.002197 -0.811487
C73   C     C_3   0.074983 0.713436 0.470450 -0.405092
C74   C     C_3   0.120761 0.800994 0.570637 -0.916935
C75   C     C_3   0.860204 0.624190 0.690796 -0.366175
C76   C     C_3   0.959074 0.668163 0.724285 -0.873066
C77   C     C_3   0.179180 0.330504 0.259405 -0.373385
C78   C     C_R   0.309604 0.042807 0.470208 0.183517
C79   C     C_3   0.078443 0.246743 0.208270 -0.912358
C80   C     C_3   0.520372 0.665495 0.369251 -0.396025
C81   C     C_3   0.613255 0.731580 0.366880 -0.933296
C82   C     C_3   0.306059 0.691001 0.166424 -0.430659
C83   C     C_3   0.312183 0.623954 0.077217 -0.823485
C84   C     C_3   0.373749 0.844851 0.783298 -0.397833
C85   C     C_3   0.421455 0.931161 0.883458 -0.851911
C86   C     C_3   0.663789 0.591399 0.848543 -0.403950
C87   C     C_3   0.698956 0.642740 0.949141 -0.881048
C88   C     C_3   0.366842 0.090692 0.562372 -0.431383
C89   C     C_R   0.222137 0.953195 0.429959 -0.200220
C90   C     C_3   0.377677 0.190530 0.632642 -0.830658
H1    H     H_    0.193070 0.921131 0.467174 0.147229
H2    H     H_    0.956157 0.097029 0.594785 0.134832
H3    H     H_    0.929124 0.191912 0.728148 0.143442
H4    H     H_    0.716552 0.093115 0.874786 0.158076
H5    H     H_    0.546634 0.838123 0.394128 0.160488
H6    H     H_    0.456404 0.845415 0.306377 0.141336
H7    H     H_    0.866483 0.678217 0.879380 0.147195
H8    H     H_    0.101033 0.363599 0.160135 0.158494
H9    H     H_    0.193428 0.376070 0.791009 0.174170
H10   H     H_    0.632612 0.321502 0.621319 0.151049
H11   H     H_    0.269374 0.098841 0.186200 0.176218
H12   H     H_    0.588155 0.394682 0.180906 0.175817
H13   H     H_    0.408855 0.161223 0.458746 0.161388
H14   H     H_    0.730243 0.311690 0.518530 0.250913
H15   H     H_    0.832270 0.429490 0.545528 0.262890
H16   H     H_    0.832176 0.319442 0.514738 0.250614
H17   H     H_    0.904150 0.454501 0.681007 0.212207
H18   H     H_    0.806633 0.334272 0.652134 0.197375
H19   H     H_    0.039930 0.813033 0.256222 0.181192
H20   H     H_    0.063816 0.764926 0.305737 0.234267
H21   H     H_    0.255009 0.964346 0.024519 0.238465
H22   H     H_    0.151469 0.850459 0.933559 0.237461
H23   H     H_    0.812459 0.698057 0.478780 0.177728
H24   H     H_    0.213898 0.838874 0.999671 0.282168
H25   H     H_    0.074384 0.827589 0.037927 0.213657
H26   H     H_    0.123894 0.953686 0.067715 0.183805
H27   H     H_    0.124994 0.869430 0.583481 0.258837
H28   H     H_    0.083681 0.774847 0.610139 0.261065
H29   H     H_    0.190096 0.824349 0.593215 0.250932
H30   H     H_    0.075591 0.648361 0.460026 0.210468
H31   H     H_    0.115874 0.741515 0.433789 0.204458
H32   H     H_    0.983557 0.706374 0.797809 0.262195
H33   H     H_    0.969308 0.606143 0.689011 0.279215
H34   H     H_    0.965525 0.774199 0.548838 0.153963
H35   H     H_    0.999495 0.726360 0.710105 0.247604
H36   H     H_    0.835418 0.579331 0.616460 0.217807
H37   H     H_    0.854073 0.689621 0.718233 0.218129
H38   H     H_    0.039812 0.280123 0.231875 0.261049
H39   H     H_    0.063756 0.209131 0.134869 0.262762
H40   H     H_    0.056405 0.186377 0.220801 0.253405
H41   H     H_    0.214027 0.292355 0.234726 0.222823
H42   H     H_    0.190277 0.360247 0.331361 0.197525
H43   H     H_    0.607142 0.724077 0.302371 0.275453
H44   H     H_    0.649248 0.814011 0.423996 0.262123
H45   H     H_    0.970093 0.564271 0.301413 0.168672
H46   H     H_    0.654389 0.704781 0.373014 0.242142
H47   H     H_    0.528415 0.684123 0.437984 0.215727
H48   H     H_    0.499010 0.585106 0.321009 0.220192
H49   H     H_    0.284118 0.626799 0.025005 0.242982
H50   H     H_    0.383542 0.653804 0.084339 0.250801
H51   H     H_    0.274864 0.542431 0.054876 0.271860
H52   H     H_    0.238487 0.673497 0.158728 0.220578
H53   H     H_    0.347214 0.771172 0.184317 0.193957
H54   H     H_    0.326597 0.370965 0.755632 0.176755
H55   H     H_    0.240314 0.287474 0.657217 0.181835
H56   H     H_    0.680625 0.389065 0.087683 0.174339
H57   H     H_    0.467418 0.743883 0.732237 0.222782
H58   H     H_    0.469693 0.699984 0.795057 0.166664
H59   H     H_    0.371712 0.930406 0.917939 0.252548
H60   H     H_    0.466112 0.921720 0.914250 0.272504
H61   H     H_    0.462930 0.007155 0.893243 0.246392
H62   H     H_    0.424442 0.848919 0.749672 0.212643
H63   H     H_    0.333672 0.859235 0.753147 0.191977
H64   H     H_    0.180418 0.737222 0.695614 0.186858
H65   H     H_    0.213819 0.815040 0.809638 0.190292
H66   H     H_    0.047818 0.478229 0.719889 0.168088
H67   H     H_    0.623132 0.905345 0.781167 0.155276
H68   H     H_    0.064989 0.595619 0.788520 0.238914
H69   H     H_    0.686195 0.585192 0.962680 0.252325
H70   H     H_    0.772128 0.704650 0.977837 0.254959
H71   H     H_    0.664041 0.678018 0.983073 0.252489
H72   H     H_    0.675415 0.650667 0.837698 0.198375
H73   H     H_    0.590383 0.530614 0.821060 0.209825
H74   H     H_    0.579497 0.366467 0.791591 0.176809
H75   H     H_    0.669269 0.428695 0.879183 0.195511
H76   H     H_    0.414487 0.250004 0.618957 0.277740
H77   H     H_    0.310826 0.175358 0.632647 0.257736
H78   H     H_    0.742139 0.809786 0.539967 0.152275
H79   H     H_    0.416306 0.221164 0.700215 0.237459
H80   H     H_    0.336215 0.036202 0.582259 0.206921
H81   H     H_    0.433997 0.107258 0.561487 0.203458
H82   H     H_    0.862813 0.906109 0.500962 0.141965
N1    N     N_3   0.075145 0.831624 0.315298 -0.451490
N2    N     N_3   0.299539 0.362186 0.698562 -0.419875
N3    N     N_3   0.448594 0.738667 0.784212 -0.462642
N4    N     N_3   0.179568 0.738510 0.753609 -0.464733
N5    N     N_3   0.079722 0.552691 0.735453 -0.449552
N6    N     N_3   0.643146 0.383151 0.809171 -0.432197
O1    O     O_3   0.500000 0.500000 0.500000 -0.471787
O2    O     O_R   0.945270 0.268330 0.884560 -0.644433
O3    O     O_R   0.117250 0.560610 0.177960 -0.661471
O4    O     O_R   0.676930 0.731590 0.616180 -0.651695
O5    O     O_R   0.821970 0.439270 0.882700 -0.630471
O6    O     O_R   0.117250 0.439170 0.056520 -0.636603
O7    O     O_R   0.943420 0.560710 0.882700 -0.666430
O8    O     O_R   0.115410 0.731560 0.054670 -0.633257
O9    O     O_R   0.823040 0.268350 0.883790 -0.637505
O10   O     O_R   0.945270 0.560650 0.176870 -0.671548
O11   O     O_R   0.116170 0.439210 0.884560 -0.645032
O12   O     O_R   0.384570 0.439270 0.616180 -0.611807
O13   O     O_R   0.384570 0.268390 0.445310 -0.645150
O14   O     O_R   0.383800 0.560730 0.615410 -0.656631
O15   O     O_R   0.554710 0.439290 0.323100 -0.642136
O16   O     O_R   0.382720 0.560770 0.443450 -0.638468
O17   O     O_R   0.678010 0.560670 0.617270 -0.653615
O18   O     O_R   0.382720 0.439330 0.322010 -0.659279
O19   O     O_R   0.556550 0.439230 0.617270 -0.653479
O20   O     O_R   0.676930 0.560710 0.445310 -0.660165
O21   O     O_R   0.554710 0.731610 0.615410 -0.661702
O22   O     O_R   0.383800 0.268410 0.323100 -0.645808
O23   O     O_3   0.999970 0.499940 0.999970 -0.470099
O24   O     O_R   0.823040 0.439240 0.054670 -0.643096
O25   O     O_R   0.115410 0.560680 0.883790 -0.655573
O26   O     O_R   0.116170 0.731530 0.176870 -0.663750
Zn1   Zn    Zn3+2 0.457160 0.413230 0.543930 0.957422
Zn2   Zn    Zn3+2 0.456070 0.586770 0.542830 0.936911
Zn3   Zn    Zn3+2 0.456070 0.413260 0.369320 0.948803
Zn4   Zn    Zn3+2 0.630700 0.586740 0.543930 0.933957
Zn5   Zn    Zn3+2 0.042810 0.586720 0.956040 0.926611
Zn6   Zn    Zn3+2 0.043900 0.586680 0.130650 0.922948
Zn7   Zn    Zn3+2 0.043900 0.413170 0.957150 0.953077
Zn8   Zn    Zn3+2 0.869280 0.413210 0.956040 0.960794

loop_
_geom_bond_atom_site_label_1
_geom_bond_atom_site_label_2
_ccdc_geom_bond_type
H65   N4    S    
C66   C68   S    
C79   H38   S    
C72   H22   S    
O15   Zn3   S    
C22   C29   A    
C80   C81   S    
C90   H77   S    
C27   C29   A    
C41   C42   A    
C88   C90   S    
C32   H4    S    
C11   H34   S    
C36   H5    S    
C5    C67   A    
O1    Zn1   S    
C69   H17   S    
C67   H13   S    
C23   C56   S    
C39   C41   A    
C40   O16   A    
C53   C54   A    
C27   C33   A    
C74   H29   S    
C12   C68   S    
C12   C23   S    
C26   C27   A    
C37   C38   A    
O6    Zn7   S    
C63   O3    A    
C24   H82   S    
C22   C24   A    
C36   C37   A    
H68   N5    S    
C21   C59   S    
C61   O26   A    
C62   O2    A    
C30   C31   A    
C12   C64   S    
C19   H12   S    
H19   N1    S    
C66   C69   S    
C14   H45   S    
C10   C17   A    
C58   C60   S    
C80   H47   S    
C79   H39   S    
C72   H24   S    
C35   C80   S    
C87   H70   S    
C18   C19   A    
O13   Zn1   S    
C85   H60   S    
C1    C30   S    
C16   O14   A    
O1    Zn4   S    
O10   Zn6   S    
O17   Zn4   S    
C35   C36   A    
C45   C56   S    
C8    C9    A    
C25   H2    S    
C23   C86   S    
C56   C64   S    
C70   H14   S    
H55   N2    S    
C86   H72   S    
C89   H1    S    
O23   Zn8   S    
C75   H37   S    
C82   H52   S    
C47   C53   A    
C20   H56   S    
C22   H78   S    
C23   C34   S    
C26   H3    S    
C40   C42   S    
O1    Zn2   S    
C88   H81   S    
C13   C14   A    
C90   H76   S    
C76   H35   S    
C4    O13   A    
C1    O21   A    
C52   O17   A    
C44   H8    S    
C74   H28   S    
O23   Zn5   S    
C83   H50   S    
C69   H18   S    
C44   C46   A    
C50   C51   A    
C65   O7    A    
C77   C79   S    
C78   C89   A    
C38   C39   A    
O16   Zn2   S    
O12   Zn1   S    
O1    Zn3   S    
H58   N3    S    
C88   H80   S    
O20   Zn4   S    
C47   N3    S    
C7    C8    A    
C50   N5    S    
C18   C28   S    
C24   C25   A    
C4    C6    S    
O19   Zn1   S    
C70   H16   S    
C34   C68   S    
C83   H51   S    
C86   C87   S    
C60   O11   A    
C25   C26   A    
C79   H40   S    
C33   C62   S    
C70   H15   S    
O21   Zn2   S    
C28   O20   A    
C48   C84   S    
C37   H6    S    
O3    Zn6   S    
C51   C53   A    
C77   H42   S    
C64   C66   S    
C2    C89   A    
C75   C76   S    
C85   H61   S    
C55   N2    S    
C29   C30   A    
C9    C61   S    
C84   H63   S    
C60   O25   A    
C47   C48   A    
C4    O22   A    
C65   C68   S    
C17   C18   A    
C71   H25   S    
C59   O10   A    
C51   C58   A    
C84   C85   S    
C3    C9    A    
C12   H7    S    
C31   H67   S    
C10   H23   S    
C34   C45   S    
C39   C46   A    
C84   H62   S    
C48   C49   A    
C87   H71   S    
C13   C73   S    
C82   C83   S    
O22   Zn3   S    
C73   H31   S    
C10   C11   A    
C55   C57   A    
C43   C44   A    
O11   Zn7   S    
C83   H49   S    
C82   H53   S    
O7    Zn5   S    
C34   N6    S    
C42   C43   A    
H54   N2    S    
C73   C74   S    
O23   Zn6   S    
C81   H44   S    
H74   N6    S    
C81   H46   S    
C40   O18   A    
H20   N1    S    
C78   C88   S    
C15   C17   A    
C74   H27   S    
C54   C55   A    
C16   O12   A    
C8    C71   S    
C63   O6    A    
C76   H33   S    
O14   Zn2   S    
C31   C32   A    
C77   H41   S    
O24   Zn8   S    
O9    Zn8   S    
C3    C5    A    
C45   H10   S    
C28   O15   A    
C1    O4    A    
C81   H43   S    
C6    C7    A    
C86   H73   S    
C43   C77   S    
C85   H59   S    
H64   N4    S    
C46   C63   S    
C75   H36   S    
C76   H32   S    
C32   C33   A    
C19   C20   A    
C65   O5    A    
C2    C3    A    
O5    Zn8   S    
H75   N6    S    
C71   C72   S    
C2    N1    S    
H57   N3    S    
C11   C13   A    
C59   O24   A    
C57   C58   A    
C5    C6    A    
O18   Zn3   S    
C80   H48   S    
O2    Zn7   S    
C90   H79   S    
C61   O8    A    
C64   C75   S    
C87   H69   S    
C71   H26   S    
O4    Zn4   S    
C69   C70   S    
C35   C41   A    
C16   C54   S    
C72   H21   S    
H66   N5    S    
C67   C78   A    
C15   C21   A    
C20   C21   A    
C49   C50   A    
C7    H11   S    
O8    Zn5   S    
O26   Zn6   S    
C45   C66   S    
C73   H30   S    
C14   C15   A    
O25   Zn5   S    
C52   O19   A    
O23   Zn7   S    
C49   N4    S    
C38   C82   S    
C52   C56   S    
C62   O9    A    
C57   H9    S    
