data_mof_unit_31579.cif
_audit_creation_date              2012-12-10T17:43:36-0500
_audit_creation_method            fapswitch 2.2
_symmetry_space_group_name_H-M    P1
_symmetry_Int_Tables_number       1
_space_group_crystal_system       triclinic
_cell_length_a                    14.916145
_cell_length_b                    10.612903
_cell_length_c                    9.960774
_cell_angle_alpha                 92.223058
_cell_angle_beta                  88.935368
_cell_angle_gamma                 91.013559
_cell_volume                      1575.14041444

loop_
_atom_site_label
_atom_site_type_symbol
_atom_type_description
_atom_site_fract_x
_atom_site_fract_y
_atom_site_fract_z
_atom_type_partial_charge
C1    C     C_R   0.499798 0.260720 0.497024 0.842396
C2    C     C_R   0.908074 0.595850 0.433881 0.105397
C3    C     C_R   0.949692 0.337938 0.667667 -0.221747
C4    C     C_R   0.042812 0.341306 0.670921 -0.227630
C5    C     C_R   0.091373 0.426141 0.592196 0.136948
C6    C     C_R   0.046711 0.511162 0.511651 0.039858
C7    C     C_R   0.095414 0.595707 0.429650 0.059003
C8    C     C_R   0.049293 0.682997 0.353532 -0.002966
C9    C     C_R   0.955906 0.684054 0.359737 -0.281496
C10   C     C_R   0.184071 0.425976 0.590886 -0.275200
C11   C     C_R   0.231552 0.504365 0.505053 -0.055582
C12   C     C_R   0.327109 0.500599 0.501297 0.846507
C13   C     C_R   0.188509 0.588032 0.424472 -0.256622
C14   C     C_R   0.332720 0.128174 0.547341 -0.216162
C15   C     C_R   0.258515 0.065934 0.602082 -0.233144
C16   C     C_R   0.269482 0.950033 0.660099 -0.234835
C17   C     C_R   0.353723 0.893069 0.656960 0.372876
C18   C     C_R   0.421971 0.941530 0.570481 -0.004524
C19   C     C_R   0.415811 0.067077 0.534961 0.072837
C20   C     C_R   0.494015 0.128209 0.489726 -0.047754
C21   C     C_R   0.571695 0.063473 0.454913 -0.213917
C22   C     C_R   0.571607 0.934840 0.463849 -0.203373
C23   C     C_R   0.495824 0.739815 0.504289 0.859016
C24   C     C_R   0.496638 0.873641 0.517417 -0.064792
C25   C     C_R   0.382578 0.337496 0.136846 -0.131812
C26   C     C_R   0.322339 0.260450 0.065996 -0.168786
C27   C     C_R   0.320787 0.261634 0.927139 -0.165810
C28   C     C_R   0.379719 0.340192 0.858242 -0.116241
C29   C     C_R   0.440923 0.421263 0.926647 0.193360
C30   C     C_R   0.441547 0.420649 0.070914 0.135109
C31   C     C_R   0.557124 0.574650 0.070135 0.013682
C32   C     C_R   0.556466 0.573809 0.927937 -0.033490
C33   C     C_R   0.672839 0.499095 0.499464 0.877051
C34   C     C_R   0.815290 0.591961 0.431368 -0.254717
C35   C     C_R   0.768390 0.500301 0.500899 -0.057466
C36   C     C_R   0.811986 0.416496 0.581079 -0.264159
C37   C     C_R   0.904780 0.420843 0.587420 0.126726
C38   C     C_R   0.953282 0.509445 0.511119 0.056934
H1    H     H_    0.779046 0.661194 0.378081 0.166097
H2    H     H_    0.324649 0.222421 0.512212 0.120064
H3    H     H_    0.194413 0.112127 0.609724 0.154899
H4    H     H_    0.215161 0.912409 0.721021 0.148918
H5    H     H_    0.630669 0.882757 0.432478 0.150607
H6    H     H_    0.381490 0.328434 0.242859 0.200180
H7    H     H_    0.276880 0.199444 0.119859 0.136174
H8    H     H_    0.274041 0.200790 0.872334 0.155889
H9    H     H_    0.375475 0.334456 0.751798 0.194731
H10   H     H_    0.773529 0.348192 0.637737 0.147521
H11   H     H_    0.602771 0.633681 0.873295 0.164837
H12   H     H_    0.912866 0.270396 0.727234 0.148191
H13   H     H_    0.076907 0.276210 0.732970 0.139841
H14   H     H_    0.219352 0.362211 0.653102 0.136823
H15   H     H_    0.228467 0.647603 0.359866 0.173190
H16   H     H_    0.920626 0.753463 0.305086 0.154045
H17   H     H_    0.631781 0.112507 0.420725 0.137419
N1    N     N_R   0.499150 0.498800 0.142780 -0.140243
N2    N     N_R   0.499120 0.498720 0.857170 -0.105551
O1    O     O_R   0.500000 0.316780 0.614690 -0.634790
O2    O     O_R   0.499990 0.316750 0.385360 -0.644684
O3    O     O_R   0.367850 0.499980 0.614680 -0.599105
O4    O     O_R   0.367840 0.499960 0.385350 -0.639828
O5    O     O_R   0.500010 0.683250 0.614640 -0.531136
O6    O     O_R   0.500000 0.683220 0.385310 -0.624512
O7    O     O_R   0.632160 0.500040 0.614650 -0.626561
O8    O     O_R   0.632150 0.500020 0.385320 -0.615695
Zn1   Zn    Zn3+2 0.500010 0.500020 0.653130 1.004431
Zn2   Zn    Zn3+2 0.499990 0.499980 0.346870 0.944618
S1    S     S_3+6 0.381741 0.823356 0.809305 0.020840
O9    O     O_2   0.481288 0.828723 0.829916 -0.278815
O10   O     O_2   0.338126 0.895531 0.924857 -0.328654
O11   O     O_3   0.343967 0.673651 0.811134 -0.520196
H18   H     H_    0.278023 0.679031 0.803663 0.337845
C39   C     C_R   0.625697 0.658042 0.131137 0.165495
C40   C     C_R   0.715699 0.622813 0.114205 -0.174251
C41   C     C_R   0.784420 0.713802 0.120505 -0.169370
C42   C     C_R   0.764350 0.840205 0.148695 -0.140686
C43   C     C_R   0.675168 0.876156 0.166384 -0.171096
C44   C     C_R   0.605952 0.785781 0.156157 -0.076915
H19   H     H_    0.732126 0.526182 0.086141 0.135701
H20   H     H_    0.853097 0.686209 0.101466 0.139381
H21   H     H_    0.817728 0.910539 0.154044 0.135945
H22   H     H_    0.659473 0.974651 0.183975 0.150212
H23   H     H_    0.537000 0.816355 0.159799 0.178040
C45   C     C_R   0.095084 0.773436 0.264918 0.119274
C46   C     C_R   0.149626 0.871094 0.319043 -0.174992
C47   C     C_R   0.187569 0.961141 0.235320 -0.120219
C48   C     C_R   0.170549 0.954618 0.097545 -0.038209
C49   C     C_R   0.116896 0.857165 0.042961 -0.115952
C50   C     C_R   0.078946 0.767022 0.126290 -0.160617
H24   H     H_    0.161550 0.878162 0.425917 0.142557
H25   H     H_    0.229349 0.036477 0.277594 0.136271
H26   H     H_    0.198710 0.024765 0.032479 0.136431
H27   H     H_    0.104148 0.852089 0.936241 0.121255
H28   H     H_    0.036448 0.692781 0.083145 0.128874

loop_
_geom_bond_atom_site_label_1
_geom_bond_atom_site_label_2
_ccdc_geom_bond_type
C48   C49   A    
C28   H9    S    
C39   C40   A    
C35   C36   A    
N2    Zn1   S    
C10   H14   S    
C33   O8    A    
C7    C8    A    
C43   C44   A    
C26   C27   A    
C29   C30   A    
C18   C24   A    
C36   C37   A    
C18   C19   A    
C47   H25   S    
C1    O2    A    
C5    C6    A    
C31   C39   S    
C15   C16   A    
C34   C35   A    
C50   H28   S    
C2    C38   A    
C26   H7    S    
O2    Zn2   S    
S1    O9    D    
C44   H23   S    
O1    Zn1   S    
C23   O5    A    
C31   C32   A    
C8    C9    A    
O8    Zn2   S    
C23   C24   S    
C6    C38   A    
C31   N1    A    
C41   H20   S    
C2    C34   A    
C23   O6    A    
O3    Zn1   S    
C21   C22   A    
C32   N2    A    
C25   H6    S    
C3    H12   S    
C13   H15   S    
O6    Zn2   S    
C40   C41   A    
O5    Zn1   S    
C4    H13   S    
C34   H1    S    
C45   C46   A    
C15   H3    S    
C21   H17   S    
C47   C48   A    
C16   C17   A    
C25   C26   A    
C46   C47   A    
C30   N1    A    
O7    Zn1   S    
C41   C42   A    
C37   C38   A    
O4    Zn2   S    
C22   H5    S    
C39   C44   A    
C20   C21   A    
C17   C18   A    
C42   C43   A    
C27   H8    S    
C29   N2    A    
C40   H19   S    
C22   C24   A    
C45   C50   A    
C3    C4    A    
C16   H4    S    
C25   C30   A    
C49   H27   S    
C28   C29   A    
C1    C20   S    
C8    C45   S    
C14   C19   A    
C4    C5    A    
C42   H21   S    
C46   H24   S    
S1    O11   S    
C6    C7    A    
N1    Zn2   S    
C17   S1    S    
C19   C20   A    
C5    C10   A    
C1    O1    A    
C12   O4    A    
C11   C13   A    
C43   H22   S    
C33   O7    A    
C33   C35   S    
C36   H10   S    
C32   H11   S    
C10   C11   A    
C14   H2    S    
C12   O3    A    
C7    C13   A    
O11   H18   S    
C49   C50   A    
C3    C37   A    
S1    O10   D    
C27   C28   A    
C14   C15   A    
C9    H16   S    
C48   H26   S    
C2    C9    A    
C11   C12   S    
