data_mof_unit_30575.cif
_audit_creation_date              2012-12-10T20:42:41-0500
_audit_creation_method            fapswitch 2.2
_symmetry_space_group_name_H-M    P1
_symmetry_Int_Tables_number       1
_space_group_crystal_system       triclinic
_cell_length_a                    8.911959
_cell_length_b                    10.760918
_cell_length_c                    9.955936
_cell_angle_alpha                 90.338455
_cell_angle_beta                  90.043295
_cell_angle_gamma                 91.904359
_cell_volume                      954.238407271

loop_
_atom_site_label
_atom_site_type_symbol
_atom_type_description
_atom_site_fract_x
_atom_site_fract_y
_atom_site_fract_z
_atom_type_partial_charge
C1    C     C_R   0.507560 0.260886 0.499459 0.900946
C2    C     C_R   0.501755 0.938259 0.367243 0.121889
C3    C     C_R   0.475542 0.872157 0.489752 -0.219711
C4    C     C_R   0.433898 0.938308 0.603038 0.117240
C5    C     C_3   0.480085 0.929682 0.746766 -0.037275
C6    C     C_3   0.488177 0.070902 0.748770 -0.481661
C7    C     C_R   0.411926 0.417443 0.067984 0.111947
C8    C     C_R   0.599116 0.572377 0.074100 -0.149125
C9    C     C_R   0.599070 0.574780 0.930791 0.191175
C10   C     C_R   0.419152 0.411597 0.927574 0.149620
C11   C     C_3   0.256756 0.377556 0.913840 -0.519913
C12   C     C_R   0.219013 0.500242 0.500061 0.936877
C13   C     C_3   0.244985 0.393411 0.066448 -0.058309
C14   C     C_R   0.493753 0.739892 0.498534 0.876089
C15   C     C_R   0.781034 0.500866 0.500159 0.920256
C16   C     C_1   0.065522 0.501185 0.500592 -0.220710
C17   C     C_1   0.934596 0.501385 0.500693 -0.217289
C18   C     C_R   0.441885 0.065480 0.604139 0.061339
C19   C     C_R   0.506457 0.128620 0.496291 -0.198294
C20   C     C_R   0.544145 0.064491 0.377325 0.091663
H1    H     H_    0.238652 0.279444 0.880753 0.171623
H2    H     H_    0.213978 0.305336 0.119180 0.163981
H3    H     H_    0.592916 0.890570 0.757907 0.122826
H4    H     H_    0.403185 0.115011 0.813253 0.204842
H5    H     H_    0.604299 0.110023 0.762877 0.180475
H6    H     H_    0.677165 0.631649 0.130239 0.145807
H7    H     H_    0.195024 0.444782 0.852259 0.226867
N1    N     N_R   0.499010 0.499140 0.142800 -0.127206
N2    N     N_R   0.499010 0.499180 0.857150 -0.128419
O1    O     O_R   0.500020 0.316790 0.614690 -0.612080
O2    O     O_R   0.500000 0.316760 0.385350 -0.597365
O3    O     O_R   0.285350 0.500020 0.614650 -0.618612
O4    O     O_R   0.285340 0.499980 0.385310 -0.624643
O5    O     O_R   0.500000 0.683240 0.614650 -0.651497
O6    O     O_R   0.499980 0.683210 0.385310 -0.612478
O7    O     O_R   0.714660 0.500020 0.614690 -0.617853
O8    O     O_R   0.714650 0.499980 0.385350 -0.625035
Zn1   Zn    Zn3+2 0.500010 0.500020 0.653130 0.922164
Zn2   Zn    Zn3+2 0.499990 0.499980 0.346870 0.916300
C21   C     C_3   0.662824 0.118555 0.281216 -0.374765
C22   C     C_3   0.598458 0.176515 0.154195 -0.805173
H8    H     H_    0.474294 0.181229 0.159356 0.258567
H9    H     H_    0.648375 0.271514 0.140870 0.259192
H10   H     H_    0.628237 0.121607 0.063805 0.213436
H11   H     H_    0.735197 0.189166 0.334581 0.196892
H12   H     H_    0.740893 0.044630 0.251654 0.177027
C23   C     C_3   0.150470 0.505938 0.104733 -0.337388
C24   C     C_3   0.996220 0.462306 0.155840 -0.850514
H13   H     H_    0.931059 0.415036 0.074138 0.258309
H14   H     H_    0.007778 0.396132 0.240005 0.263361
H15   H     H_    0.933890 0.543255 0.192570 0.254438
H16   H     H_    0.206784 0.564940 0.181154 0.245757
H17   H     H_    0.137089 0.569668 0.018814 0.194051
C25   C     C_3   0.482090 0.880428 0.227792 -0.340510
C26   C     C_3   0.320096 0.832306 0.204830 -0.851192
H18   H     H_    0.315468 0.770136 0.115549 0.229022
H19   H     H_    0.274507 0.779268 0.291703 0.268318
H20   H     H_    0.246307 0.911825 0.187081 0.240837
H21   H     H_    0.505197 0.948318 0.147610 0.198919
H22   H     H_    0.565006 0.808390 0.208912 0.205299
C27   C     C_3   0.361370 0.870618 0.841639 -0.356762
C28   C     C_3   0.197654 0.893290 0.804730 -0.858893
H23   H     H_    0.177613 0.994131 0.795985 0.254491
H24   H     H_    0.167666 0.845772 0.708598 0.257273
H25   H     H_    0.123288 0.854823 0.884792 0.237233
H26   H     H_    0.376724 0.768703 0.845417 0.219957
H27   H     H_    0.383076 0.908731 0.943399 0.205906
C29   C     C_3   0.708245 0.666122 0.865864 -0.397578
C30   C     C_3   0.870625 0.631198 0.885900 -0.907373
H28   H     H_    0.884739 0.530675 0.865376 0.284401
H29   H     H_    0.944123 0.685265 0.815980 0.251660
H30   H     H_    0.905598 0.655243 0.989777 0.253393
H31   H     H_    0.691032 0.674012 0.758289 0.272355
H32   H     H_    0.692798 0.759714 0.910358 0.163604

loop_
_geom_bond_atom_site_label_1
_geom_bond_atom_site_label_2
_ccdc_geom_bond_type
N2    Zn1   S    
C14   O5    A    
C30   H30   S    
O6    Zn2   S    
C26   H18   S    
C23   H16   S    
C25   H22   S    
O3    Zn1   S    
C8    C9    A    
C7    C10   A    
C8    H6    S    
C22   H8    S    
C27   H27   S    
N1    Zn2   S    
C23   C24   S    
C5    H3    S    
C11   H7    S    
C23   H17   S    
C6    H4    S    
C19   C20   A    
O7    Zn1   S    
C2    C3    A    
C29   H31   S    
C9    C29   S    
C4    C18   A    
O8    Zn2   S    
O4    Zn2   S    
C12   O3    A    
C21   H12   S    
C9    N2    A    
C11   C13   S    
C10   N2    A    
C28   H23   S    
C3    C14   S    
C24   H15   S    
C6    C18   S    
C5    C6    S    
C24   H14   S    
C24   H13   S    
O2    Zn2   S    
C13   H2    S    
C25   H21   S    
C26   H19   S    
C1    O1    A    
C27   C28   S    
C20   C21   S    
C22   H10   S    
C30   H28   S    
C1    C19   S    
C6    H5    S    
C16   C17   T    
C10   C11   S    
C7    N1    A    
C5    C27   S    
C3    C4    A    
C15   O7    A    
C1    O2    A    
C21   H11   S    
O1    Zn1   S    
C8    N1    A    
C15   C17   S    
C18   C19   A    
C2    C25   S    
C26   H20   S    
C14   O6    A    
C13   C23   S    
C25   C26   S    
C21   C22   S    
C28   H24   S    
C7    C13   S    
C28   H25   S    
C12   O4    A    
O5    Zn1   S    
C2    C20   A    
C27   H26   S    
C29   C30   S    
C11   H1    S    
C15   O8    A    
C22   H9    S    
C12   C16   S    
C30   H29   S    
C4    C5    S    
C29   H32   S    
