data_mof_unit_46143.cif
_audit_creation_date              2012-12-10T16:53:10-0500
_audit_creation_method            fapswitch 2.2
_symmetry_space_group_name_H-M    P1
_symmetry_Int_Tables_number       1
_space_group_crystal_system       triclinic
_cell_length_a                    10.806191
_cell_length_b                    10.944005
_cell_length_c                    9.691764
_cell_angle_alpha                 90.914367
_cell_angle_beta                  89.898449
_cell_angle_gamma                 89.64755
_cell_volume                      1146.00752697

loop_
_atom_site_label
_atom_site_type_symbol
_atom_type_description
_atom_site_fract_x
_atom_site_fract_y
_atom_site_fract_z
_atom_type_partial_charge
C1    C     C_R   0.498658 0.265476 0.498700 0.871895
C2    C     C_R   0.064012 0.596480 0.595038 0.033290
C3    C     C_R   0.128587 0.517293 0.501714 -0.069473
C4    C     C_R   0.064393 0.445189 0.406045 -0.183055
C5    C     C_R   0.936903 0.444938 0.405520 -0.195490
C6    C     C_R   0.870856 0.517544 0.499942 -0.080199
C7    C     C_2   0.519136 0.931946 0.392241 -0.203281
C8    C     C_2   0.524345 0.864927 0.505878 -0.325050
C9    C     C_2   0.543200 0.064412 0.399921 0.414965
C10   C     C_2   0.482595 0.134427 0.494800 0.114745
C11   C     C_2   0.426923 0.431768 0.921052 -0.034756
C12   C     C_R   0.262556 0.506781 0.500582 0.801397
C13   C     C_2   0.429245 0.429385 0.076729 -0.029587
C14   C     C_R   0.505074 0.734379 0.501186 0.844645
C15   C     C_R   0.737305 0.506022 0.500022 0.784162
C16   C     C_R   0.125817 0.676199 0.688404 -0.266741
C17   C     C_R   0.059370 0.753190 0.779666 0.538631
C18   C     C_R   0.930766 0.753717 0.775468 -0.196518
C19   C     C_R   0.868199 0.680014 0.680844 -0.275787
C20   C     C_R   0.933036 0.597484 0.592693 0.102771
Cu1   Cu    Cu3+1 0.500020 0.500020 0.638630 0.960381
Cu2   Cu    Cu3+1 0.499980 0.499980 0.361370 0.975469
H1    H     H_    0.113358 0.385461 0.333932 0.156257
H2    H     H_    0.361245 0.372606 0.868721 0.174400
H3    H     H_    0.563272 0.552787 0.894754 0.191840
H4    H     H_    0.367895 0.365858 0.127113 0.154502
H5    H     H_    0.554768 0.561281 0.107030 0.191460
H6    H     H_    0.225262 0.680281 0.692478 0.171370
H7    H     H_    0.878783 0.813307 0.844834 0.155319
H8    H     H_    0.768829 0.690093 0.677518 0.172044
H9    H     H_    0.889443 0.384768 0.333429 0.166387
H10   H     H_    0.503688 0.889654 0.291630 0.174670
H11   H     H_    0.547303 0.906694 0.604984 0.184747
N1    N     N_2   0.498640 0.498660 0.846910 -0.286338
N2    N     N_2   0.498610 0.498630 0.153040 -0.279234
O1    O     O_R   0.500020 0.321960 0.617040 -0.550533
O2    O     O_R   0.499980 0.321920 0.382900 -0.546886
O3    O     O_R   0.319670 0.500020 0.617100 -0.580443
O4    O     O_R   0.319630 0.499980 0.382950 -0.578062
O5    O     O_R   0.500020 0.678080 0.617100 -0.598305
O6    O     O_R   0.499980 0.678040 0.382960 -0.577251
O7    O     O_R   0.680370 0.500020 0.617050 -0.584092
O8    O     O_R   0.680330 0.499980 0.382900 -0.573022
Cl1   Cl    Cl    0.366675 0.079329 0.606361 -0.727161
O9    O     O_3   0.117680 0.822090 0.881073 -0.597644
C21   C     C_3   0.193402 0.910444 0.819635 -0.229919
H12   H     H_    0.143739 0.960906 0.737246 0.190895
H13   H     H_    0.220287 0.978455 0.900039 0.204008
H14   H     H_    0.280074 0.868334 0.778767 0.193447
O10   O     O_3   0.620582 0.121082 0.304886 -0.580486
C22   C     C_3   0.718326 0.043629 0.260840 -0.294280
H15   H     H_    0.684669 0.973525 0.185919 0.166716
H16   H     H_    0.765758 0.000009 0.349519 0.160171
H17   H     H_    0.788003 0.099565 0.206791 0.193009

loop_
_geom_bond_atom_site_label_1
_geom_bond_atom_site_label_2
_ccdc_geom_bond_type
C16   H6    S    
C22   H16   S    
C13   N2    D    
Cu1   N1    S    
C6    C20   A    
C9    C10   D    
Cu2   O8    S    
C10   Cl1   S    
C1    O2    A    
H3    N1    S    
C22   H17   S    
C12   O4    A    
Cu2   O2    S    
C17   C18   A    
C3    C4    A    
C15   O8    A    
C7    C8    D    
Cu1   O1    S    
Cu1   Cu2   S    
C18   H7    S    
Cu2   N2    S    
C11   C13   S    
C21   H14   S    
Cu1   O7    S    
Cu1   O5    S    
C14   O6    A    
Cu2   O4    S    
C17   O9    S    
O10   C22   S    
C2    C3    A    
C8    H11   S    
C12   O3    A    
C5    C6    A    
C7    H10   S    
C21   H13   S    
C13   H4    S    
Cu2   O6    S    
Cu1   O3    S    
C2    C20   A    
C22   H15   S    
C11   H2    S    
C2    C16   A    
C15   O7    A    
C18   C19   A    
C1    C10   S    
C7    C9    S    
C4    H1    S    
C21   H12   S    
C16   C17   A    
C8    C14   S    
C3    C12   S    
H5    N2    S    
C6    C15   S    
O9    C21   S    
C19   H8    S    
C14   O5    A    
C11   N1    D    
C9    O10   S    
C19   C20   A    
C1    O1    A    
C4    C5    A    
C5    H9    S    
