data_mof_unit_57136.cif
_audit_creation_date              2013-03-05T15:58:07-0500
_audit_creation_method            fapswitch 2.2
_symmetry_space_group_name_H-M    P1
_symmetry_Int_Tables_number       1
_space_group_crystal_system       triclinic
_cell_length_a                    15.003545
_cell_length_b                    14.884225
_cell_length_c                    15.084877
_cell_angle_alpha                 110.225911
_cell_angle_beta                  108.867455
_cell_angle_gamma                 108.772564
_cell_volume                      2610.20945503

loop_
_atom_site_label
_atom_site_type_symbol
_atom_site_description
_atom_site_fract_x
_atom_site_fract_y
_atom_site_fract_z
_atom_type_partial_charge
C1    C     C_R   0.910343 0.195922 0.996241 -0.105111
H1    H     H_    0.851569 0.167970 0.020577 0.111890
N1    N     N_R   0.947080 0.293830 0.002870 -0.045158
C2    C     C_R   0.297807 0.801745 0.206689 -0.150958
H2    H     H_    0.351762 0.828676 0.176802 0.118723
N2    N     N_R   0.208950 0.706170 0.152110 -0.038977
C3    C     C_R   0.222621 0.407028 0.973346 -0.000200
H3    H     H_    0.202046 0.321734 0.936756 0.110895
N3    N     N_R   0.153670 0.443180 0.946090 -0.049713
C4    C     C_R   0.059712 0.589757 0.313630 -0.136065
H4    H     H_    0.104928 0.673693 0.379470 0.104267
N4    N     N_R   0.002360 0.556820 0.208890 -0.045174
C5    C     C_R   0.313152 0.591027 0.064133 -0.171850
H5    H     H_    0.375290 0.675762 0.111049 0.115738
N5    N     N_R   0.210070 0.556820 0.002870 -0.043667
C6    C     C_R   0.979660 0.406818 0.217250 -0.114801
H6    H     H_    0.956021 0.322181 0.192870 0.105942
N6    N     N_R   0.945960 0.443180 0.152110 -0.044958
C7    C     C_R   0.209610 0.803152 0.300810 -0.105724
H7    H     H_    0.183762 0.831398 0.359085 0.101155
N7    N     N_R   0.151710 0.706170 0.208890 -0.043366
C8    C     C_R   0.001195 0.197338 0.905484 -0.138823
H8    H     H_    0.021570 0.169686 0.842463 0.125494
N8    N     N_R   0.004320 0.293830 0.946090 -0.051216
C9    C     C_R   0.943495 0.133475 0.935812 0.079069
C10   C     C_R   0.300774 0.863181 0.299992 0.064848
C11   C     C_R   0.324235 0.498509 0.047627 0.009660
C12   C     C_R   0.043545 0.495221 0.320179 0.060299
C13   C     C_R   0.701823 0.409896 0.006306 -0.134223
H9    H     H_    0.648411 0.326037 0.978607 0.159583
N9    N     N_R   0.789930 0.443180 0.997130 -0.047584
C14   C     C_R   0.085390 0.590506 0.786716 -0.142253
H10   H     H_    0.135017 0.675072 0.812265 0.105206
N10   N     N_R   0.054040 0.556820 0.847890 -0.038954
C15   C     C_R   0.780603 0.254167 0.688290 -0.178861
H11   H     H_    0.803128 0.249301 0.626565 0.145374
N11   N     N_R   0.848290 0.293830 0.791110 -0.061445
C16   C     C_R   0.928114 0.742573 0.022308 -0.095711
H12   H     H_    0.869035 0.741416 0.047455 0.122906
N12   N     N_R   0.995680 0.706170 0.053910 -0.050816
C17   C     C_R   0.024382 0.749420 0.936130 -0.123837
H13   H     H_    0.059581 0.763467 0.887187 0.099466
N13   N     N_R   0.052920 0.706170 0.997130 -0.043280
C18   C     C_R   0.686086 0.237919 0.776293 0.359374
N14   N     N_R   0.791050 0.293830 0.847890 -0.083646
C19   C     C_R   0.791105 0.591614 0.097274 -0.138406
H14   H     H_    0.820121 0.676436 0.153177 0.094343
N15   N     N_R   0.846330 0.556820 0.053910 -0.041524
C20   C     C_R   0.002490 0.407800 0.700592 -0.120652
H15   H     H_    0.981235 0.323866 0.650004 0.127131
N16   N     N_R   0.997640 0.443180 0.791110 -0.042225
Ni1   Ni    Ni4+2 0.869690 0.369690 0.000000 0.262227
Ni2   Ni    Ni4+2 0.130310 0.630310 0.000000 0.213874
Ni3   Ni    Ni4+2 0.000970 0.369690 0.869780 0.230085
Ni4   Ni    Ni4+2 0.999030 0.630310 0.130220 0.211923
C21   C     C_R   0.700750 0.500897 0.069929 0.010944
C22   C     C_R   0.056085 0.498053 0.694905 0.054413
C23   C     C_R   0.677874 0.213603 0.675131 -0.078471
C24   C     C_R   0.943820 0.771663 0.948331 0.060558
H16   H     H_    0.609588 0.090712 0.039510 0.182910
C25   C     C_R   0.702120 0.260304 0.164772 -0.023182
H17   H     H_    0.646050 0.282157 0.124956 0.138301
C26   C     C_R   0.795983 0.340531 0.263060 -0.156577
H18   H     H_    0.811744 0.424623 0.298753 0.121525
C27   C     C_R   0.872016 0.313066 0.311802 0.086842
C28   C     C_R   0.849454 0.203250 0.264492 -0.065601
H19   H     H_    0.906877 0.180641 0.301470 0.149297
C29   C     C_R   0.754646 0.123285 0.166652 -0.132302
H20   H     H_    0.738379 0.039430 0.128437 0.139732
C30   C     C_R   0.681658 0.152051 0.116363 -0.019352
C31   C     C_R   0.988027 0.401710 0.504443 -0.172412
H21   H     H_    0.921481 0.338557 0.499063 0.172547
C32   C     C_R   0.072801 0.491111 0.604270 0.031306
C33   C     C_R   0.158809 0.574321 0.611056 0.090055
C34   C     C_R   0.150730 0.568898 0.514361 -0.210685
H22   H     H_    0.213890 0.631965 0.516037 0.147147
C35   C     C_R   0.058758 0.485623 0.415339 0.047369
C36   C     C_R   0.977011 0.399532 0.410235 0.001463
C37   C     C_R   0.289514 0.776776 0.732854 -0.331898
H23   H     H_    0.254022 0.791241 0.667894 0.153874
C38   C     C_R   0.369375 0.867015 0.835182 0.854723
C39   C     C_R   0.410321 0.851409 0.922573 -0.276122
H24   H     H_    0.468688 0.921173 0.002808 0.167028
C40   C     C_R   0.375026 0.745421 0.906625 -0.113604
H25   H     H_    0.403459 0.733318 0.974671 0.198202
C41   C     C_R   0.301436 0.654673 0.803053 -0.054424
H26   H     H_    0.276647 0.573164 0.792501 0.151040
C42   C     C_R   0.253010 0.669355 0.716074 0.017241
H27   H     H_    0.087613 0.167183 0.345498 0.115968
C43   C     C_R   0.185250 0.107731 0.293573 -0.098666
H28   H     H_    0.157448 0.110951 0.219527 0.119581
C44   C     C_R   0.261990 0.073779 0.318944 -0.078551
H29   H     H_    0.293872 0.052317 0.264564 0.146695
C45   C     C_R   0.301655 0.073524 0.416890 0.086820
C46   C     C_R   0.260993 0.104368 0.487400 -0.161587
H30   H     H_    0.291451 0.105654 0.563745 0.161431
C47   C     C_R   0.182708 0.136372 0.460739 -0.060748
H31   H     H_    0.152026 0.160755 0.515529 0.158421
C48   C     C_R   0.146112 0.139645 0.364702 -0.110391
C49   C     C_R   0.491012 0.140523 0.544573 -0.134604
H32   H     H_    0.493470 0.214783 0.595115 0.158683
C50   C     C_R   0.584175 0.130605 0.572428 0.098875
C51   C     C_R   0.585726 0.039458 0.503326 0.272550
C52   C     C_R   0.490978 0.954800 0.413356 -0.145498
H33   H     H_    0.491030 0.881881 0.363488 0.126226
C53   C     C_R   0.396031 0.960975 0.388974 0.017599
C54   C     C_R   0.395426 0.055711 0.451469 0.014592
C55   C     C_R   0.739951 0.056339 0.468187 0.533604
C56   C     C_R   0.838145 0.056575 0.492821 0.646954
C57   C     C_R   0.877570 0.023702 0.566059 -0.468976
H34   H     H_    0.953496 0.023803 0.584476 0.208171
C58   C     C_R   0.819441 0.991734 0.615867 -0.373222
H35   H     H_    0.849280 0.965390 0.671699 0.199033
C59   C     C_R   0.723366 0.995422 0.595037 0.790211
C60   C     C_R   0.683695 0.028793 0.521731 -0.437150
C61   C     C_3   0.533177 0.398486 0.074254 -0.358974
H36   H     H_    0.579171 0.401269 0.150432 0.183024
H37   H     H_    0.510799 0.320803 0.004849 0.186248
C62   C     C_3   0.428254 0.397638 0.067776 -0.320499
H38   H     H_    0.358970 0.320504 0.995149 0.177766
H39   H     H_    0.422611 0.398886 0.139897 0.195322
H40   H     H_    0.677150 0.606042 0.247840 0.170053
H41   H     H_    0.520899 0.604492 0.238061 0.192443
C63   C     C_3   0.630376 0.603519 0.171958 -0.380144
C64   C     C_3   0.537816 0.496762 0.966985 -0.410869
C65   C     C_3   0.603175 0.500069 0.072181 0.227108
H42   H     H_    0.586023 0.569805 0.965137 0.181194
H43   H     H_    0.519621 0.423465 0.894995 0.210981
C66   C     C_3   0.425661 0.498048 0.060651 0.140910
C67   C     C_3   0.525631 0.602566 0.165363 -0.464449
C68   C     C_3   0.432759 0.493172 0.958644 0.641731
H44   H     H_    0.428541 0.563065 0.950281 0.124827
H45   H     H_    0.680699 0.679229 0.175760 0.177808
H46   H     H_    0.529529 0.678946 0.167744 0.214670
H47   H     H_    0.347170 0.121041 0.879670 0.215904
C69   C     C_R   0.176185 0.034515 0.774039 -0.118256
H48   H     H_    0.183277 0.015536 0.701419 0.147903
C70   C     C_R   0.074291 0.995322 0.766017 -0.201333
H49   H     H_    0.003335 0.941728 0.686876 0.130639
C71   C     C_R   0.064623 0.020955 0.859860 0.077354
C72   C     C_R   0.158081 0.081784 0.961509 -0.281705
H50   H     H_    0.150185 0.095716 0.033330 0.158908
C73   C     C_R   0.260579 0.115293 0.969792 0.343197
C74   C     C_R   0.268955 0.093574 0.875266 -0.137785
C75   C     C_R   0.933214 0.858021 0.836247 -0.198930
H51   H     H_    0.968251 0.815980 0.797446 0.130538
C76   C     C_R   0.896216 0.827866 0.901013 0.094821
C77   C     C_R   0.838463 0.876158 0.937897 0.160954
C78   C     C_R   0.833399 0.960199 0.920052 -0.142565
H52   H     H_    0.786905 0.994236 0.946356 0.134160
C79   C     C_R   0.909439 0.016701 0.897588 0.037767
C80   C     C_R   0.960151 0.963180 0.853204 0.005129
C81   C     C_R   0.702266 0.796505 0.990787 0.188398
C82   C     C_R   0.676579 0.806964 0.074654 0.604277
C83   C     C_R   0.755688 0.879222 0.183191 -0.255091
H53   H     H_    0.735058 0.884576 0.246610 0.187322
C84   C     C_R   0.860980 0.944611 0.210067 -0.167190
H54   H     H_    0.922419 0.999979 0.293898 0.215774
C85   C     C_R   0.886272 0.941257 0.128511 -0.273781
H55   H     H_    0.966767 0.996380 0.149772 0.154205
C86   C     C_R   0.808347 0.867059 0.019147 -0.139759
N17   N     N_R   0.605110 0.179730 0.796064 0.236491
O1    O     O_R   0.506059 0.158593 0.745455 -0.418219
O2    O     O_R   0.630431 0.145840 0.864463 -0.385715
F1    F     F_    0.404741 0.969859 0.850247 -0.682842
F2    F     F_    0.702876 0.089308 0.397403 -0.663553
F3    F     F_    0.896801 0.091887 0.448214 -0.725464
F4    F     F_    0.669961 0.968066 0.647092 -0.660876
F5    F     F_    0.346732 0.397978 0.865007 -0.714252
N18   N     N_R   0.354998 0.166474 0.072870 0.226414
O3    O     O_R   0.444395 0.170421 0.077672 -0.421594
O4    O     O_R   0.350463 0.202666 0.162271 -0.426904
N19   N     N_R   0.622617 0.714675 0.879389 0.249494
O5    O     O_R   0.520292 0.671545 0.849162 -0.359595
O6    O     O_R   0.651758 0.673933 0.809647 -0.387300
F6    F     F_    0.575356 0.746854 0.052553 -0.764296

loop_
_geom_bond_atom_site_label_1
_geom_bond_atom_site_label_2
_geom_bond_distance
_ccdc_geom_bond_type
C25   C30   1.395252 A    
C6    C12   1.368917 A    
N15   Ni4   1.892401 S    
C28   C29   1.398630 A    
C26   C27   1.405194 A    
C84   H54   1.079164 S    
C83   C84   1.389452 A    
C17   H13   1.074975 S    
C76   C77   1.418877 A    
N9    Ni1   1.863370 S    
C10   C53   1.425630 S    
C52   C53   1.393491 A    
C75   H51   1.080714 S    
N6    Ni1   1.879276 S    
C3    H3    1.079219 S    
C67   H46   1.106692 S    
N19   O5    1.299030 A    
C61   H36   1.110961 S    
N10   N16   1.385261 A    
C63   H45   1.105854 S    
H27   C48   1.082337 S    
C15   C23   1.378360 A    
C77   C86   1.469104 S    
N5    Ni2   1.863369 S    
C55   C60   1.407146 A    
C7    N7    1.338249 A    
C40   C41   1.396345 A    
N17   O1    1.299836 A    
C72   C73   1.402942 A    
C16   H12   1.068669 S    
C41   C42   1.407494 A    
N18   O3    1.300464 A    
N8    Ni3   1.870920 S    
C73   C74   1.405999 A    
C81   N19   1.443808 S    
C3    C11   1.392114 A    
C55   C56   1.396517 A    
C1    H1    1.079040 S    
C32   C33   1.416984 A    
C22   C32   1.443480 S    
C25   C26   1.396590 A    
C7    C10   1.378861 A    
C57   H34   1.081115 S    
C37   C42   1.409728 A    
C56   F3    1.354007 S    
C75   C76   1.399172 A    
C78   H52   1.080832 S    
N13   Ni2   1.862820 S    
N12   N13   1.395317 A    
C46   H30   1.083639 S    
C18   C23   1.393808 A    
C29   H20   1.079419 S    
C20   N16   1.318640 A    
C8    C9    1.374600 A    
C64   H43   1.114204 S    
C79   C80   1.418647 A    
C85   C86   1.403543 A    
C23   C50   1.432788 S    
C21   C65   1.471515 S    
C71   C80   1.475617 S    
C62   H39   1.112548 S    
C28   H19   1.082703 S    
C84   C85   1.389851 A    
C61   C65   1.556258 S    
C5    H5    1.077033 S    
C1    C9    1.395432 A    
C17   N13   1.332903 A    
N1    N8    1.395318 A    
C25   H17   1.076400 S    
C18   N17   1.432064 S    
C14   C22   1.379864 A    
C58   C59   1.396248 A    
C52   H33   1.086385 S    
C47   C48   1.397925 A    
C47   H31   1.083015 S    
N17   O2    1.301174 A    
N19   O6    1.301051 A    
C19   N15   1.332343 A    
C45   C54   1.477437 S    
C33   C34   1.395259 A    
C75   C80   1.388459 A    
C71   C72   1.403385 A    
C17   C24   1.401350 A    
C2    N2    1.318517 A    
C70   H49   1.080681 S    
C31   C32   1.393726 A    
C41   H26   1.083184 S    
C2    H2    1.082305 S    
N14   Ni1   1.879413 S    
C35   C36   1.418226 A    
N2    N7    1.395318 A    
C38   C39   1.396080 A    
C26   H18   1.083339 S    
C81   C86   1.411460 A    
C1    N1    1.335699 A    
C15   H11   1.076609 S    
C14   N10   1.331554 A    
C51   C60   1.476328 S    
C34   H22   1.084145 S    
C13   H9    1.074134 S    
C64   C68   1.521861 S    
C43   C44   1.396689 A    
C85   H55   1.079068 S    
H16   C30   1.081105 S    
N1    Ni1   1.862822 S    
N12   Ni4   1.870923 S    
C44   C45   1.404933 A    
C63   C67   1.537335 S    
C45   C46   1.405901 A    
C6    N6    1.317826 A    
C40   H25   1.078039 S    
C59   F4    1.357369 S    
C12   C35   1.443605 S    
C34   C35   1.399130 A    
C82   C83   1.396465 A    
C4    N4    1.338182 A    
N11   Ni3   1.892423 S    
C69   C70   1.396288 A    
H47   C74   1.081980 S    
C49   C50   1.395694 A    
C27   C28   1.405928 A    
C39   C40   1.394440 A    
N9    N15   1.385260 A    
C5    N5    1.322371 A    
H41   C67   1.112832 S    
C64   C65   1.546192 S    
C11   C66   1.472647 S    
C20   H15   1.082476 S    
C8    N8    1.330368 A    
C37   H23   1.082740 S    
N2    Ni2   1.879410 S    
H40   C63   1.112639 S    
C68   H44   1.109096 S    
C43   C48   1.398690 A    
C51   C52   1.366522 A    
C18   N14   1.331947 A    
C63   C65   1.548766 S    
C66   C67   1.559372 S    
C4    C12   1.392999 A    
C3    N3    1.328513 A    
C55   F2    1.358019 S    
C19   H14   1.080389 S    
C68   F5    1.388761 S    
C49   C54   1.388893 A    
C27   C36   1.484469 S    
C15   N11   1.322043 A    
N4    N6    1.385258 A    
C73   N18   1.437590 S    
C69   H48   1.082552 S    
C20   C22   1.373899 A    
C2    C10   1.364735 A    
C62   H38   1.106590 S    
C46   C47   1.398315 A    
C59   C60   1.402911 A    
C70   C71   1.401975 A    
C13   C21   1.371552 A    
C37   C38   1.398866 A    
C61   C62   1.541004 S    
C82   F6    1.345293 S    
C9    C79   1.469481 S    
N16   Ni3   1.871281 S    
C14   H10   1.078440 S    
C7    H7    1.081569 S    
C78   C79   1.397591 A    
N3    N5    1.385258 A    
C31   H21   1.085276 S    
C69   C74   1.396970 A    
C72   H50   1.083652 S    
C16   N12   1.329690 A    
C43   H28   1.082810 S    
C6    H6    1.075061 S    
N18   O4    1.301612 A    
N7    Ni4   1.892424 S    
C44   H29   1.083841 S    
C62   C66   1.546761 S    
C61   H37   1.109750 S    
C58   H35   1.077478 S    
C77   C78   1.386975 A    
C50   C51   1.409197 A    
C57   C58   1.398378 A    
N4    Ni4   1.871280 S    
C4    H4    1.080855 S    
C16   C24   1.388102 A    
N10   Ni2   1.879279 S    
C13   N9    1.325252 A    
C39   H24   1.081781 S    
C53   C54   1.404185 A    
C19   C21   1.380653 A    
C83   H53   1.082600 S    
C64   H42   1.110749 S    
C29   C30   1.395373 A    
C38   F1    1.354663 S    
C8    H8    1.079349 S    
C5    C11   1.386725 A    
C49   H32   1.085012 S    
N3    Ni3   1.892403 S    
C33   C42   1.491243 S    
C81   C82   1.411069 A    
C56   C57   1.395442 A    
N11   N14   1.395318 A    
C31   C36   1.364080 A    
C66   C68   1.555032 S    
C24   C76   1.478871 S    
