data_mof_unit_42342.cif
_audit_creation_date              2012-12-10T17:10:28-0500
_audit_creation_method            fapswitch 2.2
_symmetry_space_group_name_H-M    P1
_symmetry_Int_Tables_number       1
_space_group_crystal_system       triclinic
_cell_length_a                    10.696614
_cell_length_b                    12.995698
_cell_length_c                    11.803634
_cell_angle_alpha                 100.988161
_cell_angle_beta                  93.962523
_cell_angle_gamma                 91.639486
_cell_volume                      1605.42719746

loop_
_atom_site_label
_atom_site_type_symbol
_atom_type_description
_atom_site_fract_x
_atom_site_fract_y
_atom_site_fract_z
_atom_type_partial_charge
C1    C     C_R   0.498198 0.299105 0.477814 0.894930
C2    C     C_R   0.501801 0.700896 0.522187 0.894946
C3    C     C_R   0.497948 0.814646 0.535039 -0.324229
C4    C     C_R   0.502052 0.185356 0.464965 -0.324189
C5    C     C_R   0.571572 0.018799 0.365939 -0.159719
C6    C     C_R   0.428426 0.981202 0.634065 -0.159756
C7    C     C_R   0.558329 0.125712 0.371589 0.523745
C8    C     C_R   0.441662 0.874288 0.628411 0.523797
C9    C     C_R   0.456618 0.136699 0.551381 0.570036
C10   C     C_R   0.543394 0.863307 0.448633 0.570095
C11   C     C_R   0.470871 0.029694 0.546661 -0.142408
C12   C     C_R   0.529133 0.970309 0.453348 -0.142431
C13   C     C_R   0.366099 0.413092 0.020488 0.084978
C14   C     C_R   0.633918 0.586863 0.979514 0.085081
C15   C     C_R   0.390749 0.410041 0.140137 0.241500
C16   C     C_R   0.609294 0.589916 0.859865 0.241402
C17   C     C_R   0.552963 0.541458 0.158856 0.800887
C18   C     C_R   0.446987 0.458572 0.841139 0.800998
C19   C     C_R   0.548018 0.532020 0.035080 -0.174954
C20   C     C_R   0.451975 0.467958 0.964914 -0.175174
C21   C     C_R   0.263014 0.514467 0.501949 0.823985
C22   C     C_R   0.736985 0.485532 0.498048 0.823974
C23   C     C_R   0.123320 0.583423 0.716742 0.487273
C24   C     C_R   0.876661 0.416583 0.283234 0.487042
C25   C     C_R   0.070316 0.569223 0.817400 0.466259
C26   C     C_R   0.929663 0.430782 0.182568 0.466320
C27   C     C_R   0.968016 0.498792 0.810693 0.481304
C28   C     C_R   0.031996 0.501178 0.189268 0.481532
C29   C     C_R   0.908789 0.451804 0.703222 -0.060768
C30   C     C_R   0.091222 0.548168 0.296743 -0.060876
C31   C     C_R   0.948380 0.482739 0.601762 -0.105666
C32   C     C_R   0.051621 0.517246 0.398214 -0.105609
C33   C     C_R   0.067902 0.532888 0.607527 -0.167765
C34   C     C_R   0.932092 0.467106 0.392452 -0.167732
C35   C     C_R   0.873467 0.466883 0.495902 -0.001565
C36   C     C_R   0.126530 0.533110 0.504081 -0.001580
Cu1   Cu    Cu3+1 0.509250 0.507730 0.615930 1.064232
Cu2   Cu    Cu3+1 0.490750 0.492270 0.384070 1.064186
H1    H     H_    0.616398 0.974488 0.293719 0.233115
H2    H     H_    0.383596 0.025513 0.706284 0.233101
N1    N     N_R   0.523180 0.519350 0.790130 -0.238596
N2    N     N_R   0.476820 0.480650 0.209870 -0.238656
O1    O     O_R   0.506570 0.354460 0.582000 -0.514325
O2    O     O_R   0.493430 0.645540 0.418000 -0.514283
O3    O     O_R   0.490940 0.341410 0.386200 -0.548693
O4    O     O_R   0.509060 0.658590 0.613800 -0.548634
O5    O     O_R   0.327470 0.506520 0.597900 -0.484327
O6    O     O_R   0.672530 0.493480 0.402100 -0.484420
O7    O     O_R   0.311840 0.493460 0.402100 -0.629704
O8    O     O_R   0.688160 0.506540 0.597900 -0.629696
F1    F     F_    0.074052 0.524753 0.091557 -0.564010
F2    F     F_    0.926015 0.475159 0.908394 -0.564009
C37   C     C_3   0.246654 0.361208 0.954529 -0.543865
H3    H     H_    0.171336 0.351946 0.012127 0.242433
H4    H     H_    0.205506 0.411874 0.897423 0.269696
H5    H     H_    0.266240 0.283376 0.902973 0.249994
C38   C     C_3   0.753353 0.638754 0.045475 -0.543969
H6    H     H_    0.828768 0.647582 0.987857 0.242869
H7    H     H_    0.733838 0.716784 0.096623 0.249660
H8    H     H_    0.794276 0.588368 0.102991 0.269439
F3    F     F_    0.222298 0.653103 0.725986 -0.561755
F4    F     F_    0.777672 0.346910 0.273995 -0.561757
F5    F     F_    0.122425 0.620293 0.921594 -0.549103
F6    F     F_    0.877523 0.379740 0.078371 -0.549003
C39   C     C_3   0.816382 0.360727 0.699320 -0.551023
H9    H     H_    0.784564 0.321905 0.609485 0.185847
H10   H     H_    0.733860 0.387501 0.747241 0.248663
H11   H     H_    0.862081 0.300445 0.741220 0.242725
C40   C     C_3   0.183644 0.639236 0.300638 -0.551005
H12   H     H_    0.215452 0.678074 0.390474 0.185857
H13   H     H_    0.137957 0.699516 0.258715 0.242698
H14   H     H_    0.266169 0.612446 0.252726 0.248678
F7    F     F_    0.602157 0.806781 0.360271 -0.607703
F8    F     F_    0.397881 0.193232 0.639761 -0.607824
F9    F     F_    0.394765 0.828762 0.711718 -0.588501
F10   F     F_    0.605215 0.171237 0.288273 -0.588579
F11   F     F_    0.366677 0.388502 0.770314 -0.621650
F12   F     F_    0.633161 0.611624 0.229669 -0.621546
C41   C     C_3   0.665413 0.681584 0.815326 -0.673906
H15   H     H_    0.728275 0.735718 0.879451 0.187546
H16   H     H_    0.720142 0.656682 0.739955 0.232394
H17   H     H_    0.589370 0.733199 0.797080 0.282712
C42   C     C_3   0.334767 0.318307 0.184680 -0.673676
H18   H     H_    0.280129 0.343151 0.260129 0.232425
H19   H     H_    0.271892 0.264147 0.120602 0.187497
H20   H     H_    0.410895 0.266716 0.202828 0.282789

loop_
_geom_bond_atom_site_label_1
_geom_bond_atom_site_label_2
_ccdc_geom_bond_type
C22   O6    A    
C27   C29   A    
C19   C20   A    
C21   O7    A    
C21   C36   S    
C37   H3    S    
C2    O4    A    
C22   C35   S    
C32   C36   A    
C24   C26   A    
Cu2   N2    S    
C10   F7    S    
C38   H7    S    
C33   C36   A    
C18   C20   A    
C34   C35   A    
C25   F5    S    
C40   H13   S    
C26   F6    S    
C17   N2    A    
Cu2   O3    S    
C17   C19   A    
C1    O1    A    
C2    O2    A    
C39   H10   S    
C31   C33   A    
Cu1   O5    S    
Cu2   O6    S    
C22   O8    A    
C4    C7    A    
C13   C37   S    
C37   H4    S    
C6    H2    S    
C5    C12   A    
C3    C8    A    
C18   N1    A    
C6    C11   A    
C5    C7    A    
C38   H8    S    
C6    C8    A    
C23   C33   A    
C8    F9    S    
C24   C34   A    
C32   C34   A    
Cu1   O1    S    
C40   H14   S    
C14   C38   S    
Cu2   O2    S    
Cu1   Cu2   S    
C42   H18   S    
C39   H11   S    
C9    C11   A    
C10   C12   A    
C29   C39   S    
C42   H19   S    
C13   C15   A    
C14   C16   A    
C9    F8    S    
C30   C40   S    
Cu2   O7    S    
C27   F2    S    
C41   H16   S    
C37   H5    S    
C5    H1    S    
C24   F4    S    
C13   C20   A    
C14   C19   A    
C15   N2    A    
C41   H17   S    
C15   C42   S    
C11   C12   A    
C7    F10   S    
C25   C27   A    
C26   C28   A    
C1    C4    S    
C16   C41   S    
C28   C30   A    
C2    C3    S    
C4    C9    A    
C29   C31   A    
C3    C10   A    
C30   C32   A    
Cu1   O8    S    
C1    O3    A    
C38   H6    S    
C18   F11   S    
C17   F12   S    
C28   F1    S    
C31   C35   A    
C23   C25   A    
Cu1   N1    S    
C40   H12   S    
C41   H15   S    
C23   F3    S    
C42   H20   S    
C39   H9    S    
Cu1   O4    S    
C16   N1    A    
C21   O5    A    
