data_mof_unit_33439.cif
_audit_creation_date              2012-12-11T14:50:36-0500
_audit_creation_method            fapswitch 2.2
_symmetry_space_group_name_H-M    P1
_symmetry_Int_Tables_number       1
_space_group_crystal_system       triclinic
_cell_length_a                    10.908243
_cell_length_b                    10.895612
_cell_length_c                    18.827194
_cell_angle_alpha                 90.17555
_cell_angle_beta                  89.729122
_cell_angle_gamma                 60.29504
_cell_volume                      1943.53738393

loop_
_atom_site_label
_atom_site_type_symbol
_atom_type_description
_atom_site_fract_x
_atom_site_fract_y
_atom_site_fract_z
_atom_type_partial_charge
C1    C     C_R   0.237708 0.646015 0.610116 0.541150
C2    C     C_R   0.552320 0.234103 0.797270 -0.142487
C3    C     C_R   0.535523 0.247805 0.724812 -0.139043
C4    C     C_R   0.653425 0.622021 0.601194 0.539592
C5    C     C_R   0.652961 0.198375 0.679493 0.020936
C6    C     C_R   0.187484 0.555760 0.721565 -0.159167
C7    C     C_R   0.177432 0.560631 0.795432 -0.155401
C8    C     C_R   0.174156 0.673822 0.833042 0.027184
C9    C     C_R   0.189828 0.776761 0.796351 -0.148926
C10   C     C_R   0.197511 0.773128 0.723299 -0.147630
C11   C     C_R   0.197604 0.662218 0.685044 0.027202
C12   C     C_3   0.667960 0.553132 0.800449 -0.248576
C13   C     C_R   0.697567 0.529958 0.270765 -0.122649
C14   C     C_R   0.701248 0.546671 0.198312 -0.127422
C15   C     C_R   0.659531 0.680262 0.170991 0.054268
C16   C     C_R   0.625431 0.233138 0.604483 0.539532
C17   C     C_R   0.610219 0.798042 0.216846 -0.103097
C18   C     C_R   0.602646 0.781637 0.289770 -0.139630
C19   C     C_R   0.650472 0.646467 0.316842 0.029314
C20   C     C_R   0.521574 0.201560 0.282256 -0.131890
C21   C     C_R   0.527404 0.193054 0.209547 -0.144303
C22   C     C_R   0.651560 0.164690 0.174572 0.025140
C23   C     C_3   0.699664 0.674516 0.811952 0.049043
C24   C     C_R   0.766871 0.154605 0.212711 -0.137496
C25   C     C_R   0.760663 0.164084 0.285846 -0.152686
C26   C     C_R   0.637856 0.187971 0.320843 0.028872
C27   C     C_R   0.242765 0.729954 0.282379 -0.102335
C28   C     C_R   0.228244 0.646552 0.399197 0.549444
C29   C     C_R   0.227234 0.733537 0.210222 0.074335
C30   C     C_R   0.161104 0.663385 0.179800 0.035887
C31   C     C_R   0.125983 0.578293 0.221536 -0.159595
C32   C     C_R   0.143638 0.574506 0.294411 -0.151423
C33   C     C_R   0.196085 0.655794 0.324950 0.013460
C34   C     C_3   0.669535 0.647651 0.676510 0.055639
C35   C     C_R   0.701951 0.103612 0.896642 0.537643
C36   C     C_R   0.724071 0.688424 0.887892 0.544637
C37   C     C_R   0.117659 0.706716 0.905239 0.543153
C38   C     C_R   0.674525 0.108947 0.103414 0.541393
C39   C     C_R   0.696614 0.691864 0.098341 0.558659
C40   C     C_R   0.641816 0.621809 0.391764 0.541239
C41   C     C_R   0.097246 0.706946 0.111208 0.568069
C42   C     C_R   0.615654 0.231041 0.394247 0.548140
C43   C     C_3   0.574830 0.813502 0.781924 -0.230089
C44   C     C_3   0.556355 0.797096 0.702145 -0.240811
C45   C     C_3   0.816986 0.629828 0.689951 -0.246849
C46   C     C_3   0.835726 0.642499 0.769879 -0.221695
C47   C     C_3   0.652320 0.535751 0.720579 -0.212290
C48   C     C_R   0.788839 0.138458 0.708248 -0.156166
C49   C     C_R   0.806419 0.119192 0.781656 -0.147109
C50   C     C_R   0.687689 0.163300 0.826099 0.020593
Cr1   Cr    Cr6+3 0.392930 0.397900 0.502230 1.011804
Cr2   Cr    Cr6+3 0.398240 0.708600 0.501260 1.012232
Cr3   Cr    Cr6+3 0.708800 0.393470 0.496460 1.011602
Cr4   Cr    Cr6+3 0.937620 0.938540 0.007640 1.040724
Cr5   Cr    Cr6+3 0.625150 0.937450 0.994520 1.033062
Cr6   Cr    Cr6+3 0.937990 0.625080 0.001190 1.016341
H1    H     H_    0.595273 0.903149 0.789709 0.149416
H2    H     H_    0.165271 0.479928 0.822719 0.121161
H3    H     H_    0.187589 0.865590 0.823595 0.128730
H4    H     H_    0.475216 0.840054 0.810700 0.124146
H5    H     H_    0.206399 0.856694 0.697056 0.126349
H6    H     H_    0.731437 0.425419 0.291030 0.142132
H7    H     H_    0.741830 0.454681 0.163858 0.126925
H8    H     H_    0.581402 0.901582 0.196419 0.151318
H9    H     H_    0.563876 0.872532 0.324826 0.120793
H10   H     H_    0.423526 0.223396 0.307788 0.145394
H11   H     H_    0.437600 0.200754 0.181231 0.144606
H12   H     H_    0.733558 0.427149 0.704131 0.147820
H13   H     H_    0.864513 0.132260 0.186540 0.155413
H14   H     H_    0.849859 0.156441 0.314723 0.131853
H15   H     H_    0.292740 0.785574 0.305005 0.165933
H16   H     H_    0.448561 0.813653 0.693216 0.138386
H17   H     H_    0.075508 0.523278 0.198768 0.145436
H18   H     H_    0.113720 0.511464 0.326835 0.131210
H19   H     H_    0.565986 0.879403 0.671723 0.122235
H20   H     H_    0.862230 0.727602 0.779413 0.130912
H21   H     H_    0.828892 0.712018 0.660724 0.117296
H22   H     H_    0.754699 0.452592 0.822045 0.133578
H23   H     H_    0.926143 0.541301 0.788292 0.135657
H24   H     H_    0.568960 0.576380 0.828881 0.122425
H25   H     H_    0.547089 0.545964 0.710549 0.129715
H26   H     H_    0.901481 0.524894 0.670613 0.134342
H27   H     H_    0.880408 0.103951 0.674085 0.121320
H28   H     H_    0.912124 0.062796 0.803001 0.131307
H29   H     H_    0.459206 0.269750 0.830487 0.130030
H30   H     H_    0.429510 0.298256 0.704231 0.138246
H31   H     H_    0.188104 0.468878 0.693186 0.114763
I1    I     I_    0.293963 0.861060 0.154401 -0.406828
O1    O     O_R   0.507430 0.255570 0.581420 -0.526704
O2    O     O_R   0.837200 0.593290 0.915250 -0.527101
O3    O     O_R   0.065330 0.635370 0.931590 -0.510725
O4    O     O_R   0.280190 0.527390 0.578910 -0.508706
O5    O     O_R   0.068300 0.828790 0.091860 -0.478137
O6    O     O_R   0.798730 0.057480 0.079370 -0.505368
O7    O     O_R   0.584680 0.080480 0.076790 -0.521394
O8    O     O_R   0.626790 0.809640 0.067050 -0.483147
O9    O     O_R   0.816010 0.596460 0.076500 -0.524469
O10   O     O_R   0.045680 0.638310 0.081070 -0.514658
O11   O     O_3   0.833590 0.833690 0.001120 -0.257331
O12   O     O_R   0.524460 0.695920 0.424060 -0.503251
O13   O     O_R   0.260310 0.739740 0.584580 -0.528823
O14   O     O_R   0.532250 0.695150 0.573830 -0.509305
O15   O     O_R   0.744930 0.503430 0.576380 -0.527295
O16   O     O_R   0.699250 0.276390 0.571950 -0.505016
O17   O     O_R   0.499020 0.256400 0.419850 -0.526837
O18   O     O_R   0.272400 0.528160 0.429140 -0.502140
O19   O     O_R   0.251910 0.740570 0.423020 -0.525354
O20   O     O_R   0.736530 0.504260 0.414810 -0.523026
O21   O     O_R   0.691460 0.277160 0.422180 -0.507570
O22   O     O_3   0.499990 0.499990 0.499980 -0.250262
O23   O     O_R   0.089490 0.825610 0.930610 -0.518566
O24   O     O_R   0.818370 0.054540 0.929880 -0.506292
O25   O     O_R   0.605870 0.077310 0.915530 -0.526813
O26   O     O_R   0.646440 0.806700 0.917570 -0.505253

loop_
_geom_bond_atom_site_label_1
_geom_bond_atom_site_label_2
_ccdc_geom_bond_type
Cr3   O22   S    
C27   C29   A    
C45   H26   S    
C1    C11   S    
Cr6   O10   S    
C36   O26   A    
C46   H20   S    
C7    C8    A    
C45   C46   S    
C27   C33   A    
C18   H9    S    
C12   C23   S    
Cr2   O14   S    
C49   H28   S    
C20   H10   S    
C42   O21   A    
C17   H8    S    
C32   H18   S    
C30   C31   A    
C39   O9    A    
Cr3   O16   S    
Cr3   O21   S    
C22   C38   S    
C4    O15   A    
C23   C43   S    
C2    H29   S    
C18   C19   A    
C29   I1    S    
C2    C50   A    
C16   O16   A    
Cr6   O3    S    
C41   O5    A    
C13   H6    S    
Cr2   O19   S    
C28   O18   A    
C8    C9    A    
Cr4   O5    S    
C12   H22   S    
C38   O7    A    
C30   C41   S    
C44   H16   S    
C9    C10   A    
C7    H2    S    
C40   O20   A    
Cr6   O2    S    
C16   O1    A    
C23   C46   S    
C13   C14   A    
C21   H11   S    
C3    H30   S    
Cr6   O9    S    
C12   C47   S    
C24   H13   S    
C5    C48   A    
C4    C34   S    
Cr2   O13   S    
Cr4   O6    S    
C13   C19   A    
C34   C44   S    
C24   C25   A    
Cr5   O7    S    
C10   C11   A    
C6    C11   A    
C37   O3    A    
Cr5   O25   S    
C25   C26   A    
Cr2   O12   S    
C6    H31   S    
C4    O14   A    
C9    H3    S    
C44   H19   S    
C43   C44   S    
C29   C30   A    
Cr1   O4    S    
C31   C32   A    
Cr2   O22   S    
Cr1   O17   S    
C38   O6    A    
C35   C50   S    
C17   C18   A    
Cr4   O24   S    
C34   C45   S    
C15   C39   S    
C43   H4    S    
C48   C49   A    
C28   C33   S    
C23   C36   S    
C1    O4    A    
C22   C24   A    
Cr4   O11   S    
C10   H5    S    
C8    C37   S    
C1    O13   A    
C47   H12   S    
C27   H15   S    
C26   C42   S    
C36   O2    A    
C15   C17   A    
C14   C15   A    
Cr5   O8    S    
C3    C5    A    
C40   O12   A    
C6    C7    A    
C34   C47   S    
Cr5   O26   S    
Cr1   O22   S    
C48   H27   S    
C32   C33   A    
C2    C3    A    
C5    C16   S    
Cr1   O1    S    
Cr3   O20   S    
C46   H23   S    
C20   C26   A    
Cr3   O15   S    
Cr1   O18   S    
C14   H7    S    
C12   H24   S    
Cr4   O23   S    
C35   O25   A    
C47   H25   S    
C42   O17   A    
C39   O8    A    
C37   O23   A    
C31   H17   S    
C19   C40   S    
C43   H1    S    
C20   C21   A    
C49   C50   A    
Cr5   O11   S    
C41   O10   A    
C45   H21   S    
C25   H14   S    
C28   O19   A    
Cr6   O11   S    
C21   C22   A    
C35   O24   A    
