data_mof_unit_64449.cif
_audit_creation_date              2012-12-10T20:58:28-0500
_audit_creation_method            fapswitch 2.2
_symmetry_space_group_name_H-M    P1
_symmetry_Int_Tables_number       1
_space_group_crystal_system       triclinic
_cell_length_a                    15.849989
_cell_length_b                    15.099794
_cell_length_c                    11.569521
_cell_angle_alpha                 89.999979
_cell_angle_beta                  89.966888
_cell_angle_gamma                 89.999898
_cell_volume                      2768.95114882

loop_
_atom_site_label
_atom_site_type_symbol
_atom_type_description
_atom_site_fract_x
_atom_site_fract_y
_atom_site_fract_z
_atom_type_partial_charge
C1    C     C_R   0.338892 0.500000 0.500044 0.901367
C2    C     C_R   0.560852 0.047023 0.563612 0.325051
C3    C     C_R   0.560852 0.952977 0.563612 0.325056
C4    C     C_R   0.439148 0.047023 0.436387 0.325056
C5    C     C_1   0.500000 0.807008 0.500000 0.328547
C6    C     C_1   0.500000 0.192992 0.500000 0.328547
C7    C     C_1   0.500003 0.500000 0.161149 -0.143253
C8    C     C_1   0.499997 0.500000 0.838851 -0.143252
C9    C     C_1   0.500000 0.500000 0.059197 0.037423
C10   C     C_1   0.499999 0.500000 0.940802 0.037423
C11   C     C_R   0.956254 0.580616 0.500782 -0.152444
C12   C     C_R   0.661108 0.500000 0.499956 0.901367
C13   C     C_R   0.043746 0.419384 0.499218 -0.152444
C14   C     C_R   0.043745 0.580616 0.500785 -0.152443
C15   C     C_R   0.956255 0.419384 0.499215 -0.152443
C16   C     C_R   0.913144 0.500000 0.499996 0.145693
C17   C     C_R   0.086856 0.500000 0.500004 0.145693
C18   C     C_1   0.824355 0.500000 0.499982 -0.037958
C19   C     C_1   0.175645 0.500000 0.500018 -0.037958
C20   C     C_1   0.250487 0.500000 0.500032 -0.133299
C21   C     C_1   0.749513 0.500000 0.499968 -0.133298
C22   C     C_R   0.500000 0.905026 0.500000 -0.268950
C23   C     C_R   0.500000 0.094974 0.500000 -0.268950
C24   C     C_R   0.500007 0.500000 0.281359 0.900073
C25   C     C_R   0.499993 0.500000 0.718641 0.900074
C26   C     C_R   0.439148 0.952977 0.436387 0.325051
Cl1   Cl    Cl    0.362192 0.104996 0.355951 -0.482562
Cl2   Cl    Cl    0.637808 0.895004 0.644049 -0.482562
Cl3   Cl    Cl    0.637808 0.104996 0.644049 -0.482517
Cl4   Cl    Cl    0.362192 0.895004 0.355951 -0.482517
H1    H     H_    0.077655 0.642946 0.501392 0.167610
H2    H     H_    0.922345 0.357053 0.498608 0.167610
H3    H     H_    0.922343 0.642946 0.501387 0.167671
H4    H     H_    0.077657 0.357054 0.498613 0.167671
N1    N     N_1   0.500000 0.270550 0.500000 -0.077299
N2    N     N_1   0.500000 0.729450 0.500000 -0.077299
O1    O     O_R   0.378020 0.573650 0.500040 -0.602246
O2    O     O_R   0.621980 0.426350 0.499960 -0.602247
O3    O     O_R   0.621980 0.573650 0.499960 -0.602247
O4    O     O_R   0.378020 0.426350 0.500040 -0.602247
O5    O     O_R   0.500010 0.573670 0.334460 -0.602338
O6    O     O_R   0.499990 0.426330 0.665540 -0.602338
O7    O     O_R   0.499990 0.573670 0.665540 -0.602354
O8    O     O_R   0.500010 0.426330 0.334460 -0.602354
Zn1   Zn    Zn3+2 0.500000 0.598370 0.500000 1.041416
Zn2   Zn    Zn3+2 0.500000 0.401630 0.500000 1.041416

loop_
_geom_bond_atom_site_label_1
_geom_bond_atom_site_label_2
_ccdc_geom_bond_type
C25   O6    A    
C13   H4    S    
C4    C26   A    
C8    C25   S    
C1    O1    A    
C18   C21   T    
C9    C10   S    
C19   C20   T    
C13   C17   A    
C14   H1    S    
O3    Zn1   S    
C25   O7    A    
C12   O3    A    
C2    C3    A    
N2    Zn1   S    
O4    Zn2   S    
C24   O5    A    
O7    Zn1   S    
C14   C17   A    
C2    Cl3   S    
C6    C23   S    
C8    C10   T    
C3    Cl2   S    
C17   C19   S    
O8    Zn2   S    
C26   Cl4   S    
C13   C15   A    
C12   O2    A    
C24   O8    A    
C11   C14   A    
O2    Zn2   S    
C11   C16   A    
O1    Zn1   S    
C7    C24   S    
C5    N2    T    
C11   H3    S    
C4    Cl1   S    
C6    N1    T    
C16   C18   S    
O6    Zn2   S    
C2    C23   A    
C7    C9    T    
C4    C23   A    
O5    Zn1   S    
C1    C20   S    
C22   C26   A    
C1    O4    A    
N1    Zn2   S    
C12   C21   S    
C5    C22   S    
C15   C16   A    
C3    C22   A    
C15   H2    S    
