data_mof_unit_20207.cif
_audit_creation_date              2013-03-05T16:01:04-0500
_audit_creation_method            fapswitch 2.2
_symmetry_space_group_name_H-M    P1
_symmetry_Int_Tables_number       1
_space_group_crystal_system       triclinic
_cell_length_a                    8.175731
_cell_length_b                    12.810237
_cell_length_c                    18.742644
_cell_angle_alpha                 99.781616
_cell_angle_beta                  91.290442
_cell_angle_gamma                 98.730865
_cell_volume                      1909.66866585

loop_
_atom_site_label
_atom_site_type_symbol
_atom_site_description
_atom_site_fract_x
_atom_site_fract_y
_atom_site_fract_z
_atom_type_partial_charge
P1    P     P_3+3 0.041040 0.394770 0.336330 0.452911
O1    O     O_2   0.873090 0.425890 0.325140 -0.365482
O2    O     O_3   0.122420 0.434370 0.414380 -0.410953
O3    O     O_3   0.659500 0.627100 0.368810 -0.373426
O4    O     O_2   0.774470 0.544009 0.244563 -0.396703
O5    O     O_3   0.998350 0.254537 0.318512 -0.575855
O6    O     O_3   0.711650 0.738294 0.252482 -0.532199
H1    H     H_    0.720177 0.856302 0.342443 0.060807
C1    C     C_3   0.601748 0.899630 0.250005 -0.094512
H2    H     H_    0.543495 0.962734 0.283846 0.116077
H3    H     H_    0.721043 0.936793 0.230941 0.147049
P2    P     P_3+3 0.672880 0.754030 0.556100 0.489321
P3    P     P_3+3 0.127414 0.822601 0.402954 0.436457
O7    O     O_2   0.848200 0.768190 0.534530 -0.344971
O8    O     O_3   0.081160 0.685950 0.404810 -0.392639
O9    O     O_2   0.001216 0.877590 0.449903 -0.383351
O10   O     O_3   0.742951 0.794633 0.648062 -0.633928
O11   O     O_3   0.083061 0.845230 0.315517 -0.527076
C2    C     C_3   0.123639 0.760111 0.264791 0.472008
H4    H     H_    0.043011 0.683782 0.269130 0.144012
H5    H     H_    0.254826 0.750680 0.272784 0.047919
C3    C     C_3   0.097902 0.783248 0.188683 -0.888311
H6    H     H_    0.964937 0.784575 0.176489 0.268560
H7    H     H_    0.169615 0.862350 0.183869 0.267406
C4    C     C_3   0.206470 0.783476 0.614502 0.410834
H8    H     H_    0.323605 0.766640 0.590881 0.017972
H9    H     H_    0.105974 0.745877 0.574288 0.177511
C5    C     C_3   0.203387 0.903038 0.628186 -0.924947
H10   H     H_    0.310465 0.943972 0.664152 0.238864
H11   H     H_    0.210019 0.933693 0.576416 0.256034
H12   H     H_    0.087883 0.920271 0.654543 0.275815
Ba1   Ba    Ba6+2 0.852780 0.548340 0.465070 1.576326
C6    C     C_3   0.963606 0.216235 0.382882 0.401753
H13   H     H_    0.849153 0.242872 0.403707 0.089939
H14   H     H_    0.065743 0.244943 0.424498 0.149125
C7    C     C_3   0.940564 0.094586 0.367045 -0.939058
H15   H     H_    0.828032 0.063806 0.331376 0.229143
H16   H     H_    0.926054 0.061907 0.417873 0.248200
H17   H     H_    0.049985 0.067275 0.340047 0.281349
C8    C     C_3   0.627437 0.770893 0.699058 0.648987
H18   H     H_    0.501625 0.775705 0.679736 -0.008693
C9    C     C_3   0.674320 0.854080 0.768906 -0.095717
H19   H     H_    0.716159 0.934564 0.756399 0.119054
H20   H     H_    0.783057 0.835358 0.798124 0.182416
P4    P     P_3+3 0.148670 0.605320 0.663680 0.505009
O12   O     O_2   0.316610 0.574140 0.674900 -0.335590
O13   O     O_3   0.067290 0.565720 0.585630 -0.400690
O14   O     O_3   0.530210 0.372990 0.631200 -0.340568
O15   O     O_3   0.190000 0.745683 0.680369 -0.576530
P5    P     P_3+3 0.067726 0.175982 0.596151 0.435027
O16   O     O_3   0.611340 0.366290 0.463630 -0.380044
O17   O     O_3   0.108550 0.314140 0.595200 -0.385777
O18   O     O_2   0.191580 0.122984 0.546804 -0.384707
O19   O     O_3   0.121549 0.151079 0.681725 -0.552141
Ba2   Ba    Ba6+2 0.337060 0.451750 0.534940 1.589043
P6    P     P_3+3 0.643932 0.612446 0.275047 0.459094
C10   C     C_3   0.635100 0.816427 0.295371 0.470563
H21   H     H_    0.516039 0.783771 0.316632 -0.008816
O20   O     O_3   0.578370 0.633800 0.536380 -0.336506
C11   C     C_3   0.451266 0.269471 0.314521 0.407863
H22   H     H_    0.353417 0.306808 0.344697 0.103076
H23   H     H_    0.559292 0.332139 0.311147 0.117875
C12   C     C_3   0.380269 0.220928 0.238380 -0.935126
H24   H     H_    0.262398 0.166127 0.241167 0.262592
H25   H     H_    0.355869 0.285233 0.208597 0.242846
H26   H     H_    0.469006 0.174429 0.208483 0.270746
P7    P     P_3+3 0.522887 0.230119 0.440955 0.416789
O21   O     O_2   0.341510 0.231850 0.465510 -0.375496
O22   O     O_3   0.502183 0.187969 0.346979 -0.586979
H27   H     H_    0.140043 0.720200 0.148365 0.223121
C13   C     C_3   0.054037 0.220968 0.734785 0.293961
H28   H     H_    0.117409 0.304804 0.737247 0.139672
H29   H     H_    0.919110 0.216670 0.723650 -0.000614
C14   C     C_3   0.080440 0.187380 0.807950 -0.012588
H30   H     H_    0.215304 0.194853 0.821012 0.200724
H31   H     H_    0.024648 0.101764 0.805417 0.114246
P8    P     P_3+3 0.547797 0.384285 0.724775 0.518917
C15   C     C_3   0.540012 0.181840 0.692462 0.501930
H32   H     H_    0.659917 0.212498 0.670782 0.014084
O23   O     O_2   0.417370 0.451989 0.757080 -0.342679
O24   O     O_3   0.481226 0.257436 0.744651 -0.554177
H33   H     H_    0.446285 0.154073 0.646758 0.155720
H34   H     H_    0.675140 0.112759 0.767151 0.258093
C16   C     C_3   0.567997 0.088138 0.727293 -1.115747
H35   H     H_    0.593366 0.022443 0.684298 0.221288
H36   H     H_    0.457080 0.060858 0.756327 0.283271
C17   C     C_R   0.991170 0.448529 0.048087 -0.018287
C18   C     C_R   0.890420 0.392280 0.094153 -0.061979
C19   C     C_R   0.726861 0.343157 0.068919 0.518400
C20   C     C_R   0.665613 0.354887 0.000968 -0.246829
C21   C     C_R   0.766658 0.407389 0.954449 0.027444
C22   C     C_R   0.930061 0.454238 0.977578 0.064643
C23   C     C_R   0.707955 0.408999 0.883922 -0.190501
C24   C     C_R   0.812634 0.452500 0.833957 -0.003614
C25   C     C_R   0.974805 0.504893 0.857630 0.042786
C26   C     C_R   0.032326 0.505991 0.929955 0.055542
C27   C     C_R   0.761984 0.441694 0.760339 0.232153
C28   C     C_R   0.874700 0.478302 0.711198 -0.380257
C29   C     C_R   0.026511 0.542690 0.734358 0.251130
C30   C     C_R   0.079460 0.555472 0.809166 -0.091767
C31   C     C_R   0.153658 0.497818 0.071912 0.022133
C32   C     C_R   0.213878 0.496285 0.143403 -0.008471
C33   C     C_R   0.110109 0.445400 0.191680 -0.036807
C34   C     C_R   0.952890 0.389657 0.164688 -0.109806
H37   H     H_    0.539763 0.318061 0.983186 0.172463
H38   H     H_    0.839175 0.462117 0.654000 0.188390
H39   H     H_    0.582124 0.371448 0.867835 0.178475
H40   H     H_    0.876484 0.346995 0.199649 0.169964
C35   C     C_R   0.235034 0.613407 0.836929 -0.104764
C36   C     C_R   0.294415 0.610878 0.907699 0.097620
C37   C     C_R   0.193804 0.555712 0.954003 -0.002089
C38   C     C_R   0.254833 0.551067 0.024662 0.002496
C39   C     C_R   0.454941 0.661136 0.932651 -0.112145
C40   C     C_R   0.516929 0.654125 0.001448 -0.194919
C41   C     C_R   0.417809 0.599558 0.047833 0.117094
C42   C     C_R   0.377591 0.546592 0.166523 -0.025168
C43   C     C_R   0.479049 0.594691 0.117336 -0.135271
C44   C     C_R   0.433618 0.549586 0.238770 0.212048
C45   C     C_R   0.326464 0.506626 0.287332 -0.540522
C46   C     C_R   0.166575 0.453513 0.265592 0.244776
H41   H     H_    0.314069 0.657633 0.803233 0.198774
H42   H     H_    0.533601 0.705570 0.898975 0.217786
H43   H     H_    0.642201 0.692641 0.018732 0.144505
H44   H     H_    0.605786 0.630725 0.132647 0.180166
H45   H     H_    0.370117 0.512053 0.342967 0.182171
C47   C     C_R   0.763233 0.182462 0.530700 -0.521248
C48   C     C_R   0.432555 0.808959 0.468489 -0.489603
C49   C     C_R   0.402161 0.984270 0.445134 -0.221600
C50   C     C_R   0.339612 0.876125 0.439964 0.191204
C51   C     C_R   0.580851 0.849985 0.509341 0.229259
C52   C     C_R   0.643924 0.961560 0.517419 -0.046300
C53   C     C_R   0.553896 0.028787 0.483505 -0.049450
C54   C     C_R   0.616580 0.139421 0.490214 0.257517
C55   C     C_R   0.856145 0.117207 0.560802 0.229204
C56   C     C_R   0.795225 0.007974 0.556296 -0.232451
H46   H     H_    0.327879 0.032796 0.420653 0.194615
H47   H     H_    0.869373 0.960495 0.581538 0.190105
H48   H     H_    0.811289 0.266885 0.534704 0.167851
H49   H     H_    0.382984 0.724555 0.463014 0.169023
N1    N     N_R   0.636607 0.663939 0.713625 0.230766
O25   O     O_R   0.649653 0.645413 0.779465 -0.473669
O26   O     O_R   0.639269 0.586501 0.659635 -0.340725
O27   O     O_3   0.541912 0.855699 0.815115 -0.726660
H50   H     H_    0.456516 0.888007 0.791869 0.337596
O28   O     O_3   0.495929 0.850384 0.190058 -0.715938
H51   H     H_    0.481884 0.907698 0.161923 0.338052
O29   O     O_3   0.011718 0.253294 0.862730 -0.743124
H52   H     H_    0.891030 0.226107 0.860049 0.329363
O30   O     O_3   0.622186 0.283459 0.108664 -0.763404
H53   H     H_    0.688383 0.239574 0.132666 0.303050

loop_
_geom_bond_atom_site_label_1
_geom_bond_atom_site_label_2
_geom_bond_distance
_ccdc_geom_bond_type
O14   Ba2   2.782182 S    
C17   C18   1.416480 A    
C12   H25   1.109554 S    
C23   C24   1.410167 A    
Ba2   O20   2.812673 S    
O4    P6    1.541214 D    
C25   C26   1.421864 A    
C34   H40   1.074592 S    
C49   C50   1.388235 A    
Ba2   O21   2.901331 S    
C20   C21   1.399295 A    
O30   H53   0.989274 S    
O8    Ba1   2.764365 S    
P4    O12   1.506987 D    
C4    C5    1.513542 S    
P5    O19   1.747139 S    
C14   H31   1.114745 S    
P3    O11   1.751514 S    
C11   C12   1.520436 S    
O1    Ba1   2.840295 S    
C5    H10   1.099873 S    
C2    H5    1.107087 S    
C43   H44   1.079570 S    
N1    O26   1.294209 A    
O11   C2    1.405230 S    
C52   C56   1.415461 A    
C49   H46   1.079241 S    
O28   H51   0.992346 S    
O27   H50   0.991892 S    
C22   C26   1.414816 A    
C6    C7    1.517649 S    
C42   C43   1.410640 A    
C11   H23   1.110415 S    
P1    O1    1.506644 D    
C1    O28   1.399473 S    
C44   C45   1.399479 A    
C33   C34   1.409730 A    
O29   H52   0.992425 S    
C32   C33   1.424957 A    
C17   C31   1.409146 A    
P2    O20   1.593178 S    
O2    Ba2   2.786886 S    
O19   C13   1.402654 S    
C2    H4    1.109496 S    
C47   C54   1.390529 A    
C42   C44   1.412071 A    
C53   C54   1.415314 A    
C41   C43   1.399707 A    
O12   Ba2   2.840639 S    
P5    O17   1.753764 S    
P8    C27   1.855134 S    
P4    O15   1.750657 S    
C1    H2    1.113048 S    
Ba1   Ba2   4.552654 S    
O16   Ba2   2.897667 S    
O17   Ba2   2.764992 S    
C8    C9    1.541325 S    
C12   H26   1.109612 S    
C30   C35   1.411296 A    
C17   C22   1.419710 A    
P2    Ba1   3.432077 S    
C24   C25   1.416831 A    
C9    H20   1.111385 S    
O6    P6    1.748046 S    
C49   C53   1.409635 A    
C18   C34   1.414062 A    
C27   C28   1.404000 A    
P4    O13   1.562538 S    
C26   C37   1.404333 A    
P5    O18   1.542479 D    
C14   H30   1.110264 S    
C39   H42   1.079446 S    
P7    O21   1.564777 D    
C31   C32   1.421394 A    
C14   O29   1.399377 S    
C2    C3    1.521842 S    
C32   C42   1.418356 A    
N1    O25   1.300682 A    
P4    C29   1.890361 S    
C21   C22   1.405327 A    
C13   H29   1.109402 S    
C15   H32   1.111608 S    
C24   C27   1.409421 A    
C4    H8    1.099541 S    
C7    H17   1.110853 S    
P1    Ba1   3.396318 S    
C36   C37   1.411831 A    
C11   H22   1.110523 S    
P1    O2    1.562538 S    
O10   C8    1.396495 S    
O14   P8    1.735992 S    
P2    O10   1.769187 S    
C48   C50   1.392861 A    
Ba1   O16   2.813286 S    
H1    C10   1.111077 S    
C21   C23   1.400630 A    
C15   H33   1.109802 S    
H34   C16   1.109720 S    
P8    O24   1.738343 S    
C6    H13   1.101140 S    
O16   P7    1.760043 S    
C16   H35   1.109378 S    
C31   C38   1.414484 A    
C1    H3    1.112701 S    
C36   C39   1.403280 A    
P4    Ba2   3.396910 S    
O3    Ba1   2.782827 S    
P2    C51   1.860710 S    
C40   H43   1.083822 S    
C45   H45   1.081948 S    
C8    H18   1.096826 S    
P2    O7    1.490964 D    
P3    O8    1.740366 S    
P5    C55   1.838926 S    
Ba1   O13   2.786249 S    
C3    H7    1.109861 S    
C9    H19   1.101649 S    
C52   C53   1.429963 A    
C9    O27   1.401908 S    
C3    H27   1.109452 S    
O13   Ba2   2.915364 S    
C39   C40   1.396898 A    
P8    O23   1.545093 D    
C56   H47   1.076127 S    
C47   H48   1.082448 S    
C37   C38   1.418595 A    
P7    C54   1.841705 S    
C25   C30   1.429580 A    
P6    C44   1.846155 S    
C5    H12   1.109845 S    
C20   H37   1.084459 S    
O7    Ba1   2.901096 S    
C13   C14   1.525619 S    
C45   C46   1.396264 A    
C40   C41   1.402643 A    
C55   C56   1.399855 A    
C4    H9    1.097162 S    
P1    C46   1.882353 S    
C28   H38   1.081108 S    
O5    C6    1.396879 S    
C7    H16   1.105624 S    
C51   C52   1.425105 A    
C48   C51   1.400158 A    
C13   H28   1.112253 S    
C29   C30   1.432902 A    
C23   H39   1.080364 S    
C15   O24   1.402210 S    
C35   H41   1.079907 S    
C10   H21   1.109870 S    
C11   O22   1.403491 S    
C8    N1    1.454213 S    
C19   O30   1.376851 S    
C6    H14   1.104941 S    
C33   C46   1.432026 A    
C5    H11   1.106345 S    
C1    C10   1.522852 S    
O2    Ba1   2.914472 S    
C4    O15   1.402633 S    
C48   H49   1.082246 S    
C12   H24   1.110666 S    
C15   C16   1.504071 S    
C18   C19   1.422234 A    
C47   C55   1.388476 A    
C7    H15   1.105194 S    
C28   C29   1.397328 A    
P3    O9    1.544653 D    
P1    O5    1.749573 S    
P3    C50   1.839605 S    
C3    H6    1.109066 S    
C16   H36   1.109604 S    
Ba1   O20   2.898562 S    
P7    O22   1.748782 S    
C19   C20   1.398036 A    
C35   C36   1.409431 A    
O6    C10   1.406803 S    
C38   C41   1.407436 A    
O3    P6    1.735030 S    
