data_mof_unit_35717.cif
_audit_creation_date              2012-12-10T17:38:17-0500
_audit_creation_method            fapswitch 2.2
_symmetry_space_group_name_H-M    P1
_symmetry_Int_Tables_number       1
_space_group_crystal_system       triclinic
_cell_length_a                    12.187568
_cell_length_b                    12.94191
_cell_length_c                    19.157238
_cell_angle_alpha                 94.412233
_cell_angle_beta                  89.626545
_cell_angle_gamma                 94.456601
_cell_volume                      3003.61428603

loop_
_atom_site_label
_atom_site_type_symbol
_atom_type_description
_atom_site_fract_x
_atom_site_fract_y
_atom_site_fract_z
_atom_type_partial_charge
C1    C     C_R   0.522408 0.699144 0.492501 0.924170
C2    C     C_R   0.556762 0.130599 0.512453 0.363892
C3    C     C_R   0.449869 0.970691 0.471371 -0.103620
C4    C     C_R   0.552673 0.024726 0.490233 -0.000901
C5    C     C_R   0.948835 0.416296 0.423952 -0.317185
C6    C     C_R   0.051303 0.586868 0.574271 -0.349151
C7    C     C_R   0.835145 0.423553 0.430975 0.064979
C8    C     C_R   0.164999 0.580234 0.567376 0.043763
C9    C     C_R   0.862801 0.535992 0.534315 0.554523
C10   C     C_R   0.136903 0.464800 0.465506 0.482527
C11   C     C_R   0.978169 0.529869 0.527942 -0.005554
C12   C     C_R   0.477605 0.299462 0.503955 0.866451
C13   C     C_R   0.021540 0.469245 0.472437 -0.027286
C14   C     C_R   0.502812 0.496999 0.634502 0.867277
C15   C     C_R   0.496833 0.499713 0.365724 0.872078
C16   C     C_R   0.411089 0.475881 0.748311 -0.186338
C17   C     C_R   0.569791 0.580379 0.262399 -0.203320
C18   C     C_R   0.406716 0.495813 0.820420 -0.238790
C19   C     C_R   0.564905 0.602097 0.192989 -0.281748
C20   C     C_R   0.499998 0.538757 0.857299 -0.025876
C21   C     C_R   0.482085 0.552775 0.149737 0.040716
C22   C     C_R   0.600643 0.555596 0.821592 0.410974
C23   C     C_R   0.463392 0.185613 0.506199 -0.238108
C24   C     C_R   0.405135 0.478526 0.175092 0.408524
C25   C     C_R   0.607793 0.524361 0.749782 -0.070675
C26   C     C_R   0.406155 0.459293 0.246847 -0.118372
C27   C     C_R   0.509094 0.496272 0.711520 -0.154441
C28   C     C_R   0.490816 0.510876 0.290375 -0.069960
C29   C     C_R   0.488435 0.563858 0.075004 0.333635
C30   C     C_R   0.495807 0.551894 0.933915 0.277899
C31   C     C_R   0.718381 0.503674 0.721201 0.171972
C32   C     C_R   0.809076 0.576895 0.733542 0.020333
C33   C     C_R   0.916033 0.547484 0.723209 -0.102021
C34   C     C_R   0.538276 0.809052 0.476974 -0.164947
C35   C     C_R   0.933590 0.446917 0.696147 -0.130143
C36   C     C_R   0.844312 0.374941 0.680184 -0.140867
C37   C     C_R   0.737231 0.402485 0.693924 -0.090812
C38   C     C_R   0.324402 0.380018 0.272947 0.119961
C39   C     C_R   0.211838 0.379554 0.256146 -0.045703
C40   C     C_R   0.138084 0.296390 0.272284 -0.107424
C41   C     C_R   0.175285 0.215178 0.307467 -0.084134
C42   C     C_R   0.286052 0.217322 0.326120 -0.140160
C43   C     C_R   0.360279 0.298037 0.308217 -0.184228
C44   C     C_R   0.277237 0.159917 0.550901 0.148181
C45   C     C_R   0.650152 0.972207 0.483563 -0.029041
C46   C     C_R   0.201979 0.232623 0.538903 -0.106213
C47   C     C_R   0.140265 0.275014 0.594214 -0.175473
C48   C     C_R   0.147931 0.239359 0.660943 -0.149769
C49   C     C_R   0.219088 0.163015 0.672647 -0.134926
C50   C     C_R   0.284356 0.124087 0.618060 -0.175989
C51   C     C_R   0.745521 0.809589 0.464898 0.184838
C52   C     C_R   0.765074 0.763292 0.397813 -0.122850
C53   C     C_R   0.864630 0.719701 0.382519 -0.175032
C54   C     C_R   0.946722 0.725289 0.433490 -0.117863
C55   C     C_R   0.928899 0.773895 0.499913 -0.120551
C56   C     C_R   0.354724 0.027544 0.468659 -0.066448
C57   C     C_R   0.827784 0.813818 0.516167 -0.131739
C58   C     C_R   0.757309 0.030015 0.471226 0.210938
C59   C     C_R   0.828592 0.061893 0.527090 -0.069062
C60   C     C_R   0.923897 0.124723 0.515872 -0.166672
C61   C     C_R   0.949994 0.154630 0.448763 -0.112738
C62   C     C_R   0.882580 0.117802 0.392135 -0.166594
C63   C     C_R   0.786589 0.054806 0.403225 -0.208911
C64   C     C_R   0.259974 0.990767 0.422165 0.115080
C65   C     C_R   0.151541 0.983731 0.447470 -0.207935
C66   C     C_R   0.065012 0.946465 0.402635 -0.120387
C67   C     C_R   0.643315 0.863487 0.478225 -0.163631
C68   C     C_R   0.085106 0.916002 0.332575 -0.135641
C69   C     C_R   0.192576 0.921804 0.306994 -0.129636
C70   C     C_R   0.279670 0.958474 0.351485 -0.084904
C71   C     C_R   0.232634 0.640122 0.622669 0.209525
C72   C     C_R   0.282579 0.738449 0.611206 -0.118267
C73   C     C_R   0.333592 0.801918 0.665798 -0.181617
C74   C     C_R   0.328963 0.770305 0.733815 -0.108971
C75   C     C_R   0.272289 0.675920 0.747019 -0.126745
C76   C     C_R   0.224635 0.610980 0.691774 -0.184966
C77   C     C_R   0.767512 0.376255 0.371703 0.187980
C78   C     C_R   0.360009 0.130982 0.497679 -0.084952
C79   C     C_R   0.775761 0.420092 0.306743 -0.163556
C80   C     C_R   0.719389 0.371317 0.248359 -0.127111
C81   C     C_R   0.655909 0.277751 0.254092 -0.127251
C82   C     C_R   0.649768 0.232429 0.318018 -0.224626
C83   C     C_R   0.705912 0.281329 0.376394 -0.091339
C84   C     C_R   0.445382 0.860775 0.461247 0.367671
H1    H     H_    0.337015 0.444454 0.721005 0.173273
H2    H     H_    0.985302 0.603123 0.735745 0.117488
H3    H     H_    0.016453 0.425297 0.687312 0.114847
H4    H     H_    0.858231 0.296932 0.659260 0.140380
H5    H     H_    0.669256 0.343867 0.686004 0.109317
H6    H     H_    0.181884 0.442170 0.229052 0.146777
H7    H     H_    0.052106 0.295553 0.258284 0.114341
H8    H     H_    0.118351 0.151486 0.320948 0.134165
H9    H     H_    0.315896 0.157121 0.354463 0.142401
H10   H     H_    0.445805 0.295969 0.321585 0.133021
H11   H     H_    0.625384 0.227901 0.584199 0.331811
H12   H     H_    0.635579 0.618456 0.294640 0.154653
H13   H     H_    0.288391 0.823665 0.460889 0.331296
H14   H     H_    0.194513 0.258458 0.487272 0.156879
H15   H     H_    0.084142 0.333094 0.584734 0.133864
H16   H     H_    0.098449 0.270069 0.703547 0.127675
H17   H     H_    0.225316 0.135528 0.724314 0.135664
H18   H     H_    0.342822 0.068273 0.628483 0.125591
H19   H     H_    0.704219 0.764032 0.357117 0.110515
H20   H     H_    0.879319 0.684269 0.330640 0.127173
H21   H     H_    0.024919 0.693890 0.421168 0.155015
H22   H     H_    0.993568 0.781080 0.538749 0.140110
H23   H     H_    0.979872 0.371041 0.379191 0.200583
H24   H     H_    0.814514 0.850050 0.568036 0.122317
H25   H     H_    0.807856 0.041694 0.579651 0.123895
H26   H     H_    0.976272 0.149787 0.559739 0.148997
H27   H     H_    0.023339 0.204216 0.440132 0.149797
H28   H     H_    0.903812 0.139167 0.339941 0.140534
H29   H     H_    0.733483 0.027994 0.359376 0.129908
H30   H     H_    0.133775 0.004227 0.501927 0.146476
H31   H     H_    0.981864 0.940598 0.422339 0.179695
H32   H     H_    0.017397 0.887377 0.298305 0.133223
H33   H     H_    0.208485 0.897828 0.252744 0.134879
H34   H     H_    0.020699 0.638116 0.615985 0.204198
H35   H     H_    0.362728 0.962545 0.330835 0.128071
H36   H     H_    0.253371 0.394103 0.421228 0.380666
H37   H     H_    0.745912 0.610753 0.576687 0.378087
H38   H     H_    0.278107 0.767655 0.560791 0.136341
H39   H     H_    0.373543 0.876939 0.655676 0.127872
H40   H     H_    0.366547 0.820110 0.776482 0.129233
H41   H     H_    0.264618 0.653367 0.800147 0.144143
H42   H     H_    0.179477 0.538909 0.703047 0.112931
H43   H     H_    0.825782 0.491934 0.301438 0.121176
H44   H     H_    0.724950 0.406056 0.198715 0.149728
H45   H     H_    0.329931 0.477854 0.847310 0.168385
H46   H     H_    0.611968 0.240140 0.208989 0.138725
H47   H     H_    0.601689 0.159272 0.322323 0.133343
H48   H     H_    0.704510 0.243650 0.424623 0.203548
H49   H     H_    0.627436 0.655809 0.172458 0.161803
H50   H     H_    0.673182 0.656976 0.888306 0.330008
H51   H     H_    0.325157 0.348758 0.141196 0.332114
H52   H     H_    0.797327 0.655848 0.753457 0.139990
N1    N     N_R   0.586849 0.539802 0.971855 -0.129452
N2    N     N_R   0.396713 0.575473 0.037483 -0.113013
N3    N     N_R   0.583509 0.546126 0.041153 -0.184345
N4    N     N_R   0.400447 0.570120 0.967919 -0.178643
N5    N     N_R   0.207800 0.519350 0.512860 -0.163663
N6    N     N_R   0.792200 0.480650 0.487140 -0.168910
O1    O     O_R   0.421690 0.658830 0.503430 -0.571450
O2    O     O_3   0.335772 0.420988 0.127318 -0.774725
O3    O     O_3   0.649064 0.176804 0.547019 -0.782216
O4    O     O_3   0.353760 0.800771 0.435548 -0.746656
O5    O     O_3   0.176211 0.403928 0.410958 -0.804098
O6    O     O_3   0.824006 0.603430 0.585883 -0.812289
O7    O     O_R   0.578310 0.341170 0.496570 -0.604191
O8    O     O_R   0.609320 0.646410 0.495180 -0.646426
O9    O     O_R   0.390680 0.353590 0.504820 -0.637882
O10   O     O_R   0.406160 0.506220 0.605990 -0.603017
O11   O     O_R   0.593840 0.493780 0.394010 -0.615299
O12   O     O_R   0.593780 0.493810 0.597740 -0.637937
O13   O     O_R   0.406220 0.506190 0.402260 -0.605380
O14   O     O_3   0.694212 0.597413 0.856700 -0.784328
Zn1   Zn    Zn3+2 0.374720 0.508290 0.505510 0.970262
Zn2   Zn    Zn3+2 0.625280 0.491710 0.494490 0.952020

loop_
_geom_bond_atom_site_label_1
_geom_bond_atom_site_label_2
_ccdc_geom_bond_type
C25   C31   S    
C66   C68   A    
C52   H19   S    
O13   Zn1   S    
C42   H9    S    
C76   H42   S    
C65   H30   S    
C74   H40   S    
C35   C36   A    
H11   O3    S    
C75   C76   A    
C81   C82   A    
C81   H46   S    
C56   C78   A    
C22   O14   S    
C53   C54   A    
C36   H4    S    
C2    O3    S    
C29   N2    A    
N1    N3    A    
C12   C23   S    
O9    Zn1   S    
C36   C37   A    
C19   C21   A    
C24   C26   A    
O12   Zn2   S    
C49   H17   S    
C38   C39   A    
C77   C83   A    
C53   H20   S    
C43   H10   S    
C47   H15   S    
C73   C74   A    
O11   Zn2   S    
C15   O11   A    
C33   C35   A    
O10   Zn1   S    
C35   H3    S    
H50   O14   S    
C47   C48   A    
C68   C69   A    
C73   H39   S    
C22   C25   A    
C45   C67   A    
C56   C64   S    
C8    N5    A    
C51   C57   A    
C64   C70   A    
C14   C27   S    
O7    Zn2   S    
C39   H6    S    
C15   O13   A    
C10   O5    S    
C7    C77   S    
C16   C27   A    
C41   C42   A    
C46   H14   S    
C59   C60   A    
C23   C78   A    
C30   N1    A    
C14   O12   A    
C12   O9    A    
C61   C62   A    
C34   C84   A    
N6    Zn2   S    
C59   H25   S    
C48   H16   S    
C44   C46   A    
C1    C34   S    
O1    Zn1   S    
C4    C45   A    
C77   C79   A    
C29   N3    A    
C45   C58   S    
C30   N4    A    
C66   H31   S    
C55   H22   S    
C51   C52   A    
C72   C73   A    
C74   C75   A    
C6    C11   A    
C32   H52   S    
C26   C38   S    
C20   C30   S    
C80   H44   S    
C58   C59   A    
C21   C29   S    
C82   C83   A    
C31   C37   A    
C60   C61   A    
C75   H41   S    
C10   N5    A    
C2    C4    A    
C33   H2    S    
C62   C63   A    
C1    O1    A    
C3    C56   A    
C31   C32   A    
C70   H35   S    
C41   H8    S    
H37   O6    S    
C62   H28   S    
C1    O8    A    
C17   H12   S    
C51   C67   S    
C9    C11   A    
N2    N4    A    
C68   H32   S    
N5    Zn1   S    
C40   C41   A    
C20   C22   A    
C50   H18   S    
C55   C57   A    
C16   H1    S    
C25   C27   A    
C42   C43   A    
C3    C4    A    
C61   H27   S    
C39   C40   A    
C52   C53   A    
C5    C7    A    
C5    H23   S    
C44   C50   A    
C58   C63   A    
C79   H43   S    
C54   C55   A    
C48   C49   A    
C8    C71   S    
O8    Zn2   S    
C54   H21   S    
C72   H38   S    
C17   C28   A    
C5    C13   A    
C12   O7    A    
C80   C81   A    
C10   C13   A    
C34   C67   A    
C6    C8    A    
C9    N6    A    
C84   O4    S    
C19   H49   S    
C9    O6    S    
C26   C28   A    
C37   H5    S    
C64   C65   A    
C44   C78   S    
C83   H48   S    
C32   C33   A    
C11   C13   A    
C15   C28   S    
C71   C76   A    
C24   O2    S    
C69   H33   S    
C17   C19   A    
C18   C20   A    
C65   C66   A    
C40   H7    S    
C69   C70   A    
H51   O2    S    
C46   C47   A    
C60   H26   S    
C3    C84   A    
C79   C80   A    
C63   H29   S    
H13   O4    S    
C38   C43   A    
C57   H24   S    
C71   C72   A    
H36   O5    S    
C16   C18   A    
C49   C50   A    
C21   C24   A    
C14   O10   A    
C2    C23   A    
C18   H45   S    
C82   H47   S    
C6    H34   S    
C7    N6    A    
