data_mof_unit_30307.cif
_audit_creation_date              2012-10-26T17:10:34-0400
_audit_creation_method            fapswitch 2.2
_symmetry_space_group_name_H-M    P1
_symmetry_Int_Tables_number       1
_space_group_crystal_system       triclinic
_cell_length_a                    16.858549
_cell_length_b                    16.863454
_cell_length_c                    16.901787
_cell_angle_alpha                 68.062497
_cell_angle_beta                  67.632429
_cell_angle_gamma                 67.153269
_cell_volume                      3948.52325418

loop_
_atom_site_label
_atom_site_type_symbol
_atom_type_description
_atom_site_fract_x
_atom_site_fract_y
_atom_site_fract_z
_atom_type_partial_charge
C1    C     C_R   0.597710 0.018082 0.598325 0.072696
C2    C     C_R   0.402290 0.981917 0.401675 0.072696
C3    C     C_R   0.024878 0.595190 0.596488 0.071823
C4    C     C_R   0.975122 0.404810 0.403512 0.071824
C5    C     C_R   0.598110 0.598100 0.017848 0.074258
C6    C     C_R   0.401890 0.401900 0.982152 0.074258
C7    C     C_R   0.018165 0.830967 0.568184 0.798353
C8    C     C_R   0.981835 0.169033 0.431816 0.798353
C9    C     C_R   0.828722 0.565389 0.027931 0.841236
C10   C     C_R   0.171278 0.434611 0.972069 0.841237
C11   C     C_R   0.565738 0.025696 0.829409 0.822787
C12   C     C_R   0.434262 0.974303 0.170591 0.822787
C13   C     C_R   0.434581 0.171036 0.972782 0.859215
C14   C     C_R   0.565419 0.828964 0.027218 0.859215
C15   C     C_R   0.981738 0.431833 0.168965 0.806203
C16   C     C_R   0.018262 0.568167 0.831034 0.806205
C17   C     C_R   0.170822 0.974213 0.434077 0.799529
C18   C     C_R   0.829178 0.025787 0.565923 0.799529
C19   C     C_R   0.547612 0.008045 0.548458 0.108386
C20   C     C_R   0.452388 0.991954 0.451542 0.108386
C21   C     C_R   0.014304 0.544721 0.547216 0.109031
C22   C     C_R   0.985696 0.455279 0.452784 0.109031
C23   C     C_R   0.547899 0.548564 0.007437 0.110720
C24   C     C_R   0.452101 0.451436 0.992563 0.110720
C25   C     C_R   0.589757 0.950595 0.492495 -0.168633
C26   C     C_R   0.410244 0.049404 0.507505 -0.168633
C27   C     C_R   0.954567 0.492189 0.589680 -0.166374
C28   C     C_R   0.045433 0.507811 0.410320 -0.166374
C29   C     C_R   0.457442 0.557195 0.055442 -0.162511
C30   C     C_R   0.542558 0.442805 0.944559 -0.162510
C31   C     C_R   0.542700 0.942721 0.444553 -0.163647
C32   C     C_R   0.457300 0.057278 0.555447 -0.163647
C33   C     C_R   0.410112 0.509211 0.048164 -0.170788
C34   C     C_R   0.589888 0.490789 0.951836 -0.170789
C35   C     C_R   0.940503 0.447901 0.543064 -0.167877
C36   C     C_R   0.059497 0.552099 0.456936 -0.167877
C37   C     C_R   0.557941 0.021795 0.686762 -0.198959
C38   C     C_R   0.442059 0.978205 0.313238 -0.198958
C39   C     C_R   0.026506 0.684199 0.557444 -0.192327
C40   C     C_R   0.973494 0.315801 0.442556 -0.192328
C41   C     C_R   0.686846 0.558189 0.022003 -0.206199
C42   C     C_R   0.313154 0.441811 0.977998 -0.206199
C43   C     C_R   0.313676 0.978440 0.441322 -0.195408
C44   C     C_R   0.686325 0.021559 0.558678 -0.195408
C45   C     C_R   0.441725 0.312998 0.978750 -0.209898
C46   C     C_R   0.558275 0.687002 0.021249 -0.209898
C47   C     C_R   0.972996 0.443378 0.314875 -0.190382
C48   C     C_R   0.027003 0.556622 0.685125 -0.190381
C49   C     C_R   0.603313 0.035598 0.733089 -0.118887
C50   C     C_R   0.396687 0.964402 0.266911 -0.118888
C51   C     C_R   0.018270 0.737211 0.609214 -0.122811
C52   C     C_R   0.981730 0.262789 0.390786 -0.122811
C53   C     C_R   0.730862 0.601942 0.041255 -0.115785
C54   C     C_R   0.269138 0.398058 0.958745 -0.115783
C55   C     C_R   0.267488 0.964549 0.395951 -0.122709
C56   C     C_R   0.732512 0.035451 0.604049 -0.122710
C57   C     C_R   0.398537 0.268659 0.959325 -0.104378
C58   C     C_R   0.601463 0.731341 0.040675 -0.104376
C59   C     C_R   0.981566 0.390961 0.262464 -0.126971
C60   C     C_R   0.018434 0.609039 0.737536 -0.126970
C61   C     C_R   0.687308 0.051694 0.688206 -0.043145
C62   C     C_R   0.312692 0.948306 0.311794 -0.043145
C63   C     C_R   0.004176 0.701622 0.701480 -0.062882
C64   C     C_R   0.995824 0.298378 0.298520 -0.062882
C65   C     C_R   0.681205 0.682486 0.066462 -0.071705
C66   C     C_R   0.318795 0.317514 0.933538 -0.071705
Cu1   Cu    Cu3+1 0.995180 0.995180 0.424630 1.022901
Cu2   Cu    Cu3+1 0.004820 0.004820 0.575370 1.022901
Cu3   Cu    Cu3+1 0.995180 0.424630 0.995180 1.030806
Cu4   Cu    Cu3+1 0.004820 0.575370 0.004820 1.030807
Cu5   Cu    Cu3+1 0.424630 0.995180 0.995180 1.008720
Cu6   Cu    Cu3+1 0.575370 0.004820 0.004820 1.008719
H1    H     H_    0.423417 0.103118 0.596940 0.137256
H2    H     H_    0.576583 0.896881 0.403060 0.137256
H3    H     H_    0.106505 0.591314 0.422554 0.139349
H4    H     H_    0.893495 0.408686 0.577446 0.139349
H5    H     H_    0.659004 0.483587 0.912880 0.131570
H6    H     H_    0.340995 0.516413 0.087121 0.131570
H7    H     H_    0.341178 0.089316 0.513284 0.134812
H8    H     H_    0.658822 0.910683 0.486716 0.134812
H9    H     H_    0.576375 0.399993 0.900012 0.143664
H10   H     H_    0.423625 0.600006 0.099988 0.143664
H11   H     H_    0.082826 0.513220 0.341275 0.134279
H12   H     H_    0.917174 0.486780 0.658725 0.134279
H13   H     H_    0.492118 0.011933 0.719970 0.157316
H14   H     H_    0.507883 0.988067 0.280030 0.157316
H15   H     H_    0.028813 0.713734 0.487946 0.156018
H16   H     H_    0.971187 0.286266 0.512054 0.156017
H17   H     H_    0.721390 0.492399 0.011223 0.157215
H18   H     H_    0.278610 0.507601 0.988777 0.157215
H19   H     H_    0.280783 0.985983 0.508063 0.157055
H20   H     H_    0.719217 0.014016 0.491938 0.157055
H21   H     H_    0.506089 0.278116 0.992650 0.159412
H22   H     H_    0.493911 0.721884 0.007350 0.159412
H23   H     H_    0.967944 0.513740 0.285969 0.163739
H24   H     H_    0.032056 0.486260 0.714031 0.163739
O1    O     O_R   0.124540 0.978640 0.385460 -0.553443
O2    O     O_R   0.875460 0.021360 0.614540 -0.553442
O3    O     O_R   0.978640 0.385460 0.124540 -0.564941
O4    O     O_R   0.021360 0.614540 0.875460 -0.564941
O5    O     O_R   0.385460 0.124540 0.978640 -0.552171
O6    O     O_R   0.614540 0.875460 0.021360 -0.552173
O7    O     O_R   0.614540 0.021360 0.875460 -0.565269
O8    O     O_R   0.385460 0.978640 0.124540 -0.565268
O9    O     O_R   0.875460 0.614540 0.021360 -0.542717
O10   O     O_R   0.124540 0.385460 0.978640 -0.542718
O11   O     O_R   0.021360 0.875460 0.614540 -0.554604
O12   O     O_R   0.978640 0.124540 0.385460 -0.554603
O13   O     O_R   0.013780 0.867370 0.487190 -0.593614
O14   O     O_R   0.986220 0.132630 0.512810 -0.593614
O15   O     O_R   0.867370 0.487190 0.013780 -0.604044
O16   O     O_R   0.132630 0.512810 0.986220 -0.604044
O17   O     O_R   0.487190 0.013780 0.867370 -0.582089
O18   O     O_R   0.512810 0.986220 0.132630 -0.582089
O19   O     O_R   0.512810 0.132630 0.986220 -0.602376
O20   O     O_R   0.487190 0.867370 0.013780 -0.602376
O21   O     O_R   0.986220 0.512810 0.132630 -0.578460
O22   O     O_R   0.013780 0.487190 0.867370 -0.578460
O23   O     O_R   0.132630 0.986220 0.512810 -0.593090
O24   O     O_R   0.867370 0.013780 0.487190 -0.593090
C67   C     C_2   0.724134 0.092080 0.725756 0.893095
O25   O     O_2   0.704691 0.173273 0.708696 -0.604302
O26   O     O_R   0.780580 0.037462 0.780338 -0.724780
H25   H     H_    0.801132 0.073042 0.801648 0.322641
C68   C     C_2   0.275865 0.907921 0.274243 0.893096
O27   O     O_2   0.295306 0.826728 0.291305 -0.604301
O28   O     O_R   0.219420 0.962540 0.219661 -0.724780
H26   H     H_    0.198867 0.926960 0.198351 0.322641
C69   C     C_2   0.959488 0.762153 0.761003 0.903036
O29   O     O_2   0.004182 0.785752 0.785734 -0.553575
O30   O     O_R   0.866035 0.792001 0.788028 -0.771302
H27   H     H_    0.842978 0.832878 0.828194 0.352198
C70   C     C_2   0.040512 0.237847 0.238997 0.903035
O31   O     O_2   0.995818 0.214248 0.214266 -0.553574
O32   O     O_R   0.133965 0.207999 0.211972 -0.771302
H28   H     H_    0.157022 0.167122 0.171806 0.352198
C71   C     C_2   0.700383 0.705258 0.134084 0.859556
O33   O     O_2   0.766908 0.661078 0.160349 -0.588205
O34   O     O_R   0.637090 0.771333 0.175402 -0.757336
H29   H     H_    0.656320 0.778612 0.221703 0.329714
C72   C     C_2   0.299616 0.294743 0.865915 0.859556
O35   O     O_2   0.233093 0.338926 0.839649 -0.588206
O36   O     O_R   0.362907 0.228666 0.824599 -0.757334
H30   H     H_    0.343677 0.221388 0.778298 0.329713

loop_
_geom_bond_atom_site_label_1
_geom_bond_atom_site_label_2
_ccdc_geom_bond_type
C25   C31   A    
C41   H17   S    
Cu5   O8    S    
C9    O15   A    
C6    C45   A    
C29   C33   A    
C25   H8    S    
C3    C48   A    
C39   C51   A    
C39   H15   S    
C57   C66   A    
C45   H21   S    
O26   H25   S    
C66   C72   S    
C26   C32   A    
C22   C35   A    
C71   O34   S    
Cu6   O19   S    
C45   C57   A    
C59   C64   A    
Cu6   O6    S    
C38   H14   S    
C60   C63   A    
C23   C29   A    
C37   H13   S    
C27   H12   S    
C12   O8    A    
C16   O22   A    
C72   O36   S    
Cu2   O23   S    
C33   H6    S    
C14   O6    A    
C13   C57   S    
Cu4   O21   S    
C9    O9    A    
O36   H30   S    
C55   C62   A    
Cu6   O18   S    
Cu3   O22   S    
C4    C22   S    
Cu5   O17   S    
C61   C67   S    
C16   C60   S    
C2    C38   A    
C1    C44   A    
Cu1   O13   S    
C4    C40   A    
C5    C23   S    
C10   O16   A    
Cu2   O11   S    
C53   C65   A    
Cu1   O24   S    
C8    C52   S    
C44   H20   S    
C1    C37   A    
C65   C71   S    
Cu5   O5    S    
C3    C39   A    
C22   C28   A    
C46   C58   A    
C28   H11   S    
C11   O17   A    
C19   C32   A    
C8    O12   A    
Cu4   O4    S    
C48   C60   A    
C12   O18   A    
C14   C58   S    
C35   H4    S    
C1    C19   S    
C49   C61   A    
C30   C34   A    
C2    C20   S    
Cu1   Cu2   S    
O32   H28   S    
C51   C63   A    
C52   C64   A    
C32   H1    S    
C21   C36   A    
C17   O23   A    
C16   O4    A    
C31   H2    S    
C27   C35   A    
C40   C52   A    
C43   H19   S    
C7    O13   A    
C42   H18   S    
C11   C49   S    
C36   H3    S    
C8    O14   A    
C37   C49   A    
C44   C56   A    
C58   C65   A    
C46   H22   S    
C2    C43   A    
O34   H29   S    
C23   C34   A    
C6    C24   S    
Cu2   O14   S    
C41   C53   A    
C67   O25   D    
C13   O19   A    
Cu4   O16   S    
C54   C66   A    
Cu3   O3    S    
C43   C55   A    
C70   O31   D    
C50   C62   A    
C7    O11   A    
C10   O10   A    
C24   C30   A    
C9    C53   S    
Cu1   O12   S    
C13   O5    A    
O28   H26   S    
C18   O24   A    
C68   O28   S    
C69   O29   D    
C5    C46   A    
C5    C41   A    
C64   C70   S    
C48   H24   S    
C15   C59   S    
C26   H7    S    
C15   O3    A    
Cu4   O9    S    
C62   C68   S    
C12   C50   S    
Cu3   O10   S    
C38   C50   A    
Cu6   O7    S    
C18   C56   S    
C71   O33   D    
C24   C33   A    
C40   H16   S    
C30   H9    S    
C7    C51   S    
Cu5   Cu6   S    
C34   H5    S    
C72   O35   D    
C42   C54   A    
Cu3   O15   S    
C68   O27   D    
C20   C26   A    
C14   O20   A    
C17   C55   S    
Cu5   O20   S    
C63   C69   S    
C21   C27   A    
Cu3   Cu4   S    
C10   C54   S    
Cu2   O2    S    
C67   O26   S    
C3    C21   S    
Cu1   O1    S    
C19   C25   A    
C47   C59   A    
C15   O21   A    
C29   H10   S    
C28   C36   A    
C6    C42   A    
C70   O32   S    
C47   H23   S    
C56   C61   A    
C11   O7    A    
C18   O2    A    
C17   O1    A    
C20   C31   A    
O30   H27   S    
C69   O30   S    
C4    C47   A    
