data_mof_unit_50399.cif
_audit_creation_date              2012-12-10T17:14:46-0500
_audit_creation_method            fapswitch 2.2
_symmetry_space_group_name_H-M    P1
_symmetry_Int_Tables_number       1
_space_group_crystal_system       triclinic
_cell_length_a                    10.696651
_cell_length_b                    12.962616
_cell_length_c                    11.784915
_cell_angle_alpha                 98.742597
_cell_angle_beta                  92.652588
_cell_angle_gamma                 94.953714
_cell_volume                      1606.10678542

loop_
_atom_site_label
_atom_site_type_symbol
_atom_type_description
_atom_site_fract_x
_atom_site_fract_y
_atom_site_fract_z
_atom_type_partial_charge
C1    C     C_R   0.498825 0.299320 0.479465 0.775551
C2    C     C_R   0.614038 0.589321 0.851500 0.609272
C3    C     C_R   0.555522 0.543473 0.153930 0.539634
C4    C     C_R   0.455535 0.447165 0.843556 0.544128
C5    C     C_R   0.549272 0.532166 0.031029 -0.133551
C6    C     C_R   0.460434 0.457971 0.966584 -0.108792
C7    C     C_R   0.259153 0.494196 0.500155 0.858511
C8    C     C_R   0.740462 0.509360 0.499897 0.894188
C9    C     C_3   0.022431 0.415496 0.539106 0.305412
C10   C     C_3   0.976193 0.593214 0.459717 0.320012
C11   C     C_3   0.938345 0.420702 0.430415 -0.045049
C12   C     C_R   0.492793 0.699811 0.521430 0.775119
C13   C     C_3   0.061412 0.588352 0.568173 -0.051179
C14   C     C_3   0.877269 0.512989 0.498162 -0.259704
C15   C     C_3   0.122259 0.495105 0.500838 -0.260861
C16   C     C_3   0.963069 0.508179 0.606241 0.404625
C17   C     C_3   0.036409 0.500808 0.392572 0.400492
C18   C     C_R   0.477273 0.812157 0.536555 -0.061574
C19   C     C_R   0.492559 0.185374 0.469274 -0.046856
C20   C     C_R   0.453728 0.014441 0.351694 -0.238460
C21   C     C_R   0.498420 0.982328 0.657910 -0.225355
C22   C     C_R   0.476100 0.122530 0.360745 -0.213776
C23   C     C_R   0.498571 0.138555 0.568745 -0.267916
C24   C     C_R   0.496439 0.873797 0.646015 -0.201468
C25   C     C_3   0.865420 0.330020 0.349163 -0.813503
C26   C     C_3   0.138353 0.679689 0.645216 -0.828801
C27   C     C_3   0.931866 0.260744 0.588937 0.111469
C28   C     C_3   0.940283 0.194638 0.684279 -0.839736
C29   C     C_3   0.058891 0.748367 0.405170 0.099172
C30   C     C_3   0.039632 0.820332 0.316629 -0.854385
C31   C     C_3   0.009402 0.505488 0.800974 0.151018
C32   C     C_3   0.013558 0.599514 0.896331 -0.839833
C33   C     C_3   0.989148 0.517700 0.201459 0.145013
C34   C     C_R   0.445159 0.859319 0.441992 -0.288649
C35   C     C_3   0.975581 0.433251 0.095796 -0.846081
C36   C     C_3   0.288359 0.328483 0.762948 0.123775
C37   C     C_3   0.254663 0.214131 0.776392 -0.825290
C38   C     C_3   0.605313 0.718413 0.214404 0.067452
C39   C     C_3   0.690927 0.797983 0.297067 -0.723768
C40   C     C_3   0.724768 0.750577 0.845405 0.045317
C41   C     C_3   0.789748 0.812978 0.761854 -0.745835
C42   C     C_3   0.285106 0.244880 0.167493 0.080410
C43   C     C_3   0.154516 0.212874 0.109115 -0.837587
C44   C     C_R   0.484748 0.029979 0.559926 0.167178
C45   C     C_R   0.458456 0.967729 0.450881 0.191095
C46   C     C_R   0.383246 0.394043 0.026668 -0.407553
C47   C     C_R   0.633638 0.590010 0.971150 -0.429288
C48   C     C_R   0.390502 0.406656 0.148163 0.609206
Cu1   Cu    Cu3+1 0.509400 0.507730 0.615930 1.008121
Cu2   Cu    Cu3+1 0.490600 0.492270 0.384070 1.015713
H1    H     H_    0.414035 0.812417 0.360855 0.136353
H2    H     H_    0.789998 0.292013 0.394408 0.198420
H3    H     H_    0.819034 0.359322 0.276078 0.244838
H4    H     H_    0.076462 0.740273 0.677892 0.230432
H5    H     H_    0.186931 0.652465 0.718539 0.239909
H6    H     H_    0.212455 0.714567 0.596025 0.206765
H7    H     H_    0.914272 0.205622 0.506875 0.163257
H8    H     H_    0.849461 0.307161 0.604431 0.159549
H9    H     H_    0.962642 0.245770 0.768395 0.239300
H10   H     H_    0.848470 0.148489 0.687921 0.210042
H11   H     H_    0.012639 0.138922 0.666499 0.251065
H12   H     H_    0.515619 0.186115 0.652857 0.201375
H13   H     H_    0.139185 0.702305 0.379298 0.150570
H14   H     H_    0.084396 0.799872 0.488499 0.167469
H15   H     H_    0.974736 0.879230 0.348148 0.246716
H16   H     H_    0.131128 0.862963 0.303378 0.208738
H17   H     H_    0.001610 0.774460 0.233129 0.238582
H18   H     H_    0.104983 0.499951 0.768598 0.121808
H19   H     H_    0.985323 0.433174 0.838040 0.147826
H20   H     H_    0.923249 0.599553 0.938835 0.253251
H21   H     H_    0.091166 0.596095 0.961119 0.196123
H22   H     H_    0.029229 0.673731 0.860959 0.251710
H23   H     H_    0.512572 0.838579 0.722155 0.162785
H24   H     H_    0.021196 0.593279 0.174143 0.152347
H25   H     H_    0.894241 0.525513 0.235365 0.182598
H26   H     H_    0.949775 0.355445 0.120312 0.251960
H27   H     H_    0.899793 0.449490 0.035367 0.213149
H28   H     H_    0.065440 0.431416 0.052328 0.253285
H29   H     H_    0.260608 0.338369 0.674028 0.224851
H30   H     H_    0.234268 0.380683 0.822017 0.082821
H31   H     H_    0.164037 0.205626 0.817138 0.209212
H32   H     H_    0.249011 0.163029 0.691302 0.244705
H33   H     H_    0.326627 0.186556 0.832814 0.249328
H34   H     H_    0.480219 0.156732 0.282789 0.142082
H35   H     H_    0.612046 0.742500 0.128580 0.106093
H36   H     H_    0.506176 0.722243 0.235202 0.136436
H37   H     H_    0.786059 0.800543 0.264615 0.245915
H38   H     H_    0.657638 0.877054 0.300907 0.187611
H39   H     H_    0.695056 0.776038 0.384451 0.274737
H40   H     H_    0.791076 0.755533 0.921784 0.130893
H41   H     H_    0.637885 0.787094 0.871518 0.105930
H42   H     H_    0.733428 0.802991 0.678872 0.254542
H43   H     H_    0.802670 0.897465 0.799059 0.187311
H44   H     H_    0.883067 0.784850 0.745072 0.243870
H45   H     H_    0.438164 0.967238 0.267216 0.126416
H46   H     H_    0.288990 0.205011 0.244052 0.174010
H47   H     H_    0.358810 0.214590 0.110795 0.098421
H48   H     H_    0.144192 0.127229 0.077489 0.202575
H49   H     H_    0.082432 0.230624 0.172036 0.259963
H50   H     H_    0.138201 0.254513 0.035221 0.234898
H51   H     H_    0.516177 0.028866 0.742553 0.137387
H52   H     H_    0.314126 0.336218 0.981266 0.188522
H53   H     H_    0.715577 0.634226 0.017041 0.170113
H54   H     H_    0.930290 0.271758 0.316290 0.235832
N1    N     N_R   0.523540 0.519360 0.790140 -0.253723
N2    N     N_R   0.476460 0.480640 0.209860 -0.259649
O1    O     O_R   0.506670 0.354460 0.582000 -0.547788
O2    O     O_3   0.946864 0.683958 0.414183 -0.572581
O3    O     O_3   0.914587 0.513603 0.716259 -0.527450
O4    O     O_3   0.081305 0.493623 0.280959 -0.534936
O5    O     O_3   0.419607 0.349797 0.779790 -0.583323
O6    O     O_3   0.642909 0.616831 0.218245 -0.553593
O7    O     O_3   0.696936 0.645614 0.791137 -0.506558
O8    O     O_3   0.302054 0.354265 0.207197 -0.514653
O9    O     O_R   0.493330 0.645540 0.418000 -0.572798
O10   O     O_R   0.490800 0.341410 0.386200 -0.585860
O11   O     O_R   0.509200 0.658590 0.613800 -0.571076
O12   O     O_R   0.324790 0.506500 0.597880 -0.620118
O13   O     O_R   0.675210 0.493500 0.402120 -0.559207
O14   O     O_R   0.308910 0.493440 0.402080 -0.506963
O15   O     O_R   0.691090 0.506560 0.597920 -0.505785
O16   O     O_3   0.046185 0.324023 0.585397 -0.605670

loop_
_geom_bond_atom_site_label_1
_geom_bond_atom_site_label_2
_ccdc_geom_bond_type
C29   H13   S    
C13   C26   S    
C36   H29   S    
C10   O2    S    
C43   H48   S    
C39   H37   S    
C48   N2    A    
C17   O4    S    
C32   H22   S    
C46   H52   S    
C34   H1    S    
C38   H36   S    
Cu2   O14   S    
C36   C37   S    
C9    C16   S    
C43   H49   S    
C38   C39   S    
C2    O7    S    
C24   H23   S    
C11   C25   S    
C10   C17   S    
Cu2   O9    S    
C33   H25   S    
C23   H12   S    
Cu1   O11   S    
C41   H44   S    
C29   O2    S    
C1    O10   A    
Cu1   O1    S    
Cu2   O10   S    
C30   H17   S    
C12   O9    A    
C21   H51   S    
C28   H11   S    
C7    C15   S    
C29   H14   S    
C26   H5    S    
C7    O12   A    
C37   H31   S    
C39   H38   S    
C26   H4    S    
C27   O16   S    
C42   O8    S    
C16   O3    S    
C32   H21   S    
C28   H10   S    
C3    N2    A    
C31   H18   S    
C46   C48   A    
C35   H26   S    
C1    C19   S    
C47   H53   S    
C38   H35   S    
Cu2   O13   S    
C5    C47   A    
C19   C22   A    
C43   H50   S    
C4    C6    A    
C36   H30   S    
C42   H47   S    
C11   C14   S    
C32   H20   S    
C35   H28   S    
C35   H27   S    
C23   C44   A    
C22   H34   S    
C19   C23   A    
C29   C30   S    
C21   C44   A    
C18   C34   A    
C40   O7    S    
C3    O6    S    
Cu1   O15   S    
C36   O5    S    
C9    O16   S    
C31   O3    S    
C34   C45   A    
C9    C11   S    
C30   H16   S    
C1    O1    A    
C40   C41   S    
C20   H45   S    
C20   C22   A    
C13   C15   S    
C27   H7    S    
C18   C24   A    
C37   H32   S    
C21   C24   A    
C42   C43   S    
C38   O6    S    
C44   C45   A    
C48   O8    S    
C28   H9    S    
C15   C17   S    
C11   C17   S    
C8    C14   S    
C6    C46   A    
C7    O14   A    
C4    O5    S    
C31   C32   S    
C20   C45   A    
C25   H3    S    
C3    C5    A    
C10   C13   S    
C26   H6    S    
Cu1   N1    S    
C25   H54   S    
C2    C47   A    
C4    N1    A    
C2    N1    A    
C42   H46   S    
C41   H43   S    
C9    C15   S    
C25   H2    S    
C5    C6    A    
C27   H8    S    
C33   C35   S    
C14   C16   S    
C40   H41   S    
C8    O15   A    
C30   H15   S    
C12   O11   A    
Cu1   O12   S    
C33   H24   S    
C31   H19   S    
C41   H42   S    
Cu1   Cu2   S    
C13   C16   S    
C12   C18   S    
C27   C28   S    
Cu2   N2    S    
C37   H33   S    
C33   O4    S    
C40   H40   S    
C39   H39   S    
C8    O13   A    
C10   C14   S    
