data_mof_unit_67963.cif
_audit_creation_date              2012-12-10T20:48:16-0500
_audit_creation_method            fapswitch 2.2
_symmetry_space_group_name_H-M    P1
_symmetry_Int_Tables_number       1
_space_group_crystal_system       triclinic
_cell_length_a                    10.771976
_cell_length_b                    9.143339
_cell_length_c                    8.243136
_cell_angle_alpha                 88.085853
_cell_angle_beta                  89.217877
_cell_angle_gamma                 90.66561
_cell_volume                      811.29369797

loop_
_atom_site_label
_atom_site_type_symbol
_atom_type_description
_atom_site_fract_x
_atom_site_fract_y
_atom_site_fract_z
_atom_type_partial_charge
C1    C     C_R   0.507672 0.218438 0.501783 0.856859
C2    C     C_R   0.258638 0.479933 0.500416 1.062494
C3    C     C_R   0.741614 0.488757 0.500338 1.144567
C4    C     C_R   0.500496 0.781922 0.498307 0.978783
C5    C     C_1   0.506054 0.064925 0.502514 -0.217787
C6    C     C_3   0.066615 0.426313 0.675648 0.850254
C7    C     C_3   0.068003 0.356439 0.358116 0.730560
C8    C     C_3   0.923048 0.404131 0.669600 0.760569
C9    C     C_3   0.918770 0.369697 0.359152 0.831556
C10   C     C_1   0.503407 0.935328 0.497714 -0.184455
C11   C     C_3   0.074472 0.618585 0.442887 0.991170
C12   C     C_3   0.933048 0.628017 0.470298 0.888861
C13   C     C_3   0.121307 0.461962 0.496572 -0.753995
C14   C     C_3   0.877766 0.472045 0.500543 -0.647476
N1    N     N_1   0.500000 0.500030 0.073640 -0.017110
N2    N     N_1   0.500000 0.500030 0.926360 -0.010886
O1    O     O_R   0.500000 0.285340 0.636850 -0.677219
O2    O     O_R   0.500000 0.285340 0.363150 -0.647807
O3    O     O_R   0.314790 0.499970 0.636880 -0.547325
O4    O     O_R   0.314790 0.499970 0.363120 -0.574436
O5    O     O_R   0.685210 0.499970 0.636880 -0.599668
O6    O     O_R   0.685210 0.499970 0.363120 -0.525349
O7    O     O_R   0.500000 0.714650 0.636900 -0.613645
O8    O     O_R   0.500000 0.714650 0.363100 -0.606981
Zn1   Zn    Zn3+2 0.500000 0.499990 0.682780 1.048880
Zn2   Zn    Zn3+2 0.500000 0.499990 0.317220 1.072766
F1    F     F_    0.085251 0.553180 0.761028 -0.516584
F2    F     F_    0.107402 0.411692 0.206906 -0.538066
F3    F     F_    0.873203 0.479851 0.799694 -0.531863
F4    F     F_    0.889368 0.440335 0.212744 -0.513195
O9    O     O_3   0.127199 0.319385 0.777084 -0.556526
C15   C     C_3   0.146570 0.181914 0.710541 0.038100
H1    H     H_    0.244426 0.173860 0.670211 0.146374
H2    H     H_    0.080783 0.159448 0.618082 0.216543
C16   C     C_3   0.120943 0.060927 0.835848 -0.558715
H3    H     H_    0.198981 0.051305 0.916519 0.250091
H4    H     H_    0.033793 0.083922 0.900086 0.267809
C17   C     C_3   0.111487 0.913281 0.762505 -0.627257
H5    H     H_    0.038863 0.915862 0.668793 0.308573
H6    H     H_    0.086345 0.828828 0.857421 0.326282
H7    H     H_    0.203973 0.887427 0.710278 0.295704
O10   O     O_3   0.104590 0.208112 0.364229 -0.745382
C18   C     C_3   0.231111 0.176380 0.336485 0.073608
H8    H     H_    0.241553 0.057792 0.366066 0.186188
H9    H     H_    0.288195 0.229907 0.423223 0.094796
C19   C     C_3   0.278865 0.209459 0.162817 -0.192499
H10   H     H_    0.199191 0.215679 0.081386 0.280110
H11   H     H_    0.323413 0.318638 0.153588 0.267121
C20   C     C_3   0.372988 0.097103 0.105250 -1.001588
H12   H     H_    0.459313 0.098857 0.175423 0.301315
H13   H     H_    0.398039 0.123719 0.976716 0.266478
H14   H     H_    0.333657 0.984316 0.115339 0.278886
O11   O     O_3   0.891025 0.252038 0.681739 -0.736219
C21   C     C_3   0.797603 0.214218 0.798579 0.165787
H15   H     H_    0.711779 0.275497 0.775439 0.208750
H16   H     H_    0.830086 0.237637 0.922266 0.206310
C22   C     C_3   0.766335 0.050652 0.789335 -0.405820
H17   H     H_    0.750702 0.022747 0.661498 0.249516
H18   H     H_    0.845046 0.984335 0.833949 0.252896
C23   C     C_3   0.649580 0.007785 0.887531 -0.871372
H19   H     H_    0.652840 0.049782 0.011987 0.254709
H20   H     H_    0.639517 0.886727 0.895224 0.303628
H21   H     H_    0.566956 0.053246 0.826816 0.269807
O12   O     O_3   0.834386 0.246011 0.369625 -0.659235
C24   C     C_3   0.875995 0.101599 0.360798 0.198107
H22   H     H_    0.794186 0.028912 0.385660 0.158156
H23   H     H_    0.938618 0.072462 0.460918 0.180974
C25   C     C_3   0.922621 0.066591 0.191169 -0.408015
H24   H     H_    0.842114 0.037758 0.117098 0.204269
H25   H     H_    0.967867 0.164392 0.132650 0.275407
C26   C     C_3   0.012300 0.938637 0.195222 -0.613984
H26   H     H_    0.026877 0.896778 0.320569 0.308147
H27   H     H_    0.104872 0.972543 0.149306 0.231109
H28   H     H_    0.977434 0.849988 0.118505 0.323028
F5    F     F_    0.134635 0.724227 0.526806 -0.681305
F6    F     F_    0.103708 0.653002 0.281759 -0.568889
F7    F     F_    0.906280 0.712820 0.602294 -0.633702
F8    F     F_    0.878123 0.694726 0.336379 -0.621538

loop_
_geom_bond_atom_site_label_1
_geom_bond_atom_site_label_2
_ccdc_geom_bond_type
C8    O11   S    
C26   H28   S    
C8    C14   S    
C9    C14   S    
C19   H10   S    
C9    O12   S    
C18   H9    S    
C1    O1    A    
O9    C15   S    
O2    Zn2   S    
C7    C13   S    
C18   H8    S    
C24   C25   S    
O1    Zn1   S    
C15   H1    S    
C20   H14   S    
C20   H13   S    
C6    O9    S    
C22   H17   S    
C5    C10   T    
C11   F5    S    
O11   C21   S    
O12   C24   S    
C6    C13   S    
C17   H6    S    
C11   C13   S    
C19   C20   S    
C1    O2    A    
C3    C14   S    
O4    Zn2   S    
C9    F4    S    
C25   C26   S    
C1    C5    S    
C8    F3    S    
C22   C23   S    
C25   H25   S    
C12   F8    S    
C16   H4    S    
O8    Zn2   S    
C24   H22   S    
C19   H11   S    
C11   F6    S    
O7    Zn1   S    
C17   H5    S    
C4    O8    A    
C18   C19   S    
C21   H16   S    
C3    O5    A    
C22   H18   S    
C23   H21   S    
O10   C18   S    
O3    Zn1   S    
C2    O4    A    
N1    N2    T    
C15   C16   S    
C7    C9    S    
C26   H26   S    
C16   C17   S    
C12   F7    S    
C17   H7    S    
C23   H20   S    
C20   H12   S    
O6    Zn2   S    
C7    O10   S    
N2    Zn1   S    
C26   H27   S    
C2    C13   S    
O5    Zn1   S    
C21   H15   S    
C23   H19   S    
N1    Zn2   S    
C6    C8    S    
C16   H3    S    
C24   H23   S    
C4    O7    A    
C2    O3    A    
C4    C10   S    
C7    F2    S    
C6    F1    S    
C11   C12   S    
C12   C14   S    
C25   H24   S    
C3    O6    A    
C21   C22   S    
C15   H2    S    
