data_mof_unit_13102.cif
_audit_creation_date              2012-12-10T17:31:24-0500
_audit_creation_method            fapswitch 2.2
_symmetry_space_group_name_H-M    P1
_symmetry_Int_Tables_number       1
_space_group_crystal_system       triclinic
_cell_length_a                    19.023171
_cell_length_b                    18.403942
_cell_length_c                    12.432214
_cell_angle_alpha                 90.217868
_cell_angle_beta                  129.782672
_cell_angle_gamma                 89.682351
_cell_volume                      3344.77157852

loop_
_atom_site_label
_atom_site_type_symbol
_atom_type_description
_atom_site_fract_x
_atom_site_fract_y
_atom_site_fract_z
_atom_type_partial_charge
C1    C     C_R   0.608040 0.895303 0.647493 0.816488
C2    C     C_R   0.615555 0.098876 0.657123 0.859109
C3    C     C_R   0.108040 0.395303 0.647493 0.816488
C4    C     C_R   0.115554 0.598876 0.657123 0.859109
C5    C     C_R   0.249164 0.776144 0.036366 0.030935
C6    C     C_R   0.241908 0.228766 0.040926 0.019456
C7    C     C_R   0.749164 0.276144 0.036366 0.030935
C8    C     C_R   0.741908 0.728766 0.040926 0.019457
C9    C     C_R   0.658895 0.297241 0.982016 -0.035841
C10   C     C_R   0.674311 0.750278 0.052400 -0.025843
C11   C     C_R   0.158895 0.797241 0.982016 -0.035841
C12   C     C_R   0.174311 0.250278 0.052400 -0.025843
C13   C     C_R   0.583374 0.281598 0.840515 -0.143238
C14   C     C_R   0.593444 0.785295 0.936163 -0.147822
C15   C     C_R   0.083374 0.781598 0.840515 -0.143238
C16   C     C_R   0.093444 0.285295 0.936163 -0.147822
C17   C     C_R   0.593884 0.234756 0.762915 0.447014
C18   C     C_R   0.581937 0.799032 0.815286 0.447170
C19   C     C_R   0.093884 0.734756 0.762915 0.447015
C20   C     C_R   0.081937 0.299032 0.815286 0.447170
C21   C     C_R   0.324648 0.798329 0.174998 -0.033037
C22   C     C_R   0.322107 0.193663 0.156531 -0.071125
C23   C     C_R   0.824648 0.298329 0.174998 -0.033037
C24   C     C_R   0.822107 0.693663 0.156531 -0.071125
C25   C     C_R   0.224226 0.862554 0.197781 -0.231690
C26   C     C_R   0.258683 0.183781 0.272699 -0.176966
C27   C     C_R   0.724226 0.362554 0.197781 -0.231690
C28   C     C_R   0.758683 0.683781 0.272699 -0.176966
C29   C     C_R   0.690399 0.148232 0.756350 -0.095702
C30   C     C_R   0.660547 0.827967 0.719453 -0.104816
C31   C     C_R   0.190399 0.648232 0.756350 -0.095702
C32   C     C_R   0.160547 0.327967 0.719453 -0.104816
C33   C     C_R   0.685742 0.000802 0.288932 -0.285581
C34   C     C_R   0.185742 0.500802 0.288932 -0.285581
C35   C     C_R   0.342272 0.007208 0.626498 0.069596
C36   C     C_R   0.842272 0.507208 0.626498 0.069595
C37   C     C_R   0.309088 0.019707 0.697545 0.408605
C38   C     C_R   0.809088 0.519707 0.697545 0.408605
C39   C     C_R   0.387626 0.102028 0.347013 0.863937
C40   C     C_R   0.385373 0.900113 0.343930 0.830731
C41   C     C_R   0.887626 0.602028 0.347013 0.863937
C42   C     C_R   0.885373 0.400113 0.343930 0.830731
C43   C     C_R   0.370601 0.025931 0.842102 -0.281648
C44   C     C_R   0.870600 0.525931 0.842102 -0.281647
C45   C     C_R   0.463555 0.008640 0.920479 -0.054813
C46   C     C_R   0.963555 0.508640 0.920479 -0.054814
C47   C     C_R   0.495573 0.000656 0.843486 0.285206
C48   C     C_R   0.995573 0.500656 0.843486 0.285206
C49   C     C_R   0.526582 0.004256 0.071980 -0.026300
C50   C     C_R   0.026582 0.504256 0.071980 -0.026300
C51   C     C_R   0.621450 0.001520 0.142203 0.163852
C52   C     C_R   0.121450 0.501520 0.142203 0.163852
C53   C     C_R   0.652003 0.999070 0.065846 -0.277383
C54   C     C_R   0.152003 0.499070 0.065846 -0.277382
C55   C     C_R   0.590666 0.997681 0.920301 -0.155507
C56   C     C_R   0.090666 0.497681 0.920301 -0.155507
C57   C     C_R   0.500988 0.999563 0.158331 0.126089
C58   C     C_R   0.000988 0.499563 0.158331 0.126089
C59   C     C_R   0.656698 0.001295 0.367080 0.078212
C60   C     C_R   0.156698 0.501294 0.367080 0.078212
C61   C     C_R   0.648121 0.334332 0.071483 0.005388
C62   C     C_R   0.689599 0.732763 0.177750 0.013326
C63   C     C_R   0.148121 0.834332 0.071483 0.005388
C64   C     C_R   0.189599 0.232763 0.177750 0.013326
C65   C     C_R   0.311380 0.850217 0.242730 -0.115231
C66   C     C_R   0.322159 0.160742 0.258188 -0.121181
C67   C     C_R   0.811380 0.350217 0.242730 -0.115231
C68   C     C_R   0.822159 0.660742 0.258188 -0.121182
C69   C     C_R   0.776749 0.130867 0.799867 -0.255587
C70   C     C_R   0.719978 0.801184 0.698074 -0.193476
C71   C     C_R   0.276749 0.630867 0.799867 -0.255586
C72   C     C_R   0.219978 0.301185 0.698074 -0.193476
C73   C     C_R   0.353430 0.667740 0.910737 0.042817
C74   C     C_R   0.276778 0.242161 0.775556 0.050406
C75   C     C_R   0.853430 0.167740 0.910737 0.042818
C76   C     C_R   0.776778 0.742161 0.775556 0.050406
C77   C     C_R   0.344842 0.719727 0.983826 -0.147304
C78   C     C_R   0.282271 0.215274 0.885585 -0.150144
C79   C     C_R   0.844843 0.219726 0.983826 -0.147305
C80   C     C_R   0.782271 0.715274 0.885585 -0.150142
C81   C     C_R   0.759389 0.233295 0.950792 -0.005909
C82   C     C_R   0.729210 0.746070 0.917649 0.007787
C83   C     C_R   0.259389 0.733295 0.950792 -0.005909
C84   C     C_R   0.229210 0.246070 0.917649 0.007786
C85   C     C_R   0.680347 0.204127 0.823904 -0.041379
C86   C     C_R   0.656918 0.792449 0.817392 -0.049743
C87   C     C_R   0.180347 0.704127 0.823904 -0.041379
C88   C     C_R   0.156918 0.292449 0.817392 -0.049743
Cu1   Cu    Cu3+1 0.526340 1.000000 0.421010 0.974537
Cu2   Cu    Cu3+1 0.026340 0.500000 0.421010 0.974537
Cu3   Cu    Cu3+1 0.473640 1.000000 0.578990 0.996472
Cu4   Cu    Cu3+1 0.973640 0.500000 0.578990 0.996472
H1    H     H_    0.215154 0.895716 0.259712 0.178702
H2    H     H_    0.264234 0.164952 0.360437 0.184544
H3    H     H_    0.715154 0.395716 0.259712 0.178702
H4    H     H_    0.764234 0.664952 0.360437 0.184544
H5    H     H_    0.724649 0.997329 0.119477 0.155806
H6    H     H_    0.224649 0.497330 0.119477 0.155806
H7    H     H_    0.758466 0.999846 0.343196 0.144306
H8    H     H_    0.258466 0.499846 0.343196 0.144306
H9    H     H_    0.343897 0.050077 0.887981 0.160552
H10   H     H_    0.843897 0.550077 0.887980 0.160555
H11   H     H_    0.621011 0.996471 0.871980 0.189985
H12   H     H_    0.121011 0.496471 0.871980 0.189985
H13   H     H_    0.784644 0.087151 0.749449 0.148575
H14   H     H_    0.721323 0.825386 0.620030 0.176866
H15   H     H_    0.284643 0.587151 0.749449 0.148574
H16   H     H_    0.221323 0.325386 0.620030 0.176866
H17   H     H_    0.405127 0.750403 0.062353 0.176291
H18   H     H_    0.325967 0.168841 0.942111 0.133247
H19   H     H_    0.905127 0.250403 0.062353 0.176291
H20   H     H_    0.825967 0.668840 0.942111 0.133247
H21   H     H_    0.706530 0.001410 0.480210 0.128601
H22   H     H_    0.206530 0.501410 0.480210 0.128601
N1    N     N_R   0.566260 0.000000 0.302220 -0.201239
N2    N     N_R   0.066260 0.500000 0.302220 -0.201239
N3    N     N_R   0.434410 0.000000 0.697680 -0.237050
N4    N     N_R   0.934410 0.500000 0.697680 -0.237049
O1    O     O_R   0.608610 0.924520 0.551740 -0.593553
O2    O     O_R   0.608610 0.075480 0.551740 -0.593785
O3    O     O_R   0.108610 0.424520 0.551740 -0.593553
O4    O     O_R   0.108610 0.575480 0.551740 -0.593785
O5    O     O_R   0.564110 0.924510 0.685150 -0.562608
O6    O     O_R   0.564110 0.075490 0.685150 -0.571505
O7    O     O_R   0.064110 0.424510 0.685150 -0.562608
O8    O     O_R   0.064110 0.575490 0.685150 -0.571505
O9    O     O_R   0.435880 0.075470 0.314850 -0.581797
O10   O     O_R   0.435880 0.924530 0.314850 -0.566504
O11   O     O_R   0.935880 0.575470 0.314850 -0.581797
O12   O     O_R   0.935880 0.424530 0.314850 -0.566504
O13   O     O_R   0.391380 0.075460 0.448260 -0.568406
O14   O     O_R   0.391380 0.924540 0.448260 -0.566648
O15   O     O_R   0.891380 0.575460 0.448260 -0.568406
O16   O     O_R   0.891380 0.424540 0.448260 -0.566647
C89   C     C_1   0.407474 0.987287 0.098181 0.309238
N5    N     N_1   0.332047 0.977468 0.048821 -0.315078
C90   C     C_1   0.907474 0.487287 0.098181 0.309237
N6    N     N_1   0.832047 0.477468 0.048821 -0.315075
C91   C     C_1   0.276711 0.010540 0.476168 0.374033
N7    N     N_1   0.222275 0.014973 0.355635 -0.308682
C92   C     C_1   0.776711 0.510540 0.476168 0.374029
N8    N     N_1   0.722275 0.514973 0.355635 -0.308682
O17   O     O_3   0.217495 0.036257 0.623628 -0.574180
C93   C     C_3   0.176562 0.979688 0.642508 -0.293887
H23   H     H_    0.202359 0.978294 0.751829 0.183288
H24   H     H_    0.187055 0.925941 0.612992 0.154247
H25   H     H_    0.101782 0.989842 0.573024 0.191808
O18   O     O_3   0.717495 0.536257 0.623629 -0.574178
C94   C     C_3   0.676562 0.479683 0.642500 -0.293883
H26   H     H_    0.702362 0.478281 0.751824 0.183285
H27   H     H_    0.687050 0.425938 0.612967 0.154245
H28   H     H_    0.601782 0.489840 0.573022 0.191809
C95   C     C_1   0.496312 0.318994 0.766022 0.339264
N9    N     N_1   0.426870 0.349076 0.705405 -0.294636
C96   C     C_1   0.518330 0.806491 0.932020 0.329138
N10   N     N_1   0.457731 0.824353 0.926681 -0.303744
C97   C     C_1   0.996312 0.818994 0.766022 0.339264
N11   N     N_1   0.926870 0.849076 0.705405 -0.294637
C98   C     C_1   0.018330 0.306491 0.932020 0.329138
N12   N     N_1   0.957731 0.324353 0.926681 -0.303744
C99   C     C_1   0.561270 0.343274 0.040879 0.262907
N13   N     N_1   0.492130 0.350394 0.017475 -0.261676
C100  C     C_1   0.638057 0.763574 0.215704 0.254646
N14   N     N_1   0.597781 0.788404 0.247734 -0.262280
C101  C     C_1   0.061270 0.843275 0.040879 0.262908
N15   N     N_1   0.992131 0.850394 0.017475 -0.261676
C102  C     C_1   0.138056 0.263574 0.215704 0.254646
N16   N     N_1   0.097781 0.288404 0.247734 -0.262280
C103  C     C_1   0.412466 0.761429 0.261515 0.194451
N17   N     N_1   0.482590 0.731997 0.331877 -0.260283
C104  C     C_1   0.409181 0.203272 0.187188 0.233528
N18   N     N_1   0.478684 0.211013 0.212205 -0.275754
C105  C     C_1   0.912466 0.261429 0.261515 0.194451
N19   N     N_1   0.982590 0.231997 0.331877 -0.260283
C106  C     C_1   0.909181 0.703272 0.187188 0.233528
N20   N     N_1   0.978684 0.711013 0.212205 -0.275754
C107  C     C_1   0.441856 0.647846 0.955243 0.249187
N21   N     N_1   0.512495 0.630924 0.990402 -0.277539
C108  C     C_1   0.331837 0.210626 0.745209 0.282202
N22   N     N_1   0.375920 0.185214 0.720574 -0.264500
C109  C     C_1   0.941856 0.147846 0.955243 0.249188
N23   N     N_1   0.012495 0.130924 0.990402 -0.277539
C110  C     C_1   0.831837 0.710626 0.745209 0.282201
N24   N     N_1   0.875919 0.685214 0.720574 -0.264500
O19   O     O_3   0.519414 0.222808 0.623280 -0.572209
C111  C     C_3   0.525043 0.270794 0.540657 -0.331223
H29   H     H_    0.578145 0.252234 0.534648 0.175591
H30   H     H_    0.538711 0.327890 0.579384 0.148284
H31   H     H_    0.458330 0.271131 0.433224 0.195614
O20   O     O_3   0.494646 0.814467 0.692317 -0.551744
C112  C     C_3   0.457591 0.750799 0.610450 -0.302708
H32   H     H_    0.386869 0.762736 0.513987 0.189330
H33   H     H_    0.453745 0.706306 0.666955 0.164308
H34   H     H_    0.497430 0.732730 0.577919 0.174808
O21   O     O_3   0.019415 0.722808 0.623280 -0.572209
C113  C     C_3   0.025042 0.770794 0.540657 -0.331220
H35   H     H_    0.078145 0.752235 0.534648 0.175591
H36   H     H_    0.038711 0.827890 0.579384 0.148284
H37   H     H_    0.958330 0.771131 0.433224 0.195614
O22   O     O_3   0.994646 0.314467 0.692317 -0.551744
C114  C     C_3   0.957592 0.250799 0.610450 -0.302708
H38   H     H_    0.886870 0.262736 0.513987 0.189330
H39   H     H_    0.953745 0.206306 0.666955 0.164307
H40   H     H_    0.997430 0.232730 0.577919 0.174808

loop_
_geom_bond_atom_site_label_1
_geom_bond_atom_site_label_2
_ccdc_geom_bond_type
C28   H4    S    
C26   H2    S    
C47   N3    A    
C34   C60   A    
C104  N18   T    
Cu1   N1    S    
C19   O21   S    
O20   C112  S    
C71   H15   S    
C14   C96   S    
C114  H39   S    
C114  H38   S    
C14   C18   A    
C53   C55   A    
C27   H3    S    
C100  N14   T    
C25   C63   A    
Cu1   O1    S    
C36   C92   S    
C69   H13   S    
Cu4   O7    S    
C59   N1    A    
C41   O15   A    
C99   N13   T    
C89   N5    T    
C57   N1    A    
C101  N15   T    
C105  N19   T    
C15   C19   A    
C18   C86   A    
C2    C29   S    
C9    C61   A    
C28   C68   A    
C5    C11   A    
C64   C102  S    
C19   C87   A    
C94   H27   S    
C98   N12   T    
C6    C12   A    
C12   C64   A    
C21   C103  S    
Cu3   O13   S    
C77   C83   A    
O17   C93   S    
C6    C22   A    
C55   H11   S    
C49   C57   A    
C48   C56   A    
C1    O1    A    
C23   C67   A    
C62   C100  S    
C9    C13   A    
C22   C66   A    
C26   C64   A    
C27   C61   A    
C35   C91   S    
Cu2   O11   S    
C60   H22   S    
C97   N11   T    
C20   O22   S    
C74   C108  S    
Cu4   O15   S    
C17   O19   S    
O22   C114  S    
C49   C51   A    
C34   H8    S    
C43   H9    S    
Cu3   N3    S    
Cu2   N2    S    
C30   C86   A    
C76   C110  S    
C36   N4    A    
C29   C85   A    
C22   C104  S    
C16   C20   A    
C73   C107  S    
C31   C71   A    
C40   O14   A    
C33   C59   A    
Cu3   O5    S    
C16   C98   S    
C58   N2    A    
C114  H40   S    
Cu2   O4    S    
C10   C62   A    
C11   C15   A    
C93   H25   S    
C17   C85   A    
C21   C65   A    
C30   C70   A    
C52   C54   A    
C41   C68   S    
C29   C69   A    
C45   C47   A    
C35   N3    A    
Cu2   Cu4   S    
C54   C56   A    
C6    C84   A    
C112  H32   S    
C26   C66   A    
C103  N17   T    
C12   C16   A    
C31   C87   A    
O18   C94   S    
C56   H12   S    
C72   C74   A    
C10   C14   A    
C94   H28   S    
C102  N16   T    
C79   C81   A    
C44   H10   S    
C113  H35   S    
C48   N4    A    
Cu3   O14   S    
C44   C46   A    
C53   H5    S    
C109  N23   T    
O21   C113  S    
C33   H7    S    
C39   O9    A    
C50   C58   A    
C37   C43   A    
C110  N24   T    
C1    O5    A    
C38   C44   A    
C4    O8    A    
Cu2   O3    S    
C41   O11   A    
C50   C52   A    
C106  N20   T    
Cu1   O2    S    
C45   C49   A    
C25   H1    S    
C59   H21   S    
C38   O18   S    
C80   H20   S    
C112  H33   S    
C4    O4    A    
C78   H18   S    
C77   H17   S    
C43   C45   A    
C13   C95   S    
C58   C90   S    
C93   H24   S    
C7    C81   A    
C2    O6    A    
C40   C65   S    
C70   H14   S    
C42   C67   S    
C39   C66   S    
C61   C99   S    
C60   N2    A    
C32   C88   A    
Cu1   Cu3   S    
C111  H30   S    
C75   C109  S    
C35   C37   A    
C47   C55   A    
Cu1   O9    S    
C7    C9    A    
C18   O20   S    
C2    O2    A    
C37   O17   S    
C113  H37   S    
C34   C52   A    
C113  H36   S    
Cu4   O16   S    
C76   C80   A    
C93   H23   S    
Cu4   O8    S    
C83   C87   A    
C91   N7    T    
C3    O7    A    
C5    C83   A    
C15   C97   S    
C23   C105  S    
C79   H19   S    
C33   C51   A    
C90   N6    T    
C46   C50   A    
C11   C63   A    
C42   O12   A    
C13   C17   A    
Cu3   O6    S    
C111  H31   S    
C36   C38   A    
C111  H29   S    
C112  H34   S    
C57   C89   S    
C82   C86   A    
C92   N8    T    
C70   C76   A    
O19   C111  S    
C84   C88   A    
C39   O13   A    
C7    C23   A    
C20   C88   A    
C1    C30   S    
C8    C24   A    
C80   C82   A    
C42   O16   A    
C69   C75   A    
C72   H16   S    
C3    C32   S    
C4    C31   S    
C27   C67   A    
C24   C68   A    
C63   C101  S    
C108  N22   T    
Cu2   O12   S    
C46   C48   A    
C78   C84   A    
C8    C82   A    
C5    C21   A    
Cu4   N4    S    
C8    C10   A    
C107  N21   T    
C74   C78   A    
C71   C73   A    
C96   N10   T    
C25   C65   A    
C73   C77   A    
C54   H6    S    
C51   C53   A    
C95   N9    T    
C94   H26   S    
C24   C106  S    
C75   C79   A    
C81   C85   A    
C3    O3    A    
C28   C62   A    
C32   C72   A    
Cu1   O10   S    
C40   O10   A    
