data_mof_unit_20423.cif
_audit_creation_date              2012-10-26T19:58:23-0400
_audit_creation_method            fapswitch 2.2
_symmetry_space_group_name_H-M    P1
_symmetry_Int_Tables_number       1
_space_group_crystal_system       triclinic
_cell_length_a                    7.425671
_cell_length_b                    8.687825
_cell_length_c                    13.454693
_cell_angle_alpha                 94.110616
_cell_angle_beta                  77.465723
_cell_angle_gamma                 103.147943
_cell_volume                      824.875090274

loop_
_atom_site_label
_atom_site_type_symbol
_atom_type_description
_atom_site_fract_x
_atom_site_fract_y
_atom_site_fract_z
_atom_type_partial_charge
C1    C     C_R   0.545325 0.800235 0.503086 0.545722
C2    C     C_R   0.338165 0.483148 0.805908 -0.020709
C3    C     C_2   0.570887 0.968123 0.504624 -0.159387
C4    C     C_R   0.399617 0.496957 0.694423 0.537705
C5    C     C_2   0.429011 0.031878 0.495560 -0.158730
C6    C     C_R   0.454622 0.199768 0.497010 0.553502
C7    C     C_R   0.601369 0.509754 0.305991 0.545190
C8    C     C_R   0.891734 0.628440 0.046796 -0.130750
C9    C     C_R   0.661463 0.523608 0.195274 -0.017324
C10   C     C_R   0.156128 0.396615 0.844774 -0.164344
C11   C     C_R   0.112995 0.332809 0.940692 -0.120587
C12   C     C_R   0.427019 0.463898 0.969683 0.048716
C13   C     C_R   0.250240 0.353819 0.000108 0.141111
C14   C     C_3   0.308672 0.119648 0.061873 -0.308689
C15   C     C_R   0.469436 0.528960 0.871049 -0.002657
C16   C     C_R   0.565634 0.509324 0.031581 0.026359
C17   C     C_R   0.749932 0.595645 0.989305 0.040038
C18   C     C_R   0.786398 0.659199 0.893326 -0.144150
C19   C     C_R   0.644156 0.635797 0.838573 -0.124087
C20   C     C_R   0.522654 0.484394 0.136418 -0.122236
C21   C     C_R   0.848511 0.589008 0.149073 -0.141097
Cu1   Cu    Cu3+1 0.321300 0.483160 0.488710 0.948717
Cu2   Cu    Cu3+1 0.678700 0.516840 0.511290 0.945760
H1    H     H_    0.957764 0.620112 0.193352 0.133382
H2    H     H_    0.673930 0.702871 0.770078 0.138750
H3    H     H_    0.707594 0.039593 0.513195 0.133200
H4    H     H_    0.073621 0.215024 0.117008 0.248603
H5    H     H_    0.281732 0.050693 0.131969 0.144181
H6    H     H_    0.463826 0.163029 0.037110 0.161023
H7    H     H_    0.253727 0.040552 0.001447 0.139580
H8    H     H_    0.292299 0.960404 0.486998 0.132323
H9    H     H_    0.011008 0.617525 0.579335 0.236369
H10   H     H_    0.988930 0.382418 0.420716 0.239639
H11   H     H_    0.922343 0.734732 0.862801 0.105061
H12   H     H_    0.034110 0.690124 0.013688 0.110439
H13   H     H_    0.377969 0.446426 0.175273 0.179105
H14   H     H_    0.052038 0.364588 0.797304 0.144017
H15   H     H_    0.976551 0.254178 0.965076 0.116771
N1    N     N_2   0.947230 0.542220 0.528320 -0.258364
N2    N     N_2   0.052770 0.457780 0.471680 -0.256557
N3    N     N_2   0.214605 0.250679 0.083140 -0.544542
O1    O     O_R   0.383920 0.714220 0.492660 -0.504298
O2    O     O_R   0.685730 0.742660 0.511730 -0.503123
O3    O     O_R   0.275440 0.478800 0.636790 -0.506143
O4    O     O_R   0.577250 0.507240 0.655860 -0.500946
O5    O     O_R   0.314270 0.257340 0.488270 -0.495432
O6    O     O_R   0.616080 0.285780 0.507340 -0.501416
O7    O     O_R   0.422750 0.492760 0.344140 -0.505707
O8    O     O_R   0.724560 0.521200 0.363210 -0.503988

loop_
_geom_bond_atom_site_label_1
_geom_bond_atom_site_label_2
_ccdc_geom_bond_type
C11   H15   S    
C2    C4    S    
C14   H5    S    
Cu2   O4    S    
C18   H11   S    
H4    N3    S    
C9    C20   A    
Cu1   O7    S    
C8    C17   A    
C12   C15   A    
C16   C20   A    
Cu1   N2    S    
C7    O7    A    
C13   N3    S    
C8    C21   A    
C15   C19   A    
C2    C15   A    
C11   C13   A    
C9    C21   A    
Cu1   O1    S    
C14   H7    S    
C10   H14   S    
Cu2   N1    S    
Cu1   O5    S    
C17   C18   A    
C4    O4    A    
C14   N3    S    
C6    O5    A    
C5    C6    S    
C19   H2    S    
Cu2   O8    S    
H10   N2    S    
Cu2   O6    S    
C10   C11   A    
C14   H6    S    
C20   H13   S    
C3    C5    D    
C1    O1    A    
Cu2   O2    S    
C12   C13   A    
C7    O8    A    
C7    C9    S    
C18   C19   A    
C6    O6    A    
C21   H1    S    
N1    N2    D    
H9    N1    S    
Cu1   Cu2   S    
C4    O3    A    
C5    H8    S    
C1    O2    A    
C3    H3    S    
Cu1   O3    S    
C12   C16   A    
C16   C17   A    
C1    C3    S    
C8    H12   S    
C2    C10   A    
