data_mof_unit_7868.cif
_audit_creation_date              2013-03-05T15:50:19-0500
_audit_creation_method            fapswitch 2.2
_symmetry_space_group_name_H-M    P1
_symmetry_Int_Tables_number       1
_space_group_crystal_system       triclinic
_cell_length_a                    18.310401
_cell_length_b                    26.080622
_cell_length_c                    18.228085
_cell_angle_alpha                 89.969045
_cell_angle_beta                  90.297488
_cell_angle_gamma                 90.121532
_cell_volume                      8704.62274173

loop_
_atom_site_label
_atom_site_type_symbol
_atom_site_description
_atom_site_fract_x
_atom_site_fract_y
_atom_site_fract_z
_atom_type_partial_charge
Zn1   Zn    Zn3+2 0.249990 0.293780 0.913250 1.144840
Zn2   Zn    Zn3+2 0.249990 0.706220 0.086750 1.154003
Zn3   Zn    Zn3+2 0.249990 0.706220 0.913250 1.153912
Zn4   Zn    Zn3+2 0.249990 0.293780 0.086750 1.133837
Zn5   Zn    Zn3+2 0.749990 0.793780 0.413250 1.147825
Zn6   Zn    Zn3+2 0.749990 0.206220 0.586750 1.146487
Zn7   Zn    Zn3+2 0.749990 0.206220 0.413250 1.138189
Zn8   Zn    Zn3+2 0.749990 0.793780 0.586750 1.153545
Zn9   Zn    Zn3+2 0.336760 0.206240 0.000000 1.015858
Zn10  Zn    Zn3+2 0.336760 0.793760 0.000000 1.045350
Zn11  Zn    Zn3+2 0.836760 0.706240 0.500000 1.048402
Zn12  Zn    Zn3+2 0.836760 0.293760 0.500000 1.050485
Zn13  Zn    Zn3+2 0.163250 0.206230 0.000000 1.038885
Zn14  Zn    Zn3+2 0.163250 0.793770 0.000000 1.049754
Zn15  Zn    Zn3+2 0.663250 0.706230 0.500000 1.055901
Zn16  Zn    Zn3+2 0.663250 0.293770 0.500000 1.036742
O1    O     O_3   0.249990 0.250010 0.000000 -0.529108
O2    O     O_3   0.249990 0.749990 0.000000 -0.524564
O3    O     O_3   0.749990 0.750010 0.500000 -0.524812
O4    O     O_3   0.749990 0.249990 0.500000 -0.526672
O5    O     O_R   0.335430 0.280650 0.146160 -0.600316
O6    O     O_R   0.335430 0.719350 0.853840 -0.584625
O7    O     O_R   0.335430 0.719350 0.146160 -0.589911
O8    O     O_R   0.335430 0.280650 0.853840 -0.583030
O9    O     O_R   0.835430 0.780650 0.646160 -0.585700
O10   O     O_R   0.835430 0.219350 0.353840 -0.602295
O11   O     O_R   0.835430 0.219350 0.646160 -0.604994
O12   O     O_R   0.835430 0.780650 0.353840 -0.594719
O13   O     O_R   0.164550 0.280640 0.853840 -0.575573
O14   O     O_R   0.164550 0.719360 0.146160 -0.604932
O15   O     O_R   0.164550 0.719360 0.853840 -0.595792
O16   O     O_R   0.164550 0.280640 0.146160 -0.577202
O17   O     O_R   0.664550 0.780640 0.353840 -0.607923
O18   O     O_R   0.664550 0.219360 0.646160 -0.607255
O19   O     O_R   0.664550 0.219360 0.353840 -0.596739
O20   O     O_R   0.664550 0.780640 0.646160 -0.599566
O21   O     O_R   0.396160 0.219380 0.914560 -0.645422
O22   O     O_R   0.396160 0.780620 0.085440 -0.645140
O23   O     O_R   0.396160 0.780620 0.914560 -0.631214
O24   O     O_R   0.396160 0.219380 0.085440 -0.647042
O25   O     O_R   0.896160 0.719380 0.414560 -0.639159
O26   O     O_R   0.896160 0.280620 0.585440 -0.611643
O27   O     O_R   0.896160 0.280620 0.414560 -0.637683
O28   O     O_R   0.896160 0.719380 0.585440 -0.630353
O29   O     O_R   0.103840 0.219370 0.085450 -0.623748
O30   O     O_R   0.103840 0.780630 0.914550 -0.605282
O31   O     O_R   0.103840 0.780630 0.085450 -0.621352
O32   O     O_R   0.103840 0.219370 0.914550 -0.629177
O33   O     O_R   0.603840 0.719370 0.585450 -0.600088
O34   O     O_R   0.603840 0.280630 0.414550 -0.619161
O35   O     O_R   0.603840 0.280630 0.585450 -0.627494
O36   O     O_R   0.603840 0.719370 0.414550 -0.617641
O37   O     O_R   0.310730 0.133160 0.000000 -0.622287
O38   O     O_R   0.310730 0.866840 0.000000 -0.622829
O39   O     O_R   0.810730 0.633160 0.500000 -0.618939
O40   O     O_R   0.810730 0.366840 0.500000 -0.622514
O41   O     O_R   0.249970 0.366860 0.060720 -0.574858
O42   O     O_R   0.249970 0.633140 0.939280 -0.557303
O43   O     O_R   0.249970 0.633140 0.060720 -0.550164
O44   O     O_R   0.249970 0.366860 0.939280 -0.549984
O45   O     O_R   0.749970 0.866860 0.560720 -0.559142
O46   O     O_R   0.749970 0.133140 0.439280 -0.562292
O47   O     O_R   0.749970 0.133140 0.560720 -0.556249
O48   O     O_R   0.749970 0.866860 0.439280 -0.558008
O49   O     O_R   0.189290 0.133150 0.000000 -0.648756
O50   O     O_R   0.189290 0.866850 0.000000 -0.647344
O51   O     O_R   0.689290 0.633150 0.500000 -0.645335
O52   O     O_R   0.689290 0.366850 0.500000 -0.652244
C1    C     C_R   0.387767 0.248985 0.142479 0.798685
C2    C     C_R   0.390111 0.750109 0.860172 0.874757
C3    C     C_R   0.394813 0.745182 0.134226 0.907251
C4    C     C_R   0.394698 0.254862 0.865597 0.883745
C5    C     C_R   0.889823 0.749720 0.639971 0.869411
C6    C     C_R   0.894559 0.244530 0.365955 0.884212
C7    C     C_R   0.889418 0.250092 0.640265 0.871132
C8    C     C_R   0.894652 0.754756 0.365505 0.909048
C9    C     C_R   0.110886 0.249455 0.859367 0.903709
C10   C     C_R   0.109913 0.750168 0.141317 0.903747
C11   C     C_R   0.110709 0.750517 0.859725 0.904193
C12   C     C_R   0.110614 0.249028 0.141978 0.900816
C13   C     C_R   0.609891 0.749864 0.358853 0.909158
C14   C     C_R   0.609804 0.249951 0.641221 0.891376
C15   C     C_R   0.609884 0.249593 0.360330 0.901256
C16   C     C_R   0.610565 0.749420 0.640357 0.905843
C17   C     C_R   0.249642 0.108965 0.991992 0.862082
C18   C     C_R   0.249591 0.891160 0.007165 0.864411
C19   C     C_R   0.749869 0.608837 0.492959 0.869103
C20   C     C_R   0.749428 0.391116 0.506973 0.856865
C21   C     C_R   0.248431 0.391326 0.999303 1.000549
C22   C     C_R   0.248314 0.608644 0.999814 1.045131
C23   C     C_R   0.752291 0.891303 0.500352 1.051275
C24   C     C_R   0.751011 0.108645 0.500574 1.042912
C25   C     C_3   0.193177 0.469147 0.060533 0.545668
C26   C     C_3   0.227361 0.530859 0.917300 0.555240
C27   C     C_3   0.187270 0.529650 0.056027 0.513401
C28   C     C_3   0.218701 0.470357 0.918209 0.539481
C29   C     C_3   0.758820 0.969477 0.584441 0.523536
C30   C     C_3   0.674659 0.029730 0.473825 0.513303
C31   C     C_3   0.769631 0.029617 0.583152 0.566493
C32   C     C_3   0.681116 0.969839 0.461954 0.553490
H1    H     H_    0.107473 0.917371 0.060278 0.178551
H2    H     H_    0.111810 0.083055 0.930461 0.176111
H3    H     H_    0.604299 0.417065 0.553781 0.182236
H4    H     H_    0.614670 0.583458 0.427304 0.177363
H5    H     H_    0.348719 0.452422 0.059708 0.255384
H6    H     H_    0.365638 0.547348 0.990236 0.282217
H7    H     H_    0.331863 0.537935 0.079980 0.290137
H8    H     H_    0.358767 0.461478 0.963859 0.288451
H9    H     H_    0.870855 0.962832 0.491259 0.286753
H10   H     H_    0.796092 0.037665 0.392500 0.296075
H11   H     H_    0.864225 0.048594 0.460188 0.289358
H12   H     H_    0.825840 0.953100 0.406342 0.295487
C33   C     C_3   0.322732 0.470535 0.010907 -0.473877
C34   C     C_3   0.320500 0.529165 0.021518 -0.411886
C35   C     C_3   0.819415 0.971067 0.460899 -0.424530
C36   C     C_3   0.810682 0.029644 0.450628 -0.418003
C37   C     C_3   0.244533 0.448985 0.996821 -0.349886
C38   C     C_3   0.244523 0.550886 0.998431 -0.371209
C39   C     C_3   0.752054 0.949017 0.502435 -0.376272
C40   C     C_3   0.750357 0.050897 0.502937 -0.376171
H13   H     H_    0.204066 0.162613 0.636949 0.211073
H14   H     H_    0.061226 0.933383 0.195844 0.195241
H15   H     H_    0.135652 0.907517 0.708632 0.216676
H16   H     H_    0.982013 0.084935 0.123091 0.186900
H17   H     H_    0.576928 0.566842 0.288975 0.193250
H18   H     H_    0.552344 0.432003 0.685125 0.190238
H19   H     H_    0.532747 0.422863 0.307732 0.196713
H20   H     H_    0.647251 0.599162 0.804062 0.220218
C41   C     C_R   0.972869 0.303037 0.883816 0.244776
C42   C     C_R   0.087466 0.668023 0.253167 0.317735
C43   C     C_R   0.999527 0.669856 0.855828 0.246296
C44   C     C_R   0.096762 0.326020 0.267035 0.324677
C45   C     C_R   0.584635 0.833660 0.252121 0.318984
C46   C     C_R   0.592062 0.169058 0.757095 0.314479
C47   C     C_R   0.513031 0.156943 0.343246 0.266936
C48   C     C_R   0.493999 0.826161 0.639737 0.240797
C49   C     C_R   0.901317 0.319413 0.899206 0.366405
C50   C     C_R   0.113574 0.644078 0.317353 0.327359
C51   C     C_R   0.956373 0.625991 0.842699 0.391489
C52   C     C_R   0.116994 0.348630 0.334257 0.356381
C53   C     C_R   0.611491 0.858777 0.189591 0.330508
C54   C     C_R   0.618974 0.147408 0.822631 0.324064
C55   C     C_R   0.476080 0.111374 0.323259 0.397234
C56   C     C_R   0.449408 0.869414 0.650741 0.384595
C57   C     C_R   0.591089 0.840721 0.119939 0.306366
C58   C     C_R   0.597151 0.168053 0.890028 0.319962
C59   C     C_R   0.438328 0.108580 0.256532 0.322561
C60   C     C_R   0.409791 0.874313 0.715232 0.343176
C61   C     C_R   0.845389 0.310643 0.848828 0.358868
C62   C     C_R   0.093648 0.663984 0.385852 0.308256
C63   C     C_R   0.914944 0.622333 0.778752 0.336263
C64   C     C_R   0.095112 0.325578 0.399910 0.306565
C65   C     C_R   0.538799 0.801894 0.114486 -0.225759
C66   C     C_R   0.542173 0.204852 0.890966 -0.214226
C67   C     C_R   0.429357 0.152414 0.214247 -0.278693
C68   C     C_R   0.409987 0.834792 0.766042 -0.294005
C69   C     C_R   0.860801 0.287905 0.781937 -0.280482
C70   C     C_R   0.040718 0.702224 0.388863 -0.219425
C71   C     C_R   0.912613 0.663263 0.730329 -0.294374
C72   C     C_R   0.044180 0.285905 0.397487 -0.229421
C73   C     C_R   0.515545 0.775647 0.178019 -0.026909
C74   C     C_R   0.517788 0.227239 0.824869 -0.016273
C75   C     C_R   0.461123 0.199357 0.235722 -0.007056
C76   C     C_R   0.453817 0.790567 0.756983 -0.028077
C77   C     C_R   0.931609 0.269566 0.764975 -0.029547
C78   C     C_R   0.016904 0.726420 0.323843 -0.027308
C79   C     C_R   0.955444 0.707974 0.741167 -0.027183
C80   C     C_R   0.022209 0.264930 0.329637 -0.029440
C81   C     C_R   0.987775 0.274089 0.817873 -0.067446
C82   C     C_R   0.053538 0.716110 0.258551 -0.087484
C83   C     C_R   0.004153 0.709915 0.801186 -0.069830
C84   C     C_R   0.061069 0.277854 0.266170 -0.087758
C85   C     C_R   0.551388 0.785330 0.244192 -0.089492
C86   C     C_R   0.555195 0.216388 0.760008 -0.081554
C87   C     C_R   0.511044 0.200454 0.295353 -0.072313
C88   C     C_R   0.501656 0.788048 0.696735 -0.067091
C89   C     C_R   0.463259 0.736200 0.176709 -0.065312
C90   C     C_R   0.462650 0.264404 0.822730 -0.066630
C91   C     C_R   0.435651 0.246482 0.207405 -0.030897
C92   C     C_R   0.449470 0.749120 0.807054 -0.035357
C93   C     C_R   0.946389 0.247425 0.695603 -0.022946
C94   C     C_R   0.962739 0.764267 0.322841 -0.062831
C95   C     C_R   0.949190 0.750559 0.693188 -0.032284
C96   C     C_R   0.961056 0.232756 0.322374 -0.046067
C97   C     C_R   0.482107 0.690379 0.215068 -0.057887
C98   C     C_R   0.477580 0.308990 0.780373 -0.061422
C99   C     C_R   0.454160 0.291996 0.246040 -0.087227
C100  C     C_R   0.501371 0.708312 0.806441 -0.058085
C101  C     C_R   0.014369 0.223618 0.679454 -0.043529
C102  C     C_R   0.978905 0.809318 0.281770 -0.054309
C103  C     C_R   0.999088 0.792579 0.695980 -0.064006
C104  C     C_R   0.962969 0.194099 0.267366 -0.053701
C105  C     C_R   0.069860 0.223967 0.734803 -0.022234
C106  C     C_R   0.034159 0.805688 0.226502 0.000360
C107  C     C_R   0.054157 0.792462 0.751763 -0.025734
C108  C     C_R   0.018836 0.196528 0.213645 -0.023123
C109  C     C_R   0.538111 0.694180 0.270142 0.002473
C110  C     C_R   0.532254 0.305081 0.724645 0.003477
C111  C     C_R   0.523506 0.293801 0.278201 -0.040886
C112  C     C_R   0.556411 0.708584 0.750855 -0.022472
C113  C     C_R   0.055637 0.249552 0.802856 -0.058478
C114  C     C_R   0.061389 0.756294 0.206315 -0.087484
C115  C     C_R   0.055054 0.751292 0.803816 -0.053740
C116  C     C_R   0.061335 0.242303 0.206398 -0.084349
C117  C     C_R   0.561551 0.743884 0.293799 -0.086581
C118  C     C_R   0.561320 0.255885 0.706253 -0.083633
C119  C     C_R   0.550718 0.247185 0.307356 -0.056437
C120  C     C_R   0.554860 0.748223 0.696286 -0.055581
C121  C     C_R   0.459781 0.640613 0.190977 0.365453
C122  C     C_R   0.452615 0.358731 0.800985 0.366090
C123  C     C_R   0.405486 0.332828 0.262865 0.379437
C124  C     C_R   0.502672 0.668261 0.861197 0.313745
C125  C     C_R   0.028639 0.197995 0.610685 0.300731
C126  C     C_R   0.954727 0.858931 0.303627 0.355351
C127  C     C_R   0.998181 0.833925 0.643316 0.322889
C128  C     C_R   0.916088 0.150531 0.267036 0.367569
C129  C     C_R   0.490392 0.596576 0.223084 0.205853
C130  C     C_R   0.474385 0.401898 0.760082 0.231015
C131  C     C_R   0.434434 0.379798 0.287657 0.166453
C132  C     C_R   0.554082 0.628788 0.857342 0.205098
C133  C     C_R   0.098791 0.179940 0.595192 0.196604
C134  C     C_R   0.979749 0.902777 0.266556 0.203434
C135  C     C_R   0.044730 0.876088 0.652093 0.221047
C136  C     C_R   0.914269 0.118349 0.205601 0.169547
C137  C     C_R   0.151715 0.179846 0.649127 -0.196996
C138  C     C_R   0.035358 0.898702 0.215687 -0.264506
C139  C     C_R   0.097807 0.875592 0.705816 -0.227911
C140  C     C_R   0.974988 0.116867 0.160303 -0.254045
C141  C     C_R   0.547653 0.601068 0.272656 -0.271423
C142  C     C_R   0.528633 0.397457 0.707944 -0.286197
C143  C     C_R   0.509901 0.385724 0.294120 -0.263124
C144  C     C_R   0.606817 0.629421 0.803895 -0.221250
C145  C     C_R   0.137546 0.198177 0.719247 0.085445
C146  C     C_R   0.067717 0.851634 0.202094 0.111060
C147  C     C_R   0.106395 0.833915 0.752526 0.094291
C148  C     C_R   0.031641 0.151715 0.171678 0.179952
C149  C     C_R   0.575908 0.648875 0.290771 0.101496
C150  C     C_R   0.563374 0.351017 0.697384 0.137689
C151  C     C_R   0.555372 0.342885 0.290290 0.147680
C152  C     C_R   0.610996 0.668796 0.752749 0.090392
H21   H     H_    0.521971 0.789385 0.060364 0.228138
H22   H     H_    0.523498 0.218931 0.943470 0.217554
H23   H     H_    0.391995 0.149722 0.168432 0.209682
H24   H     H_    0.375881 0.840012 0.813496 0.204201
H25   H     H_    0.815600 0.284263 0.743948 0.190674
H26   H     H_    0.023256 0.715763 0.442084 0.227827
H27   H     H_    0.877220 0.658736 0.683323 0.205440
H28   H     H_    0.023070 0.270880 0.448563 0.230909
H29   H     H_    0.996479 0.042043 0.960199 0.175484
H30   H     H_    0.994609 0.959701 0.027304 0.174543
H31   H     H_    0.498789 0.541084 0.446904 0.176278
H32   H     H_    0.493569 0.458253 0.512511 0.175608
C153  C     C_R   0.380314 0.040866 0.953607 0.138890
C154  C     C_R   0.377555 0.960333 0.055918 0.151164
C155  C     C_R   0.882353 0.539265 0.457233 0.126662
C156  C     C_R   0.876360 0.457459 0.557278 0.146433
C157  C     C_R   0.445734 0.018895 0.979086 0.096803
C158  C     C_R   0.443611 0.985223 0.038871 0.121905
C159  C     C_R   0.946888 0.513727 0.479210 0.100013
C160  C     C_R   0.944301 0.477829 0.536645 0.107963
C161  C     C_R   0.312796 0.976162 0.019456 -0.044451
C162  C     C_R   0.313576 0.024189 0.984350 -0.039728
C163  C     C_R   0.812186 0.475701 0.522456 -0.050268
C164  C     C_R   0.814721 0.523880 0.488016 -0.039990
C165  C     C_R   0.247105 0.947744 0.019031 -0.124111
C166  C     C_R   0.247914 0.052370 0.980034 -0.127229
C167  C     C_R   0.746386 0.447569 0.519339 -0.123966
C168  C     C_R   0.748963 0.552226 0.481467 -0.124015
C169  C     C_R   0.179839 0.974506 0.010547 0.095170
C170  C     C_R   0.180552 0.025575 0.984419 0.084362
C171  C     C_R   0.679459 0.474334 0.508253 0.092453
C172  C     C_R   0.681351 0.525490 0.482799 0.082671
C173  C     C_R   0.111574 0.952625 0.029692 -0.112402
C174  C     C_R   0.113625 0.047829 0.961664 -0.100009
C175  C     C_R   0.610225 0.452192 0.523251 -0.121336
C176  C     C_R   0.615447 0.547752 0.457017 -0.122078
C177  C     C_R   0.046197 0.977292 0.012918 -0.129734
C178  C     C_R   0.047229 0.023932 0.976319 -0.120434
C179  C     C_R   0.545766 0.476318 0.501977 -0.132057
C180  C     C_R   0.548593 0.523191 0.466267 -0.121453
Cl1   Cl    Cl    0.229501 0.448393 0.149327 -0.346909
Cl2   Cl    Cl    0.301045 0.551589 0.857449 -0.425287
Cl3   Cl    Cl    0.202790 0.556625 0.146055 -0.323927
Cl4   Cl    Cl    0.268159 0.442748 0.842037 -0.380768
Cl5   Cl    Cl    0.834033 0.939477 0.633505 -0.416562
Cl6   Cl    Cl    0.647733 0.061405 0.389459 -0.393253
Cl7   Cl    Cl    0.862352 0.049468 0.605446 -0.438390
Cl8   Cl    Cl    0.688292 0.954776 0.365321 -0.358716
Cl9   Cl    Cl    0.410032 0.630559 0.109520 -0.561505
Cl10  Cl    Cl    0.415628 0.370606 0.888577 -0.595195
Cl11  Cl    Cl    0.312121 0.320520 0.280855 -0.480145
Cl12  Cl    Cl    0.446726 0.665890 0.939953 -0.565292
Cl13  Cl    Cl    0.961429 0.181178 0.544207 -0.577177
Cl14  Cl    Cl    0.913040 0.869554 0.388918 -0.571675
Cl15  Cl    Cl    0.947684 0.833871 0.560278 -0.552638
Cl16  Cl    Cl    0.887975 0.122149 0.349760 -0.556707
I1    I     I_    0.128332 0.147887 0.491904 -0.094103
I2    I     I_    0.953561 0.978313 0.300254 -0.165381
I3    I     I_    0.043033 0.941314 0.581519 -0.026862
I4    I     I_    0.828044 0.065234 0.188106 -0.051047
I5    I     I_    0.468701 0.521464 0.183294 -0.207027
I6    I     I_    0.446810 0.478168 0.787400 -0.071969
I7    I     I_    0.367249 0.440899 0.323926 -0.020597
I8    I     I_    0.559853 0.567492 0.934714 -0.071787
I9    I     I_    0.224031 0.176060 0.792082 -0.285951
I10   I     I_    0.182623 0.858002 0.187254 -0.294793
I11   I     I_    0.207367 0.841565 0.811530 -0.294517
I12   I     I_    0.138144 0.119531 0.165531 -0.255812
I13   I     I_    0.690979 0.646847 0.310267 -0.312552
I14   I     I_    0.677844 0.360289 0.683670 -0.287340
I15   I     I_    0.669911 0.357548 0.294827 -0.255809
I16   I     I_    0.708997 0.659960 0.690203 -0.297922
I17   I     I_    0.380947 0.087903 0.857565 -0.141963
I18   I     I_    0.374105 0.909306 0.147751 -0.122797
I19   I     I_    0.884631 0.588296 0.362842 -0.167580
I20   I     I_    0.869562 0.408591 0.651327 -0.142951
I21   I     I_    0.546366 0.030280 0.924189 0.025967
I22   I     I_    0.537315 0.979525 0.107507 0.035629
I23   I     I_    0.046287 0.523010 0.421120 0.046399
I24   I     I_    0.042615 0.454305 0.590869 0.039945
Cl17  Cl    Cl    0.104653 0.439023 0.057958 -0.272250
Cl18  Cl    Cl    0.149497 0.561866 0.874779 -0.362282
Cl19  Cl    Cl    0.096814 0.551808 0.033655 -0.279576
Cl20  Cl    Cl    0.127314 0.449439 0.895818 -0.321625
Cl21  Cl    Cl    0.679875 0.949546 0.637168 -0.346821
Cl22  Cl    Cl    0.602241 0.046782 0.535427 -0.272961
Cl23  Cl    Cl    0.720720 0.057750 0.658016 -0.280974
Cl24  Cl    Cl    0.599408 0.936159 0.488055 -0.279556
Cl25  Cl    Cl    0.040593 0.324947 0.946669 -0.453510
Cl26  Cl    Cl    0.073828 0.632378 0.172710 -0.359886
Cl27  Cl    Cl    0.038458 0.673974 0.945126 -0.479645
Cl28  Cl    Cl    0.088876 0.366286 0.190764 -0.347970
Cl29  Cl    Cl    0.573410 0.867291 0.334662 -0.347669
Cl30  Cl    Cl    0.583192 0.130794 0.678125 -0.352054
Cl31  Cl    Cl    0.544791 0.161467 0.435064 -0.474770
Cl32  Cl    Cl    0.530271 0.819583 0.550139 -0.473885
Cl33  Cl    Cl    0.881047 0.351906 0.981896 -0.320204
Cl34  Cl    Cl    0.173840 0.591882 0.312264 -0.316790
Cl35  Cl    Cl    0.952405 0.575341 0.907109 -0.254131
Cl36  Cl    Cl    0.165071 0.407259 0.336222 -0.293813
Cl37  Cl    Cl    0.675039 0.909070 0.198597 -0.348428
Cl38  Cl    Cl    0.682066 0.096763 0.820643 -0.327020
Cl39  Cl    Cl    0.469657 0.059105 0.384686 -0.247787
Cl40  Cl    Cl    0.441071 0.917596 0.582992 -0.256772
Cl41  Cl    Cl    0.628539 0.866223 0.038998 -0.453557
Cl42  Cl    Cl    0.635892 0.148070 0.973852 -0.451728
Cl43  Cl    Cl    0.392565 0.052237 0.229080 -0.463134
Cl44  Cl    Cl    0.356386 0.929051 0.732831 -0.455280
Cl45  Cl    Cl    0.754818 0.329054 0.867413 -0.447864
Cl46  Cl    Cl    0.132348 0.641570 0.468372 -0.451078
Cl47  Cl    Cl    0.862463 0.567288 0.758814 -0.455475
Cl48  Cl    Cl    0.124658 0.348625 0.485613 -0.459966

loop_
_geom_bond_atom_site_label_1
_geom_bond_atom_site_label_2
_geom_bond_distance
_ccdc_geom_bond_type
H10   C36   1.111236 S    
C110  C118  1.430779 A    
C170  C174  1.417099 A    
C87   C119  1.433844 A    
C49   C61   1.390594 A    
C151  I15   2.132218 S    
C152  I16   2.143874 S    
C163  C167  1.410220 A    
C43   C83   1.445752 A    
O26   C7    1.283692 A    
C28   Cl4   1.811988 S    
C61   Cl45  1.762101 S    
O30   C11   1.278230 A    
C107  C115  1.432582 A    
C171  C172  1.412734 A    
C133  C137  1.376867 A    
C105  C113  1.434173 A    
C53   Cl37  1.758734 S    
C48   Cl32  1.774798 S    
C54   C58   1.401986 A    
H31   C180  1.082699 S    
Zn12  O26   1.925960 S    
C126  C134  1.405133 A    
C147  I11   2.143080 S    
C109  C149  1.420161 A    
C127  Cl15  1.769580 S    
C176  C180  1.391391 A    
C154  C161  1.418394 A    
C49   Cl33  1.770959 S    
C128  Cl16  1.758391 S    
C108  C116  1.430100 A    
C59   C67   1.388004 A    
C52   C64   1.399046 A    
C124  Cl12  1.768893 S    
C53   C57   1.402943 A    
C19   C168  1.491397 S    
C26   Cl2   1.820541 S    
C112  C120  1.434454 A    
C106  C146  1.417947 A    
O11   C7    1.276416 A    
C136  C140  1.388914 A    
O34   C15   1.283215 A    
C72   H28   1.082793 S    
C64   Cl48  1.756510 S    
C77   C81   1.410892 A    
H30   C177  1.082630 S    
Zn1   O44   1.964393 S    
Zn2   O43   1.964390 S    
C79   C83   1.408779 A    
C124  C132  1.398492 A    
Zn5   O48   1.964393 S    
C65   C73   1.412109 A    
H8    C33   1.110570 S    
C128  C136  1.400055 A    
Zn7   O46   1.963894 S    
H15   C139  1.083191 S    
O16   C12   1.287136 A    
C43   Cl27  1.776794 S    
C58   C66   1.392500 A    
Zn16  O4    1.958044 S    
Zn12  O4    1.954408 S    
Zn1   O13   1.928260 S    
H2    C174  1.080738 S    
C26   C28   1.585631 S    
Zn4   O16   1.937156 S    
C99   C123  1.424657 A    
C27   Cl3   1.806717 S    
C97   C121  1.428658 A    
C141  C149  1.388250 A    
C42   C50   1.407871 A    
C29   Cl21  1.815000 S    
C57   Cl41  1.759801 S    
C31   Cl23  1.794204 S    
C46   C86   1.409326 A    
C27   C38   1.586272 S    
C145  I9    2.141096 S    
C157  I21   2.121600 S    
C30   C40   1.580168 S    
C159  I23   2.123722 S    
Zn10  O22   1.925960 S    
C121  C129  1.405132 A    
C88   C120  1.425604 A    
O25   C8    1.284730 A    
Zn13  O29   1.935621 S    
C100  C124  1.444509 A    
Zn10  O2    1.954408 S    
C71   C79   1.417248 A    
O29   C12   1.294039 A    
C72   C80   1.409025 A    
C82   C114  1.423129 A    
C90   C98   1.422295 A    
C41   C49   1.408512 A    
C47   Cl31  1.772869 S    
C86   C118  1.425943 A    
O37   C17   1.290761 A    
C94   C102  1.424239 A    
O48   C23   1.283608 A    
C97   C109  1.434625 A    
C45   C85   1.405832 A    
C25   Cl17  1.800178 S    
C106  C114  1.431317 A    
C48   C88   1.443994 A    
C65   H21   1.082315 S    
C78   C94   1.400812 A    
Zn16  O35   1.934506 S    
C4    C90   1.493039 S    
C75   C87   1.416841 A    
H13   C137  1.083635 S    
Zn15  O33   1.935621 S    
Zn7   O10   1.937112 S    
O33   C16   1.276820 A    
H5    C33   1.112190 S    
H32   C179  1.082687 S    
C63   Cl47  1.762827 S    
H17   C141  1.082906 S    
C161  C162  1.406342 A    
C5    C95   1.453313 S    
C135  C139  1.376174 A    
O40   C20   1.296740 A    
C6    C96   1.489882 S    
C30   Cl22  1.798737 S    
C35   C36   1.547578 S    
C157  C158  1.399854 A    
C15   C119  1.448760 S    
C68   H24   1.078344 S    
C156  I20   2.139627 S    
C59   Cl43  1.761560 S    
C168  C172  1.419885 A    
Zn5   O17   1.928260 S    
C110  C150  1.416438 A    
H4    C176  1.077124 S    
C47   C55   1.413317 A    
C25   C27   1.583942 S    
C177  C178  1.387152 A    
C25   C37   1.588579 S    
H19   C143  1.082697 S    
C46   Cl30  1.758636 S    
Zn8   O3    1.950781 S    
C28   C37   1.606542 S    
C29   C31   1.580690 S    
C69   C77   1.418556 A    
O38   C18   1.295074 A    
C67   C75   1.409104 A    
C26   Cl18  1.811116 S    
C135  I3    2.132403 S    
C36   C40   1.565437 S    
O5    C1    1.268435 A    
C63   C71   1.385368 A    
O32   C9    1.282249 A    
C29   C39   1.591608 S    
C16   C120  1.446123 S    
Zn15  O51   1.965686 S    
Zn11  O28   1.925438 S    
C32   C39   1.587195 S    
Zn12  O40   1.965645 S    
C62   Cl46  1.759588 S    
C101  C125  1.446105 A    
C33   C37   1.557231 S    
C21   C37   1.506268 S    
C78   C82   1.395746 A    
C35   C39   1.559307 S    
C150  I14   2.125418 S    
C75   C91   1.412023 A    
C23   C39   1.505719 S    
C156  C163  1.415730 A    
C14   C118  1.492980 S    
C54   Cl38  1.757133 S    
C130  I6    2.113673 S    
C51   Cl35  1.768478 S    
C17   C166  1.492396 S    
C66   C74   1.409476 A    
C131  C143  1.394504 A    
C9    C113  1.440021 S    
O50   C18   1.278202 A    
C111  C151  1.422524 A    
C123  C131  1.407539 A    
C32   Cl8   1.810423 S    
Zn1   O1    1.949782 S    
C138  C146  1.387188 A    
Zn13  O1    1.954111 S    
Zn2   O14   1.938536 S    
C125  C133  1.399266 A    
C24   C40   1.506739 S    
H3    C175  1.077226 S    
C26   C38   1.598095 S    
C154  C158  1.407551 A    
C156  C160  1.404686 A    
C51   C63   1.390638 A    
C122  Cl10  1.765356 S    
O9    C5    1.288417 A    
O39   C19   1.286989 A    
O36   C13   1.294377 A    
C103  C107  1.428296 A    
C74   C90   1.401435 A    
C43   C51   1.408867 A    
C153  C157  1.405622 A    
O13   C9    1.278562 A    
Zn1   O8    1.938491 S    
H20   C144  1.083244 S    
Zn2   O7    1.928216 S    
Zn3   O6    1.937112 S    
O18   C14   1.285252 A    
O31   C10   1.295727 A    
C69   H25   1.080414 S    
C146  I10   2.128795 S    
C158  I22   2.123631 S    
C67   H23   1.079034 S    
C109  C117  1.430698 A    
C129  I5    2.125216 S    
C66   H22   1.082608 S    
C95   C103  1.426075 A    
C163  C164  1.405113 A    
Zn14  O30   1.925690 S    
Zn15  O3    1.954111 S    
Zn11  O3    1.958341 S    
O41   C21   1.288507 A    
C22   C38   1.508040 S    
Zn16  O34   1.925690 S    
C91   C99   1.420059 A    
H14   C138  1.083011 S    
C28   Cl20  1.803751 S    
C89   C97   1.426337 A    
C153  I17   2.137225 S    
Zn8   O20   1.937156 S    
C84   C116  1.431085 A    
C165  C169  1.424647 A    
C130  C142  1.383344 A    
C92   C100  1.428428 A    
C103  C127  1.443403 A    
C93   C101  1.424370 A    
C179  C180  1.385642 A    
C96   C104  1.422921 A    
H11   C36   1.109991 S    
C76   C92   1.416748 A    
C169  C170  1.414313 A    
Zn8   O9    1.929187 S    
C107  C147  1.442004 A    
C105  C145  1.440906 A    
O7    C3    1.297180 A    
C111  C119  1.417003 A    
C167  C171  1.425048 A    
O19   C15   1.281537 A    
C108  C148  1.417801 A    
Zn9   O24   1.925438 S    
C132  I8    2.133684 S    
Zn6   O18   1.938536 S    
C99   C111  1.396510 A    
Zn10  O23   1.935371 S    
C175  C179  1.391942 A    
C112  C152  1.442553 A    
H7    C34   1.108582 S    
C161  C165  1.411488 A    
C46   C54   1.408212 A    
C73   C85   1.393137 A    
C42   Cl26  1.753313 S    
C172  C176  1.418064 A    
Zn15  O36   1.926212 S    
O15   C11   1.283879 A    
O42   C22   1.275188 A    
Zn4   O1    1.950781 S    
C30   C32   1.581789 S    
C98   C122  1.427551 A    
Zn9   O37   1.963683 S    
C58   Cl42  1.760350 S    
Zn11  O39   1.963683 S    
C148  I12   2.128218 S    
C33   C34   1.542054 S    
C149  I13   2.135690 S    
C62   C70   1.393444 A    
C121  Cl9   1.757434 S    
C29   Cl5   1.816493 S    
C155  I19   2.143699 S    
C20   C167  1.490803 S    
Zn5   O3    1.949782 S    
C31   Cl7   1.817944 S    
C44   C52   1.407659 A    
Zn6   O4    1.949781 S    
C45   C53   1.404884 A    
C169  C173  1.418157 A    
C137  C145  1.390742 A    
C48   C56   1.409012 A    
C1    C91   1.470712 S    
C2    C92   1.459648 S    
C12   C116  1.494623 S    
C42   C82   1.404465 A    
C76   C88   1.409954 A    
C83   C115  1.425062 A    
O28   C5    1.276752 A    
C173  C177  1.392694 A    
C81   C113  1.426736 A    
Zn3   O42   1.963894 S    
C80   C84   1.401930 A    
C155  C164  1.419254 A    
C104  C108  1.421048 A    
Zn7   O4    1.950782 S    
O21   C4    1.285530 A    
C100  C112  1.432802 A    
C98   C110  1.433726 A    
C85   C117  1.420805 A    
C60   C68   1.385358 A    
C18   C165  1.492448 S    
C61   C69   1.386732 A    
C153  C162  1.414587 A    
Zn6   O47   1.964390 S    
C64   C72   1.392035 A    
Zn2   O2    1.949781 S    
Zn14  O2    1.958044 S    
C56   C60   1.390620 A    
C41   Cl25  1.777584 S    
C25   Cl1   1.828789 S    
C131  I7    2.123141 S    
Zn13  O49   1.965686 S    
O44   C21   1.267349 A    
C50   C62   1.402816 A    
C55   C59   1.397744 A    
C133  I1    2.133149 S    
H6    C34   1.111777 S    
C41   C81   1.447273 A    
H18   C142  1.083087 S    
C171  C175  1.419735 A    
Zn12  O27   1.935371 S    
C44   Cl28  1.747421 S    
C134  C138  1.385013 A    
H29   C178  1.082526 S    
Zn3   O2    1.950782 S    
C143  C151  1.396795 A    
C56   Cl40  1.767650 S    
C129  C141  1.385382 A    
C31   C40   1.601587 S    
C79   C95   1.417731 A    
C80   C96   1.403585 A    
C126  Cl14  1.757883 S    
O47   C24   1.269442 A    
Zn16  O52   1.963724 S    
Zn8   O45   1.963894 S    
C57   C65   1.395369 A    
O27   C6    1.293159 A    
C134  I2    2.120495 S    
C60   Cl44  1.762622 S    
H1    C173  1.077713 S    
C8    C94   1.493040 S    
H16   C140  1.082685 S    
O8    C4    1.294804 A    
C155  C159  1.413708 A    
O24   C1    1.305313 A    
C132  C144  1.375291 A    
C154  I18   2.139026 S    
C52   Cl36  1.763059 S    
C166  C170  1.418939 A    
C102  C106  1.434775 A    
C27   Cl19  1.800094 S    
O46   C24   1.286783 A    
O43   C22   1.281389 A    
C47   C87   1.431776 A    
Zn4   O41   1.963894 S    
Zn3   O15   1.929232 S    
C101  C105  1.428167 A    
Zn5   O12   1.938491 S    
Zn6   O11   1.928216 S    
C164  C168  1.418695 A    
Zn9   O21   1.934256 S    
Zn14  O50   1.963724 S    
C102  C126  1.426117 A    
O35   C14   1.297669 A    
C71   H27   1.078003 S    
C34   C38   1.558978 S    
Zn9   O1    1.958341 S    
C11   C115  1.437616 S    
O52   C20   1.274714 A    
C142  C150  1.383276 A    
C159  C160  1.405037 A    
C7    C93   1.449090 S    
C13   C117  1.484136 S    
O22   C3    1.282532 A    
C174  C178  1.392053 A    
Zn7   O19   1.929232 S    
C50   Cl34  1.756994 S    
C10   C114  1.493463 S    
C127  C135  1.398577 A    
C162  C166  1.412304 A    
Zn13  O32   1.926212 S    
O49   C17   1.282607 A    
Zn14  O31   1.934506 S    
C74   C86   1.398790 A    
C139  C147  1.389055 A    
C160  I24   2.139974 S    
O51   C19   1.285894 A    
C122  C130  1.408024 A    
C77   C93   1.417988 A    
C3    C89   1.488706 S    
C125  Cl13  1.777086 S    
Zn4   O5    1.929187 S    
O17   C13   1.285203 A    
O20   C16   1.283302 A    
C32   Cl24  1.799344 S    
O10   C6    1.283316 A    
O23   C2    1.275790 A    
O6    C2    1.286401 A    
Zn11  O25   1.934256 S    
Zn10  O38   1.965645 S    
C140  C148  1.392504 A    
H9    C35   1.111232 S    
C44   C84   1.414869 A    
C45   Cl29  1.755198 S    
O14   C10   1.287109 A    
C70   C78   1.409969 A    
C30   Cl6   1.811881 S    
C68   C76   1.416743 A    
C55   Cl39  1.767740 S    
C136  I4    2.121143 S    
C144  C152  1.388870 A    
C70   H26   1.082636 S    
C73   C89   1.403992 A    
C104  C128  1.422623 A    
H12   C35   1.106492 S    
O45   C23   1.272263 A    
C123  Cl11  1.771028 S    
O12   C8    1.295257 A    
