data_mof_unit_35670.cif
_audit_creation_date              2012-12-11T14:38:23-0500
_audit_creation_method            fapswitch 2.2
_symmetry_space_group_name_H-M    P1
_symmetry_Int_Tables_number       1
_space_group_crystal_system       triclinic
_cell_length_a                    19.616902
_cell_length_b                    11.111801
_cell_length_c                    19.684784
_cell_angle_alpha                 89.675077
_cell_angle_beta                  96.593785
_cell_angle_gamma                 89.903396
_cell_volume                      4262.40824155

loop_
_atom_site_label
_atom_site_type_symbol
_atom_type_description
_atom_site_fract_x
_atom_site_fract_y
_atom_site_fract_z
_atom_type_partial_charge
C1    C     C_R   0.726080 0.950449 0.358974 0.544798
C2    C     C_3   0.183447 0.490996 0.466622 -0.200355
C3    C     C_3   0.136692 0.493715 0.582373 -0.273568
C4    C     C_3   0.147075 0.562859 0.650447 -0.291428
C5    C     C_3   0.105461 0.508110 0.703557 -0.413992
C6    C     C_3   0.385138 0.912447 0.429067 -0.240089
C7    C     C_3   0.409439 0.785164 0.452582 -0.283823
C8    C     C_3   0.485928 0.768391 0.446815 -0.462591
C9    C     C_3   0.636787 0.993967 0.582427 -0.273605
C10   C     C_3   0.647281 0.063137 0.650493 -0.291471
C11   C     C_3   0.605760 0.008439 0.703691 -0.414186
C12   C     C_3   0.581854 0.999720 0.907314 -0.257563
C13   C     C_3   0.326278 0.981736 0.531845 -0.189057
C14   C     C_3   0.541097 0.885102 0.919992 -0.293886
C15   C     C_3   0.575712 0.773477 0.894625 -0.436646
C16   C     C_3   0.456607 0.977784 0.081787 -0.259832
C17   C     C_3   0.393577 0.900664 0.059362 -0.325434
C18   C     C_3   0.399727 0.778219 0.095548 -0.422151
C19   C     C_3   0.081878 0.499770 0.907309 -0.257546
C20   C     C_3   0.041141 0.385123 0.919971 -0.293856
C21   C     C_3   0.075726 0.273548 0.894499 -0.436547
C22   C     C_3   0.956617 0.477747 0.081774 -0.259835
C23   C     C_3   0.893574 0.400647 0.059363 -0.325422
C24   C     C_3   0.683464 0.991038 0.466631 -0.200389
C25   C     C_3   0.899728 0.278188 0.095534 -0.422151
C26   C     C_3   0.761633 0.297708 0.554138 -0.259105
C27   C     C_3   0.229115 0.289635 0.445679 -0.266698
C28   C     C_3   0.261586 0.797674 0.554145 -0.259142
C29   C     C_3   0.729068 0.789636 0.445682 -0.266686
C30   C     C_3   0.763525 0.432126 0.565725 0.058313
C31   C     C_3   0.239502 0.422204 0.431555 0.060065
C32   C     C_3   0.263514 0.932091 0.565732 0.058306
C33   C     C_R   0.276236 0.957078 0.638642 0.539487
C34   C     C_3   0.739495 0.922196 0.431555 0.060062
C35   C     C_3   0.748138 0.394443 0.434396 0.074146
C36   C     C_3   0.253999 0.390778 0.563618 0.064198
C37   C     C_3   0.248133 0.894426 0.434400 0.074145
C38   C     C_3   0.754004 0.890766 0.563617 0.064198
C39   C     C_3   0.817638 0.461256 0.454332 -0.102477
C40   C     C_3   0.201954 0.494075 0.544654 -0.136437
C41   C     C_3   0.317638 0.961217 0.454343 -0.102494
C42   C     C_3   0.702014 0.994145 0.544658 -0.136456
C43   C     C_3   0.743304 0.277308 0.477334 -0.220720
C44   C     C_R   0.226082 0.450451 0.358974 0.544794
C45   C     C_3   0.228299 0.275981 0.522972 -0.223247
C46   C     C_3   0.243284 0.777288 0.477333 -0.220733
C47   C     C_3   0.728246 0.775996 0.522976 -0.223283
C48   C     C_3   0.498227 0.304051 0.960099 -0.256406
C49   C     C_3   0.522519 0.303508 0.034909 -0.257652
C50   C     C_3   0.998203 0.804050 0.960104 -0.256406
C51   C     C_3   0.022495 0.803506 0.034913 -0.257653
C52   C     C_3   0.439662 0.105379 0.969852 -0.194944
C53   C     C_3   0.585732 0.107331 0.025246 -0.213301
C54   C     C_3   0.939662 0.605359 0.969851 -0.194938
C55   C     C_R   0.776244 0.457098 0.638636 0.539497
C56   C     C_3   0.085730 0.607350 0.025248 -0.213297
C57   C     C_3   0.566322 0.115683 0.946672 -0.110768
C58   C     C_3   0.459211 0.105871 0.048276 -0.104950
C59   C     C_3   0.066324 0.615712 0.946675 -0.110775
C60   C     C_3   0.959209 0.605846 0.048276 -0.104952
C61   C     C_R   0.535573 0.180449 0.338117 0.543479
C62   C     C_R   0.440064 0.183702 0.652422 0.540794
C63   C     C_R   0.035574 0.680449 0.338118 0.543481
C64   C     C_R   0.940072 0.683701 0.652423 0.540795
C65   C     C_3   0.493544 0.173054 0.931825 0.057606
C66   C     C_3   0.688708 0.475459 0.453793 -0.263537
C67   C     C_3   0.530352 0.172272 0.063105 0.047528
C68   C     C_3   0.993538 0.673055 0.931827 0.057609
C69   C     C_3   0.030342 0.672270 0.063106 0.047535
C70   C     C_1   0.755389 0.409018 0.899595 -0.028322
C71   C     C_1   0.239839 0.423299 0.097023 -0.020902
C72   C     C_1   0.255389 0.909018 0.899595 -0.028319
C73   C     C_1   0.739837 0.923303 0.097021 -0.020905
C74   C     C_1   0.729934 0.355893 0.024609 -0.075578
C75   C     C_1   0.256834 0.396946 0.968069 -0.072975
C76   C     C_1   0.229933 0.855891 0.024609 -0.075578
C77   C     C_3   0.323860 0.427317 0.539426 -0.245447
C78   C     C_1   0.756831 0.896953 0.968067 -0.072975
C79   C     C_1   0.741103 0.381522 0.955903 -0.062632
C80   C     C_1   0.249731 0.408746 0.038302 -0.059495
C81   C     C_1   0.241103 0.881521 0.955903 -0.062630
C82   C     C_1   0.749729 0.908752 0.038300 -0.059510
C83   C     C_1   0.725357 0.336313 0.084580 -0.046110
C84   C     C_1   0.260178 0.383762 0.907750 -0.033198
C85   C     C_1   0.225357 0.836312 0.084580 -0.046103
C86   C     C_1   0.760175 0.883768 0.907748 -0.033168
C87   C     C_R   0.738936 0.360575 0.361837 0.548884
C88   C     C_3   0.188710 0.975458 0.453795 -0.263533
C89   C     C_R   0.261842 0.358726 0.637154 0.542676
C90   C     C_R   0.238934 0.860571 0.361839 0.548903
C91   C     C_R   0.761844 0.858721 0.637153 0.542714
C92   C     C_R   0.722363 0.953865 0.163576 0.533387
C93   C     C_R   0.277184 0.952180 0.836153 0.543532
C94   C     C_R   0.222364 0.453864 0.163577 0.533390
C95   C     C_R   0.777184 0.452180 0.836153 0.543540
C96   C     C_R   0.554905 0.181340 0.136272 0.532935
C97   C     C_R   0.468005 0.179199 0.858863 0.540812
C98   C     C_R   0.054897 0.681339 0.136272 0.532941
C99   C     C_3   0.823878 0.927184 0.539410 -0.245457
C100  C     C_R   0.968003 0.679199 0.858864 0.540791
C101  C     C_R   0.722086 0.310389 0.156186 0.549258
C102  C     C_R   0.265177 0.354595 0.837625 0.542086
C103  C     C_R   0.222086 0.810389 0.156186 0.549267
C104  C     C_R   0.765176 0.854597 0.837624 0.542077
C105  C     C_1   0.461958 0.178009 0.585583 -0.043213
C106  C     C_1   0.509289 0.174541 0.402901 -0.038415
C107  C     C_1   0.961973 0.678008 0.585588 -0.043206
C108  C     C_1   0.009299 0.674545 0.402905 -0.038418
C109  C     C_1   0.493114 0.174942 0.460059 -0.086717
C110  C     C_3   0.826274 0.481818 0.531832 -0.189066
C111  C     C_1   0.476720 0.176136 0.527910 -0.085528
C112  C     C_1   0.993129 0.674948 0.460065 -0.086722
C113  C     C_1   0.976737 0.676139 0.527916 -0.085522
C114  C     C_3   0.692662 0.482137 0.532233 -0.245196
C115  C     C_3   0.314454 0.452338 0.462104 -0.244165
C116  C     C_3   0.192665 0.982144 0.532234 -0.245189
C117  C     C_3   0.814457 0.952273 0.462095 -0.244180
C118  C     C_3   0.885139 0.412489 0.429058 -0.240096
C119  C     C_3   0.909462 0.285235 0.452599 -0.283813
C120  C     C_3   0.985898 0.268348 0.446570 -0.462391
Cr1   Cr    Cr6+3 0.765780 0.160710 0.267420 0.984378
Cr2   Cr    Cr6+3 0.383970 0.323720 0.751490 1.001884
Cr3   Cr    Cr6+3 0.116030 0.823720 0.248510 1.006033
Cr4   Cr    Cr6+3 0.883970 0.823720 0.751490 1.001860
Cr5   Cr    Cr6+3 0.234220 0.160710 0.732580 0.987158
Cr6   Cr    Cr6+3 0.265780 0.660710 0.267420 0.984357
Cr7   Cr    Cr6+3 0.734220 0.660710 0.732580 0.987163
Cr8   Cr    Cr6+3 0.612200 0.009560 0.248850 0.985642
Cr9   Cr    Cr6+3 0.387800 0.009560 0.751150 0.980835
Cr10  Cr    Cr6+3 0.112200 0.509560 0.248850 0.985639
Cr11  Cr    Cr6+3 0.887800 0.509560 0.751150 0.980788
Cr12  Cr    Cr6+3 0.616030 0.323720 0.248510 1.006035
H1    H     H_    0.679529 0.571377 0.549373 0.133521
H2    H     H_    0.133368 0.443770 0.454759 0.133912
H3    H     H_    0.445623 0.729211 0.081924 0.139746
H4    H     H_    0.404378 0.789615 0.151888 0.177702
H5    H     H_    0.353914 0.722562 0.079284 0.169085
H6    H     H_    0.347893 0.949542 0.073072 0.185544
H7    H     H_    0.387165 0.882177 0.003906 0.166618
H8    H     H_    0.503271 0.925109 0.075600 0.159677
H9    H     H_    0.454009 0.989724 0.137314 0.187033
H10   H     H_    0.081654 0.283232 0.839282 0.166985
H11   H     H_    0.126885 0.259419 0.923940 0.174017
H12   H     H_    0.043721 0.193063 0.901512 0.137930
H13   H     H_    0.374002 0.937153 0.555503 0.148108
H14   H     H_    0.036578 0.372196 0.974898 0.157399
H15   H     H_    0.989189 0.390170 0.891400 0.188173
H16   H     H_    0.075427 0.519233 0.851702 0.143797
H17   H     H_    0.136949 0.480919 0.920732 0.155537
H18   H     H_    0.945617 0.229180 0.081893 0.139748
H19   H     H_    0.904392 0.289563 0.151876 0.177677
H20   H     H_    0.853909 0.222542 0.079274 0.169083
H21   H     H_    0.847901 0.449527 0.073096 0.185539
H22   H     H_    0.887141 0.382183 0.003904 0.166630
H23   H     H_    0.003272 0.425070 0.075554 0.159648
H24   H     H_    0.633373 0.943837 0.454804 0.133935
H25   H     H_    0.954043 0.489657 0.137306 0.187051
H26   H     H_    0.446935 0.348924 0.952337 0.149078
H27   H     H_    0.572459 0.351911 0.043680 0.137912
H28   H     H_    0.946906 0.848904 0.952342 0.149075
H29   H     H_    0.072430 0.851926 0.043685 0.137920
H30   H     H_    0.534194 0.359418 0.933044 0.136624
H31   H     H_    0.484333 0.355091 0.061010 0.148682
H32   H     H_    0.034164 0.859436 0.933051 0.136627
H33   H     H_    0.328890 0.545628 0.452293 0.117554
H34   H     H_    0.984304 0.855073 0.061016 0.148676
H35   H     H_    0.388314 0.148502 0.957877 0.104503
H36   H     H_    0.636472 0.150686 0.038570 0.085578
H37   H     H_    0.888310 0.648466 0.957876 0.104505
H38   H     H_    0.136467 0.650715 0.038577 0.085574
H39   H     H_    0.420143 0.161323 0.070760 0.132272
H40   H     H_    0.602312 0.182734 0.928073 0.117686
H41   H     H_    0.920134 0.661278 0.070763 0.132269
H42   H     H_    0.102305 0.682786 0.928083 0.117696
H43   H     H_    0.593240 0.012969 0.042722 0.136871
H44   H     H_    0.179561 0.071392 0.549375 0.133530
H45   H     H_    0.434059 0.014000 0.949613 0.140570
H46   H     H_    0.093243 0.512987 0.042720 0.136860
H47   H     H_    0.934068 0.513979 0.949614 0.140562
H48   H     H_    0.650841 0.425502 0.549157 0.119962
H49   H     H_    0.351327 0.396065 0.437096 0.121749
H50   H     H_    0.150828 0.925550 0.549159 0.119964
H51   H     H_    0.851316 0.896015 0.437060 0.121762
H52   H     H_    0.637572 0.438589 0.433926 0.147721
H53   H     H_    0.361783 0.353467 0.550563 0.136703
H54   H     H_    0.137572 0.938599 0.433928 0.147720
H55   H     H_    0.828889 0.045575 0.452313 0.117532
H56   H     H_    0.861751 0.853251 0.550513 0.136642
H57   H     H_    0.691914 0.565007 0.430669 0.109226
H58   H     H_    0.344922 0.508706 0.567050 0.116597
H59   H     H_    0.191925 0.065003 0.430669 0.109216
H60   H     H_    0.845005 0.008513 0.567049 0.116655
H61   H     H_    0.336874 0.077052 0.543055 0.078233
H62   H     H_    0.672717 0.079540 0.443688 0.106034
H63   H     H_    0.836842 0.577148 0.543025 0.078197
H64   H     H_    0.172692 0.579507 0.443692 0.106036
H65   H     H_    0.311590 0.051197 0.429774 0.097687
H66   H     H_    0.774427 0.204235 0.460342 0.133586
H67   H     H_    0.729569 0.077713 0.556871 0.131766
H68   H     H_    0.811583 0.551223 0.429748 0.097674
H69   H     H_    0.229445 0.577692 0.556907 0.131740
H70   H     H_    0.811306 0.253675 0.572701 0.120817
H71   H     H_    0.179359 0.258288 0.418871 0.130881
H72   H     H_    0.311239 0.753597 0.572733 0.120778
H73   H     H_    0.679305 0.758318 0.418876 0.130900
H74   H     H_    0.721649 0.259595 0.583631 0.095867
H75   H     H_    0.270950 0.235848 0.427462 0.104912
H76   H     H_    0.221575 0.759601 0.583619 0.095875
H77   H     H_    0.174318 0.258666 0.531984 0.126414
H78   H     H_    0.770891 0.735816 0.427469 0.104914
H79   H     H_    0.688621 0.251503 0.470548 0.110972
H80   H     H_    0.260394 0.200241 0.541660 0.124030
H81   H     H_    0.188602 0.751481 0.470524 0.110975
H82   H     H_    0.760314 0.700227 0.541661 0.124068
H83   H     H_    0.996666 0.285212 0.393149 0.161190
H84   H     H_    0.016938 0.331028 0.481329 0.141366
H85   H     H_    0.001469 0.174699 0.461117 0.138145
H86   H     H_    0.901059 0.267216 0.506316 0.149374
H87   H     H_    0.881475 0.216690 0.419989 0.188265
H88   H     H_    0.274420 0.704230 0.460347 0.133649
H89   H     H_    0.882018 0.419076 0.372459 0.164808
H90   H     H_    0.926154 0.475856 0.447987 0.149609
H91   H     H_    0.131022 0.425533 0.725899 0.178441
H92   H     H_    0.101296 0.574289 0.744832 0.139556
H93   H     H_    0.053411 0.483721 0.679954 0.178591
H94   H     H_    0.201852 0.564472 0.672320 0.164068
H95   H     H_    0.130677 0.657902 0.640897 0.155704
H96   H     H_    0.093964 0.538478 0.549913 0.144372
H97   H     H_    0.119128 0.400210 0.589849 0.169134
H98   H     H_    0.496902 0.785547 0.393492 0.161219
H99   H     H_    0.674260 0.758736 0.531998 0.126446
H100  H     H_    0.516827 0.830924 0.481776 0.141405
H101  H     H_    0.501472 0.674690 0.461263 0.138180
H102  H     H_    0.400851 0.766987 0.506229 0.149452
H103  H     H_    0.381575 0.716667 0.419838 0.188281
H104  H     H_    0.382027 0.919072 0.372469 0.164752
H105  H     H_    0.426155 0.975800 0.448013 0.149643
H106  H     H_    0.631245 0.925689 0.725879 0.178651
H107  H     H_    0.601838 0.074523 0.745061 0.139305
H108  H     H_    0.553622 0.984362 0.680211 0.178727
H109  H     H_    0.702083 0.064738 0.672284 0.164081
H110  H     H_    0.874013 0.437295 0.555500 0.148032
H111  H     H_    0.630881 0.158183 0.640959 0.155705
H112  H     H_    0.594075 0.038812 0.549988 0.144404
H113  H     H_    0.619163 0.900504 0.589930 0.169143
H114  H     H_    0.581729 0.783078 0.839427 0.167094
H115  H     H_    0.626829 0.759369 0.924145 0.173960
H116  H     H_    0.543684 0.693016 0.901622 0.137942
H117  H     H_    0.536471 0.872269 0.974910 0.157443
H118  H     H_    0.489169 0.890121 0.891368 0.188180
H119  H     H_    0.575399 0.019162 0.851703 0.143839
H120  H     H_    0.636923 0.980846 0.920734 0.155550
O1    O     O_R   0.783100 0.287550 0.345460 -0.535949
O2    O     O_R   0.454350 0.284910 0.836260 -0.525953
O3    O     O_R   0.045650 0.784910 0.163740 -0.529706
O4    O     O_R   0.954350 0.784910 0.836260 -0.525959
O5    O     O_R   0.677950 0.374280 0.185410 -0.494913
O6    O     O_R   0.322050 0.374280 0.814590 -0.492840
O7    O     O_R   0.177950 0.874280 0.185410 -0.494908
O8    O     O_R   0.822050 0.874280 0.814590 -0.492838
O9    O     O_3   0.664670 0.164660 0.254930 -0.280073
O10   O     O_3   0.335330 0.164660 0.745070 -0.262355
O11   O     O_3   0.164670 0.664660 0.254930 -0.280068
O12   O     O_R   0.216900 0.287550 0.654540 -0.537271
O13   O     O_3   0.835330 0.664660 0.745070 -0.262346
O14   O     O_R   0.760020 0.037400 0.337700 -0.513605
O15   O     O_R   0.239980 0.037400 0.662300 -0.515405
O16   O     O_R   0.260020 0.537400 0.337700 -0.513619
O17   O     O_R   0.739980 0.537400 0.662300 -0.515399
O18   O     O_R   0.666600 0.921990 0.332020 -0.525417
O19   O     O_R   0.333400 0.921990 0.667980 -0.533850
O20   O     O_R   0.166600 0.421990 0.332020 -0.525414
O21   O     O_R   0.833400 0.421990 0.667980 -0.533869
O22   O     O_R   0.557260 0.082670 0.312540 -0.499254
O23   O     O_R   0.283100 0.787550 0.345460 -0.535965
O24   O     O_R   0.442740 0.082670 0.687460 -0.514183
O25   O     O_R   0.057260 0.582670 0.312540 -0.499252
O26   O     O_R   0.942740 0.582670 0.687460 -0.514186
O27   O     O_R   0.548410 0.285740 0.316480 -0.508894
O28   O     O_R   0.451590 0.285740 0.683520 -0.508189
O29   O     O_R   0.048410 0.785740 0.316480 -0.508897
O30   O     O_R   0.951590 0.785740 0.683520 -0.508209
O31   O     O_R   0.680500 0.375040 0.327000 -0.503289
O32   O     O_R   0.319500 0.375040 0.673000 -0.519399
O33   O     O_R   0.180500 0.875040 0.327000 -0.503289
O34   O     O_R   0.716900 0.787550 0.654540 -0.537329
O35   O     O_R   0.819500 0.875040 0.673000 -0.519394
O36   O     O_R   0.780350 0.286720 0.192720 -0.518042
O37   O     O_R   0.219650 0.286720 0.807280 -0.531745
O38   O     O_R   0.280350 0.786720 0.192720 -0.518050
O39   O     O_R   0.719650 0.786720 0.807280 -0.531760
O40   O     O_R   0.757470 0.036630 0.196110 -0.512895
O41   O     O_R   0.242530 0.036630 0.803890 -0.490808
O42   O     O_R   0.257470 0.536630 0.196110 -0.512895
O43   O     O_R   0.742530 0.536630 0.803890 -0.490796
O44   O     O_R   0.663840 0.921160 0.179280 -0.518519
O45   O     O_R   0.554710 0.081900 0.170950 -0.522115
O46   O     O_R   0.336160 0.921160 0.820720 -0.521046
O47   O     O_R   0.163840 0.421160 0.179280 -0.518516
O48   O     O_R   0.836160 0.421160 0.820720 -0.521038
O49   O     O_R   0.445290 0.081900 0.829050 -0.513672
O50   O     O_R   0.054710 0.581900 0.170950 -0.522113
O51   O     O_R   0.945290 0.581900 0.829050 -0.513674
O52   O     O_R   0.545650 0.284910 0.163740 -0.529703

loop_
_geom_bond_atom_site_label_1
_geom_bond_atom_site_label_2
_ccdc_geom_bond_type
C36   C89   S    
C39   H68   S    
C91   O35   A    
C19   C20   S    
C74   C83   T    
C29   H78   S    
C2    H2    S    
C25   H20   S    
C77   H58   S    
Cr11  O21   S    
C22   C60   S    
C48   H30   S    
C66   H57   S    
C107  C113  T    
C120  H85   S    
C101  O5    A    
Cr5   O10   S    
C48   C65   S    
C115  H33   S    
C43   H79   S    
Cr10  O11   S    
C85   C103  S    
C44   O20   A    
C8    H101  S    
C33   O19   A    
C54   H37   S    
C26   H74   S    
C45   H80   S    
C50   H32   S    
C28   C32   S    
Cr3   O29   S    
Cr2   O10   S    
C35   C66   S    
Cr3   O7    S    
C48   H26   S    
C24   C34   S    
C120  H83   S    
C18   H5    S    
Cr9   O19   S    
C78   C82   S    
C16   C58   S    
Cr8   O9    S    
C32   C116  S    
C52   C58   S    
C114  H48   S    
C74   C79   S    
C23   H21   S    
C28   H76   S    
C20   H14   S    
Cr11  O48   S    
Cr9   O10   S    
Cr7   O43   S    
Cr8   O44   S    
C6    H104  S    
Cr7   O13   S    
C70   C79   T    
Cr8   O18   S    
C10   H111  S    
C4    C5    S    
Cr2   O28   S    
Cr7   O39   S    
Cr1   O1    S    
C6    C7    S    
Cr11  O13   S    
C22   H25   S    
Cr4   O30   S    
C39   C118  S    
C19   H16   S    
C56   C59   S    
C58   H39   S    
Cr5   O12   S    
C5    H93   S    
Cr6   O11   S    
C96   O45   A    
C98   O50   A    
Cr4   O35   S    
C64   O30   A    
C58   C67   S    
Cr12  O31   S    
C15   H116  S    
C110  H63   S    
C22   C23   S    
C25   H18   S    
Cr9   O24   S    
C51   C69   S    
C100  O4    A    
C76   C85   T    
Cr5   O37   S    
C52   C65   S    
C24   H24   S    
Cr6   O42   S    
C88   H59   S    
C118  H90   S    
C84   C102  S    
C13   C32   S    
C13   H13   S    
C86   C104  S    
C7    C8    S    
C14   H117  S    
C56   H46   S    
C28   C46   S    
C12   H119  S    
C37   C90   S    
C29   C47   S    
C27   H71   S    
Cr11  O51   S    
C21   H10   S    
C109  C111  S    
C99   H60   S    
C75   C84   T    
C54   C68   S    
C47   H82   S    
C29   H73   S    
C4    H95   S    
C52   H45   S    
Cr11  O26   S    
C35   C87   S    
C64   O26   A    
C116  H50   S    
C61   O22   A    
C18   H4    S    
C55   O17   A    
C35   C43   S    
C9    C10   S    
C7    H102  S    
Cr5   O15   S    
Cr6   O16   S    
C16   H8    S    
C10   H109  S    
C31   C115  S    
C98   O3    A    
C1    C34   S    
C22   H23   S    
C46   H88   S    
C36   C45   S    
C41   H65   S    
C19   C59   S    
C11   H108  S    
C45   H77   S    
C102  O6    A    
Cr1   O36   S    
C68   C100  S    
C2    C40   S    
C99   C117  S    
C53   H36   S    
C15   H114  S    
C24   H62   S    
C46   H81   S    
C92   O40   A    
C17   C18   S    
C93   O41   A    
C17   H7    S    
C20   C21   S    
C102  O37   A    
C12   C57   S    
C26   C30   S    
C3    C4    S    
C53   H43   S    
C89   O32   A    
C83   C101  S    
C56   H38   S    
C21   H12   S    
C71   C80   T    
C25   H19   S    
Cr10  O25   S    
C16   H9    S    
C77   C115  S    
C69   C98   S    
C60   C69   S    
C3    H96   S    
C19   H17   S    
C2    H64   S    
C37   C41   S    
C53   C67   S    
C49   H31   S    
C10   C11   S    
C5    H92   S    
C56   C69   S    
Cr7   O17   S    
C14   C15   S    
C49   H27   S    
C96   O52   A    
C63   C108  S    
Cr2   O32   S    
C106  C109  T    
C24   C42   S    
C95   O48   A    
C37   C88   S    
C59   H42   S    
C3    H97   S    
C13   C41   S    
Cr8   O45   S    
C11   H106  S    
Cr9   O49   S    
C30   C110  S    
C42   H67   S    
C36   C77   S    
C52   H35   S    
Cr4   O13   S    
C54   H47   S    
C104  O8    A    
Cr6   O38   S    
C1    O14   A    
C16   C17   S    
C119  H86   S    
C4    H94   S    
C9    H113  S    
Cr3   O3    S    
C72   C81   T    
C57   H40   S    
C27   C45   S    
C104  O39   A    
C105  C111  T    
C13   H61   S    
Cr10  O50   S    
C60   H41   S    
C61   O27   A    
C99   H56   S    
C6    H105  S    
C7    H103  S    
C73   C92   S    
C71   C94   S    
C53   C57   S    
C63   O25   A    
C27   C31   S    
C38   C91   S    
C108  C112  T    
C95   O43   A    
C35   C39   S    
C50   C51   S    
C61   C106  S    
Cr8   O22   S    
C72   C93   S    
C48   C49   S    
C15   H115  S    
C3    C40   S    
C93   O46   A    
C73   C82   T    
C30   C114  S    
C66   C114  S    
Cr1   O40   S    
C103  O7    A    
C57   C65   S    
C38   C99   S    
Cr1   O14   S    
Cr2   O2    S    
C119  C120  S    
Cr12  O5    S    
C14   H118  S    
C30   C55   S    
C92   O44   A    
C12   H120  S    
Cr10  O47   S    
C50   H28   S    
C32   C33   S    
C94   O42   A    
C100  O51   A    
C29   C34   S    
C51   H29   S    
C43   H66   S    
C87   O31   A    
C87   O1    A    
C40   H69   S    
Cr4   O8    S    
Cr12  O52   S    
C23   H22   S    
C91   O34   A    
C37   C46   S    
C50   C68   S    
Cr6   O23   S    
C77   H53   S    
Cr4   O4    S    
C44   O16   A    
C62   C105  S    
C54   C60   S    
C9    C42   S    
C33   O15   A    
C26   H70   S    
C38   C42   S    
C47   H99   S    
C11   H107  S    
Cr9   O46   S    
C110  H110  S    
C118  C119  S    
Cr3   O33   S    
Cr1   O9    S    
C8    H98   S    
Cr2   O6    S    
C39   C110  S    
Cr3   O11   S    
C6    C41   S    
C90   O23   A    
C94   O47   A    
C75   C80   S    
C78   C86   T    
C34   C117  S    
C88   H54   S    
C118  H89   S    
C119  H87   S    
Cr7   O34   S    
C62   O28   A    
C112  C113  S    
C115  H49   S    
C26   C43   S    
C55   O21   A    
C31   C44   S    
C116  H44   S    
C28   H72   S    
C36   C40   S    
C21   H11   S    
C117  H55   S    
C103  O38   A    
C62   O24   A    
C1    O18   A    
C101  O36   A    
C2    C31   S    
C88   C116  S    
C59   C68   S    
Cr10  O20   S    
C90   O33   A    
C20   H15   S    
C18   H3    S    
C89   O12   A    
C38   C47   S    
C17   H6    S    
C5    H91   S    
C12   C14   S    
C67   C96   S    
C97   O49   A    
C63   O29   A    
C64   C107  S    
Cr12  O27   S    
C66   H52   S    
C49   C67   S    
C76   C81   S    
Cr5   O41   S    
C117  H51   S    
C120  H84   S    
C70   C95   S    
C65   C97   S    
C8    H100  S    
C114  H1    S    
C27   H75   S    
C23   C25   S    
Cr12  O9    S    
C51   H34   S    
C9    H112  S    
C97   O2    A    
