data_mof_unit_25258.cif
_audit_creation_date              2012-12-11T14:38:20-0500
_audit_creation_method            fapswitch 2.2
_symmetry_space_group_name_H-M    P1
_symmetry_Int_Tables_number       1
_space_group_crystal_system       triclinic
_cell_length_a                    19.78338
_cell_length_b                    11.116538
_cell_length_c                    19.709989
_cell_angle_alpha                 90.000227
_cell_angle_beta                  96.067148
_cell_angle_gamma                 90.000218
_cell_volume                      4310.39414379

loop_
_atom_site_label
_atom_site_type_symbol
_atom_type_description
_atom_site_fract_x
_atom_site_fract_y
_atom_site_fract_z
_atom_type_partial_charge
C1    C     C_R   0.724998 0.953454 0.360056 0.537046
C2    C     C_3   0.176263 0.487239 0.469934 -0.217688
C3    C     C_2   0.623457 0.899140 0.566507 0.597379
C4    C     C_2   0.420723 0.376848 0.954959 0.575491
C5    C     C_2   0.579244 0.376862 0.045049 0.575702
C6    C     C_2   0.920749 0.876854 0.954953 0.575703
C7    C     C_2   0.079270 0.876857 0.045043 0.575488
C8    C     C_2   0.568948 0.958151 0.039636 0.600315
C9    C     C_2   0.431042 0.958136 0.960373 0.600106
C10   C     C_2   0.068965 0.458145 0.039623 0.600101
C11   C     C_2   0.931058 0.458143 0.960360 0.600321
C12   C     C_3   0.323737 0.987241 0.530068 -0.217687
C13   C     C_3   0.678288 0.980950 0.467254 -0.209397
C14   C     C_3   0.762218 0.292797 0.553167 -0.256665
C15   C     C_3   0.234361 0.295354 0.445992 -0.271868
C16   C     C_3   0.265642 0.795355 0.554006 -0.271865
C17   C     C_3   0.737779 0.792811 0.446828 -0.256668
C18   C     C_3   0.760914 0.426968 0.567038 0.036669
C19   C     C_3   0.235835 0.429946 0.433663 0.037956
C20   C     C_3   0.264166 0.929945 0.566337 0.037942
C21   C     C_R   0.276599 0.956494 0.638964 0.548872
C22   C     C_3   0.739085 0.926982 0.432964 0.036666
C23   C     C_3   0.745413 0.394228 0.435136 0.027975
C24   C     C_3   0.252379 0.393409 0.564918 0.026323
C25   C     C_3   0.247622 0.893411 0.435082 0.026313
C26   C     C_3   0.754586 0.894233 0.564863 0.027957
C27   C     C_3   0.813896 0.461115 0.455361 -0.056661
C28   C     C_3   0.194582 0.486404 0.548034 -0.068517
C29   C     C_3   0.305419 0.986404 0.451967 -0.068503
C30   C     C_3   0.686109 0.961138 0.544643 -0.056670
C31   C     C_3   0.740500 0.275932 0.476769 -0.219832
C32   C     C_R   0.223401 0.456494 0.361036 0.548877
C33   C     C_3   0.233070 0.277122 0.522770 -0.239559
C34   C     C_3   0.266928 0.777123 0.477227 -0.239573
C35   C     C_3   0.759483 0.775936 0.523227 -0.219864
C36   C     C_3   0.486105 0.305822 0.962860 -0.076643
C37   C     C_3   0.513863 0.305824 0.037149 -0.076582
C38   C     C_3   0.986131 0.805824 0.962852 -0.076577
C39   C     C_3   0.013889 0.805822 0.037141 -0.076647
C40   C     C_3   0.430411 0.094684 0.973035 -0.055002
C41   C     C_3   0.569568 0.094698 0.026974 -0.054894
C42   C     C_3   0.930434 0.594689 0.973024 -0.054890
C43   C     C_R   0.775000 0.453447 0.639946 0.537044
C44   C     C_3   0.069592 0.594693 0.026964 -0.055006
C45   C     C_3   0.554799 0.119340 0.949079 -0.251524
C46   C     C_3   0.445179 0.119330 0.050931 -0.251445
C47   C     C_3   0.054823 0.619339 0.949068 -0.251445
C48   C     C_3   0.945203 0.619331 0.050920 -0.251523
C49   C     C_R   0.536976 0.180472 0.339117 0.533711
C50   C     C_R   0.463742 0.180382 0.661357 0.544930
C51   C     C_R   0.036256 0.680382 0.338642 0.544923
C52   C     C_R   0.963019 0.680472 0.660880 0.533726
C53   C     C_3   0.482337 0.172594 0.934631 -0.033682
C54   C     C_3   0.686556 0.474076 0.456029 -0.262951
C55   C     C_3   0.517638 0.172595 0.065378 -0.033761
C56   C     C_3   0.982362 0.672595 0.934622 -0.033757
C57   C     C_3   0.017663 0.672594 0.065368 -0.033685
C58   C     C_1   0.765250 0.436911 0.907264 0.021055
C59   C     C_1   0.234745 0.436926 0.092730 0.021823
C60   C     C_1   0.265255 0.936924 0.907269 0.021829
C61   C     C_1   0.734750 0.936912 0.092736 0.021048
C62   C     C_1   0.755978 0.421948 0.039013 0.057799
C63   C     C_1   0.244010 0.421983 0.960976 0.057781
C64   C     C_1   0.255989 0.921977 0.039023 0.057777
C65   C     C_3   0.318976 0.444355 0.541152 -0.256273
C66   C     C_1   0.744021 0.921953 0.960986 0.057801
C67   C     C_1   0.759470 0.430364 0.967623 0.053177
C68   C     C_1   0.240522 0.430391 0.032369 0.053253
C69   C     C_1   0.259479 0.930387 0.967630 0.053258
C70   C     C_1   0.740530 0.930367 0.032376 0.053172
C71   C     C_1   0.749230 0.403385 0.098389 0.032916
C72   C     C_1   0.250759 0.403417 0.901600 0.033676
C73   C     C_1   0.249240 0.903412 0.098399 0.033665
C74   C     C_1   0.750769 0.903389 0.901610 0.032928
C75   C     C_R   0.738097 0.360217 0.362121 0.538180
C76   C     C_3   0.181024 0.944354 0.458848 -0.256277
C77   C     C_R   0.261670 0.359376 0.637802 0.557542
C78   C     C_R   0.238330 0.859378 0.362197 0.557604
C79   C     C_R   0.761903 0.860216 0.637879 0.538194
C80   C     C_R   0.721187 0.956845 0.162152 0.530540
C81   C     C_R   0.278814 0.956847 0.837849 0.534715
C82   C     C_R   0.221186 0.456847 0.162151 0.534717
C83   C     C_R   0.778813 0.456845 0.837847 0.530542
C84   C     C_R   0.538118 0.179449 0.138897 0.537897
C85   C     C_R   0.461858 0.179451 0.861112 0.538195
C86   C     C_R   0.038142 0.679451 0.138888 0.538188
C87   C     C_3   0.813452 0.974061 0.543972 -0.262931
C88   C     C_R   0.961882 0.679450 0.861103 0.537902
C89   C     C_R   0.737206 0.361029 0.165055 0.546647
C90   C     C_R   0.262788 0.361048 0.834936 0.551443
C91   C     C_R   0.237211 0.861047 0.165063 0.551456
C92   C     C_R   0.762794 0.861031 0.834944 0.546663
C93   C     C_1   0.485491 0.173234 0.594446 0.014784
C94   C     C_1   0.516531 0.173393 0.406576 0.009509
C95   C     C_1   0.983458 0.673394 0.593418 0.009545
C96   C     C_1   0.014502 0.673234 0.405550 0.014793
C97   C     C_1   0.506127 0.170410 0.465666 -0.021665
C98   C     C_3   0.821712 0.480935 0.532749 -0.209398
C99   C     C_1   0.496508 0.170347 0.535527 -0.025417
C100  C     C_1   0.003482 0.670347 0.464468 -0.025419
C101  C     C_1   0.993860 0.670411 0.534328 -0.021654
C102  C     C_3   0.689350 0.474240 0.534727 -0.239269
C103  C     C_3   0.307965 0.471952 0.464550 -0.241670
C104  C     C_3   0.192036 0.971950 0.535450 -0.241668
C105  C     C_3   0.810651 0.974247 0.465274 -0.239269
C106  C     C_2   0.876545 0.399099 0.433504 0.597385
C107  C     C_2   0.132802 0.469990 0.586594 0.572817
C108  C     C_2   0.367197 0.970003 0.413403 0.572822
Cr1   Cr    Cr6+3 0.765780 0.160710 0.267420 1.057440
Cr2   Cr    Cr6+3 0.383970 0.323720 0.751490 1.059401
Cr3   Cr    Cr6+3 0.116030 0.823720 0.248510 1.059413
Cr4   Cr    Cr6+3 0.883970 0.823720 0.751490 1.059988
Cr5   Cr    Cr6+3 0.234220 0.160710 0.732580 1.059084
Cr6   Cr    Cr6+3 0.265780 0.660710 0.267420 1.059064
Cr7   Cr    Cr6+3 0.734220 0.660710 0.732580 1.057437
Cr8   Cr    Cr6+3 0.612200 0.009560 0.248850 1.065794
Cr9   Cr    Cr6+3 0.387800 0.009560 0.751150 1.062058
Cr10  Cr    Cr6+3 0.112200 0.509560 0.248850 1.062061
Cr11  Cr    Cr6+3 0.887800 0.509560 0.751150 1.065792
Cr12  Cr    Cr6+3 0.616030 0.323720 0.248510 1.059984
H1    H     H_    0.671700 0.560086 0.554047 0.172254
H2    H     H_    0.129815 0.431895 0.456521 0.175623
H3    H     H_    0.370186 0.931900 0.543483 0.175679
H4    H     H_    0.629592 0.940341 0.444393 0.176780
H5    H     H_    0.521451 0.356940 0.932796 0.171797
H6    H     H_    0.478515 0.356933 0.067214 0.172183
H7    H     H_    0.021477 0.856940 0.932788 0.172196
H8    H     H_    0.978542 0.856933 0.067206 0.171785
H9    H     H_    0.377696 0.124826 0.956336 0.119703
H10   H     H_    0.622281 0.124855 0.043672 0.120007
H11   H     H_    0.877720 0.624838 0.956326 0.120023
H12   H     H_    0.316380 0.567034 0.455456 0.140321
H13   H     H_    0.122305 0.624843 0.043662 0.119686
H14   H     H_    0.407193 0.183598 0.067525 0.142177
H15   H     H_    0.592781 0.183614 0.932484 0.141205
H16   H     H_    0.907218 0.683599 0.067515 0.141199
H17   H     H_    0.092806 0.683614 0.932475 0.142181
H18   H     H_    0.561738 0.038957 0.917311 0.206973
H19   H     H_    0.438242 0.038947 0.082700 0.206644
H20   H     H_    0.061762 0.538959 0.917297 0.206643
H21   H     H_    0.938266 0.538945 0.082687 0.206972
H22   H     H_    0.649682 0.411147 0.549562 0.127605
H23   H     H_    0.183618 0.067030 0.544546 0.140329
H24   H     H_    0.347913 0.425287 0.438586 0.136957
H25   H     H_    0.152088 0.925280 0.561413 0.136976
H26   H     H_    0.850317 0.911160 0.450430 0.127610
H27   H     H_    0.636007 0.439314 0.434548 0.158818
H28   H     H_    0.360721 0.377283 0.550812 0.147379
H29   H     H_    0.139281 0.877280 0.449189 0.147380
H30   H     H_    0.863998 0.939268 0.565445 0.158811
H31   H     H_    0.691162 0.565474 0.435963 0.119729
H32   H     H_    0.334952 0.527483 0.569937 0.128202
H33   H     H_    0.165047 0.027482 0.430064 0.128206
H34   H     H_    0.828298 0.060105 0.445965 0.172289
H35   H     H_    0.808864 0.065456 0.564051 0.119744
H36   H     H_    0.340387 0.076830 0.549129 0.083466
H37   H     H_    0.671152 0.075161 0.454262 0.076192
H38   H     H_    0.828846 0.575150 0.545743 0.076214
H39   H     H_    0.159612 0.576829 0.450873 0.083472
H40   H     H_    0.283873 0.073499 0.436251 0.101653
H41   H     H_    0.689031 0.050440 0.569977 0.094722
H42   H     H_    0.810985 0.550417 0.430025 0.094720
H43   H     H_    0.216126 0.573500 0.563752 0.101670
H44   H     H_    0.814469 0.257724 0.566671 0.164520
H45   H     H_    0.769322 0.203840 0.456959 0.165147
H46   H     H_    0.189406 0.250990 0.417741 0.139735
H47   H     H_    0.310603 0.750997 0.582253 0.139735
H48   H     H_    0.685528 0.757739 0.433311 0.164504
H49   H     H_    0.727143 0.244371 0.584192 0.104330
H50   H     H_    0.280890 0.256952 0.428014 0.134326
H51   H     H_    0.219118 0.756946 0.571990 0.134349
H52   H     H_    0.772861 0.744390 0.415807 0.104334
H53   H     H_    0.686101 0.251214 0.471547 0.104522
H54   H     H_    0.267009 0.204411 0.540592 0.113299
H55   H     H_    0.232979 0.704425 0.459406 0.113308
H56   H     H_    0.180292 0.252381 0.530900 0.180383
H57   H     H_    0.813878 0.751186 0.528459 0.104527
H58   H     H_    0.953842 0.404940 0.374601 0.346910
H59   H     H_    0.084323 0.521544 0.666707 0.346689
H60   H     H_    0.415645 0.021501 0.333256 0.346687
H61   H     H_    0.546181 0.904990 0.625435 0.346918
H62   H     H_    0.373628 0.530721 0.922117 0.337187
H63   H     H_    0.626340 0.530723 0.077913 0.336839
H64   H     H_    0.873652 0.030721 0.922105 0.336841
H65   H     H_    0.126363 0.030724 0.077902 0.337187
H66   H     H_    0.536840 0.815163 0.090829 0.360726
H67   H     H_    0.319704 0.752377 0.469091 0.180330
H68   H     H_    0.463152 0.815159 0.909173 0.360562
H69   H     H_    0.036859 0.315162 0.090822 0.360561
H70   H     H_    0.963171 0.315160 0.909166 0.360729
H71   H     H_    0.730624 0.703875 0.543025 0.165190
H72   H     H_    0.870407 0.440323 0.555613 0.176755
O1    O     O_R   0.783100 0.287550 0.345460 -0.488962
O2    O     O_R   0.454350 0.284910 0.836260 -0.500947
O3    O     O_R   0.045650 0.784910 0.163740 -0.500934
O4    O     O_R   0.954350 0.784910 0.836260 -0.499810
O5    O     O_R   0.677950 0.374280 0.185410 -0.475451
O6    O     O_R   0.322050 0.374280 0.814590 -0.474226
O7    O     O_R   0.177950 0.874280 0.185410 -0.474222
O8    O     O_R   0.822050 0.874280 0.814590 -0.475452
O9    O     O_3   0.664670 0.164660 0.254930 -0.287108
O10   O     O_3   0.335330 0.164660 0.745070 -0.290509
O11   O     O_3   0.164670 0.664660 0.254930 -0.290512
O12   O     O_R   0.216900 0.287550 0.654540 -0.494951
O13   O     O_3   0.835330 0.664660 0.745070 -0.287109
O14   O     O_R   0.760020 0.037400 0.337700 -0.514246
O15   O     O_R   0.239980 0.037400 0.662300 -0.512580
O16   O     O_R   0.260020 0.537400 0.337700 -0.512589
O17   O     O_R   0.739980 0.537400 0.662300 -0.514248
O18   O     O_R   0.666600 0.921990 0.332020 -0.519655
O19   O     O_R   0.333400 0.921990 0.667980 -0.523298
O20   O     O_R   0.166600 0.421990 0.332020 -0.523294
O21   O     O_R   0.833400 0.421990 0.667980 -0.519657
O22   O     O_R   0.557260 0.082670 0.312540 -0.500364
O23   O     O_R   0.283100 0.787550 0.345460 -0.494986
O24   O     O_R   0.442740 0.082670 0.687460 -0.495314
O25   O     O_R   0.057260 0.582670 0.312540 -0.495309
O26   O     O_R   0.942740 0.582670 0.687460 -0.500378
O27   O     O_R   0.548410 0.285740 0.316480 -0.508927
O28   O     O_R   0.451590 0.285740 0.683520 -0.515261
O29   O     O_R   0.048410 0.785740 0.316480 -0.515264
O30   O     O_R   0.951590 0.785740 0.683520 -0.508922
O31   O     O_R   0.680500 0.375040 0.327000 -0.515445
O32   O     O_R   0.319500 0.375040 0.673000 -0.513220
O33   O     O_R   0.180500 0.875040 0.327000 -0.513207
O34   O     O_R   0.716900 0.787550 0.654540 -0.488972
O35   O     O_R   0.819500 0.875040 0.673000 -0.515446
O36   O     O_R   0.780350 0.286720 0.192720 -0.496121
O37   O     O_R   0.219650 0.286720 0.807280 -0.495736
O38   O     O_R   0.280350 0.786720 0.192720 -0.495730
O39   O     O_R   0.719650 0.786720 0.807280 -0.496117
O40   O     O_R   0.757470 0.036630 0.196110 -0.496723
O41   O     O_R   0.242530 0.036630 0.803890 -0.495255
O42   O     O_R   0.257470 0.536630 0.196110 -0.495261
O43   O     O_R   0.742530 0.536630 0.803890 -0.496721
O44   O     O_R   0.663840 0.921160 0.179280 -0.485083
O45   O     O_R   0.554710 0.081900 0.170950 -0.458612
O46   O     O_R   0.336160 0.921160 0.820720 -0.484657
O47   O     O_R   0.163840 0.421160 0.179280 -0.484652
O48   O     O_R   0.836160 0.421160 0.820720 -0.485086
O49   O     O_2   0.894654 0.301239 0.457368 -0.521710
O50   O     O_R   0.913168 0.454279 0.385240 -0.698098
O51   O     O_2   0.091575 0.389945 0.571210 -0.509283
O52   O     O_R   0.124644 0.545284 0.641922 -0.709819
O53   O     O_2   0.408476 0.890068 0.428841 -0.509305
O54   O     O_R   0.375298 0.045188 0.358015 -0.709774
O55   O     O_2   0.605328 0.801296 0.542632 -0.521689
O56   O     O_R   0.445290 0.081900 0.829050 -0.457454
O57   O     O_R   0.586857 0.954317 0.614791 -0.698091
O58   O     O_2   0.373045 0.343980 0.984510 -0.588570
O59   O     O_R   0.417732 0.485702 0.919147 -0.653048
O60   O     O_2   0.626919 0.344020 0.015483 -0.588664
O61   O     O_R   0.582236 0.485697 0.080881 -0.652782
O62   O     O_2   0.873071 0.843991 0.984506 -0.588668
O63   O     O_R   0.917757 0.985704 0.919138 -0.652797
O64   O     O_2   0.126945 0.844010 0.015479 -0.588567
O65   O     O_R   0.082261 0.985695 0.080873 -0.653033
O66   O     O_2   0.599707 0.891861 0.004125 -0.525773
O67   O     O_R   0.054710 0.581900 0.170950 -0.457453
O68   O     O_R   0.532822 0.906085 0.089320 -0.645701
O69   O     O_2   0.400295 0.891836 0.995889 -0.525707
O70   O     O_R   0.467162 0.906082 0.910681 -0.645675
O71   O     O_2   0.099709 0.391848 0.004103 -0.525706
O72   O     O_R   0.032847 0.406085 0.089316 -0.645678
O73   O     O_2   0.900297 0.391849 0.995868 -0.525773
O74   O     O_R   0.967187 0.406082 0.910678 -0.645698
O75   O     O_R   0.945290 0.581900 0.829050 -0.458612
O76   O     O_R   0.545650 0.284910 0.163740 -0.499798

loop_
_geom_bond_atom_site_label_1
_geom_bond_atom_site_label_2
_ccdc_geom_bond_type
C61   C70   T    
C35   H57   S    
C40   H9    S    
C4    C36   S    
C27   C98   S    
C52   O30   A    
Cr12  O76   S    
C26   C79   S    
C5    C37   S    
C7    O64   D    
Cr2   O6    S    
C88   O4    A    
Cr10  O11   S    
C59   C82   S    
C14   C31   S    
Cr2   O32   S    
C103  H24   S    
Cr7   O43   S    
Cr8   O9    S    
C17   H52   S    
C48   C57   S    
Cr6   O42   S    
H60   O54   S    
C51   O25   A    
Cr5   O41   S    
Cr5   O12   S    
C6    O62   D    
C40   C46   S    
Cr1   O9    S    
C62   C67   S    
C49   O27   A    
Cr5   O15   S    
C7    C39   S    
C17   C35   S    
C36   C37   S    
C80   O40   A    
Cr4   O13   S    
C108  O53   D    
C27   H42   S    
Cr3   O29   S    
C41   H10   S    
C12   C29   S    
Cr1   O40   S    
Cr11  O48   S    
C56   C88   S    
C85   O2    A    
C16   H47   S    
C74   C92   S    
C28   C107  S    
C39   C57   S    
C76   H29   S    
H68   O70   S    
C76   H33   S    
C50   O28   A    
C12   H36   S    
C10   O71   D    
C84   O76   A    
C52   C95   S    
Cr10  O20   S    
C18   C102  S    
H64   O63   S    
C5    O61   S    
C47   H17   S    
C33   H56   S    
C80   O44   A    
C41   C55   S    
Cr8   O18   S    
C36   C53   S    
C16   C34   S    
C83   O48   A    
C19   C103  S    
C11   O74   S    
Cr4   O4    S    
C36   H5    S    
H66   O68   S    
C2    H39   S    
C54   H27   S    
C87   H30   S    
C9    O69   D    
C46   C55   S    
Cr2   O2    S    
C85   O56   A    
C64   C73   T    
C6    C38   S    
C29   C108  S    
Cr1   O1    S    
C42   H11   S    
Cr11  O13   S    
C23   C27   S    
C49   C94   S    
C32   O16   A    
C102  H1    S    
Cr2   O28   S    
C103  H12   S    
C93   C99   T    
C79   O34   A    
Cr7   O39   S    
H59   O52   S    
C44   C47   S    
C25   C34   S    
C91   O7    A    
C78   O33   A    
C90   O37   A    
C105  H34   S    
C2    C19   S    
C45   C53   S    
C1    C22   S    
Cr4   O35   S    
C82   O47   A    
C12   C20   S    
Cr12  O9    S    
C5    O60   D    
C107  O51   D    
C62   C71   T    
C3    O55   D    
Cr1   O14   S    
C106  O50   S    
C14   H49   S    
C19   C32   S    
Cr6   O23   S    
C13   H37   S    
C97   C99   S    
Cr1   O36   S    
C54   C102  S    
C38   H7    S    
C29   H40   S    
C2    H2    S    
C24   C65   S    
C25   C29   S    
C38   C39   S    
C45   H15   S    
Cr7   O17   S    
C91   O38   A    
C10   C44   S    
C25   C78   S    
Cr3   O33   S    
C31   H45   S    
C13   C30   S    
Cr9   O19   S    
C8    C41   S    
C73   C91   S    
Cr7   O34   S    
C98   H72   S    
Cr3   O11   S    
C61   C80   S    
C13   H4    S    
C26   C87   S    
Cr10  O67   S    
C84   O45   A    
C57   C86   S    
Cr5   O10   S    
C49   O22   A    
C9    C40   S    
C21   O19   A    
H69   O72   S    
C24   C28   S    
C23   C31   S    
C47   H20   S    
C3    C30   S    
C15   C19   S    
H62   O59   S    
C1    O14   A    
C24   C33   S    
C59   C68   T    
C46   H14   S    
C72   C90   S    
C60   C81   S    
C26   C35   S    
C77   O32   A    
C87   C105  S    
C50   O24   A    
C44   C57   S    
C16   C20   S    
Cr11  O75   S    
C9    O70   S    
Cr8   O44   S    
Cr10  O25   S    
Cr12  O5    S    
C11   O73   D    
C104  H23   S    
C15   H46   S    
C42   C48   S    
C64   C69   S    
H70   O74   S    
C65   H28   S    
C42   C56   S    
C33   H54   S    
C34   H55   S    
C71   C89   S    
C50   C93   S    
C90   O6    A    
C75   O1    A    
C45   H18   S    
Cr8   O22   S    
C47   C56   S    
C83   O43   A    
Cr9   O46   S    
C26   C30   S    
Cr12  O31   S    
H58   O50   S    
C82   O42   A    
C76   C104  S    
C102  H22   S    
C81   O41   A    
C107  O52   S    
C7    O65   S    
H63   O61   S    
C65   C103  S    
C89   O36   A    
Cr9   O10   S    
C43   O21   A    
C77   O12   A    
Cr9   O24   S    
C8    O66   D    
C23   C54   S    
C37   H6    S    
C31   H53   S    
Cr9   O56   S    
H65   O65   S    
C44   H13   S    
C86   O3    A    
C63   C68   S    
C35   H71   S    
C39   H8    S    
C1    O18   A    
Cr4   O30   S    
C14   C18   S    
C48   H16   S    
C11   C42   S    
C3    O57   S    
C4    O59   S    
C23   C75   S    
C15   C33   S    
C17   H48   S    
C78   O23   A    
Cr6   O38   S    
C53   C85   S    
C106  O49   D    
C88   O75   A    
Cr5   O37   S    
C54   H31   S    
C20   C104  S    
Cr4   O8    S    
C22   C105  S    
C89   O5    A    
C81   O46   A    
C51   C96   S    
C52   O26   A    
C17   C22   S    
C94   C97   T    
Cr2   O10   S    
C25   C76   S    
C21   O15   A    
C65   H32   S    
Cr7   O13   S    
C4    O58   D    
C10   O72   S    
Cr11  O26   S    
H61   O57   S    
C58   C83   S    
C16   H51   S    
C66   C70   S    
C12   H3    S    
C60   C69   T    
C51   O29   A    
Cr12  O27   S    
C32   O20   A    
C105  H26   S    
C96   C100  T    
C108  O54   S    
Cr3   O7    S    
C100  C101  S    
C13   C22   S    
Cr6   O16   S    
C48   H21   S    
C27   C106  S    
C87   H35   S    
Cr10  O47   S    
C14   H44   S    
C34   H67   S    
C43   O17   A    
C86   O67   A    
C75   O31   A    
C37   C55   S    
Cr11  O21   S    
C98   H38   S    
C58   C67   T    
C38   C56   S    
C63   C72   T    
C15   H50   S    
C20   C21   S    
C40   C53   S    
C92   O8    A    
C24   C77   S    
C79   O35   A    
C41   C45   S    
Cr6   O11   S    
C46   H19   S    
C2    C28   S    
C18   C98   S    
C30   H41   S    
C6    O63   S    
C55   C84   S    
C18   C43   S    
Cr8   O45   S    
C92   O39   A    
C95   C101  T    
C28   H43   S    
Cr3   O3    S    
C8    O68   S    
C104  H25   S    
C66   C74   T    
