data_mof_unit_30436.cif
_audit_creation_date              2013-03-05T16:18:22-0500
_audit_creation_method            fapswitch 2.2
_symmetry_space_group_name_H-M    P1
_symmetry_Int_Tables_number       1
_space_group_crystal_system       triclinic
_cell_length_a                    11.071194
_cell_length_b                    10.234653
_cell_length_c                    10.653728
_cell_angle_alpha                 89.524951
_cell_angle_beta                  86.303618
_cell_angle_gamma                 90.331056
_cell_volume                      1204.5952972

loop_
_atom_site_label
_atom_site_type_symbol
_atom_site_description
_atom_site_fract_x
_atom_site_fract_y
_atom_site_fract_z
_atom_type_partial_charge
O1    O     O_R   0.314910 0.616040 0.499970 -0.559535
O2    O     O_R   0.314910 0.383960 0.499970 -0.551257
C1    C     C_R   0.259586 0.500215 0.503241 0.968483
O3    O     O_R   0.500080 0.616020 0.313900 -0.550708
O4    O     O_R   0.500080 0.383980 0.313900 -0.580043
C2    C     C_R   0.500594 0.500913 0.258122 1.006855
Zn1   Zn    Zn3+2 0.500150 0.654960 0.499940 1.144365
Zn2   Zn    Zn3+2 0.500150 0.345040 0.499940 1.138090
O5    O     O_R   0.685320 0.616040 0.499930 -0.541667
O6    O     O_R   0.685320 0.383960 0.499930 -0.519165
O7    O     O_R   0.500150 0.616060 0.686000 -0.579081
O8    O     O_R   0.500150 0.383940 0.686000 -0.562273
C3    C     C_R   0.742358 0.501476 0.501363 0.894517
C4    C     C_R   0.503689 0.500013 0.740007 0.952970
C5    C     C_3   0.475466 0.623056 0.036973 0.402265
C6    C     C_3   0.422939 0.417155 0.042227 0.337090
C7    C     C_3   0.396427 0.535501 0.959267 0.353389
C8    C     C_3   0.507355 0.501997 0.874029 -0.283688
C9    C     C_3   0.587173 0.591606 0.948227 -0.240567
C10   C     C_3   0.535134 0.384101 0.955603 -0.173571
C11   C     C_3   0.613172 0.473529 0.032328 0.328069
C12   C     C_3   0.501954 0.504265 0.121078 -0.373357
H1    H     H_    0.655945 0.662103 0.907766 0.250849
H2    H     H_    0.574637 0.287820 0.931537 0.281054
C13   C     C_3   0.075083 0.639330 0.532307 -0.399808
C14   C     C_3   0.066992 0.419708 0.611606 -0.411430
H3    H     H_    0.115529 0.706626 0.459021 0.323768
H4    H     H_    0.111304 0.324594 0.617267 0.307573
H5    H     H_    0.104401 0.671236 0.625131 0.259425
H6    H     H_    0.084780 0.464617 0.703621 0.214661
C15   C     C_3   0.935966 0.643393 0.538627 0.210399
C16   C     C_3   0.929442 0.408265 0.601167 0.191968
H7    H     H_    0.901748 0.662656 0.637284 0.167363
H8    H     H_    0.883456 0.432475 0.694026 0.152039
C17   C     C_3   0.081982 0.460888 0.368827 0.553299
C18   C     C_3   0.123656 0.502466 0.502123 -0.277915
C19   C     C_3   0.882102 0.506091 0.498240 -0.359525
C20   C     C_3   0.940052 0.474758 0.362812 0.584172
C21   C     C_3   0.379571 0.077168 0.460798 0.436347
C22   C     C_3   0.375073 0.917559 0.476345 0.445209
H9    H     H_    0.582203 0.125416 0.308036 0.201152
H10   H     H_    0.518871 0.919362 0.299572 0.186595
C23   C     C_3   0.589809 0.076707 0.400635 0.117178
C24   C     C_3   0.569585 0.923900 0.385413 0.170193
C25   C     C_3   0.521853 0.080039 0.626513 0.380950
C26   C     C_3   0.545467 0.922967 0.618274 0.376983
N1    N     N_3   0.499750 0.138610 0.497240 -0.286548
N2    N     N_3   0.499750 0.861390 0.497240 -0.269230
Cl1   Cl    Cl    0.251173 0.576762 0.907199 -0.354191
Cl2   Cl    Cl    0.899596 0.595448 0.249338 -0.286786
Cl3   Cl    Cl    0.872547 0.334274 0.297684 -0.272719
Cl4   Cl    Cl    0.354551 0.124290 0.301967 -0.333695
Cl5   Cl    Cl    0.310347 0.841884 0.343210 -0.325334
Cl6   Cl    Cl    0.246986 0.141332 0.540194 -0.318556
Cl7   Cl    Cl    0.257448 0.861866 0.585754 -0.354326
Cl8   Cl    Cl    0.651759 0.158530 0.687891 -0.328987
Cl9   Cl    Cl    0.702730 0.884159 0.619572 -0.330578
N3    N     N_R   0.420415 0.110542 0.723745 0.244601
O9    O     O_R   0.434752 0.194455 0.811318 -0.287867
O10   O     O_R   0.328477 0.034286 0.749144 -0.203899
N4    N     N_R   0.501919 0.864054 0.741474 0.250838
O11   O     O_R   0.558896 0.896575 0.840037 -0.254015
O12   O     O_R   0.398913 0.804802 0.763682 -0.229102
Cl10  Cl    Cl    0.743378 0.103170 0.417800 -0.202732
Cl11  Cl    Cl    0.687599 0.829435 0.313662 -0.272169
Cl12  Cl    Cl    0.437337 0.785642 0.078315 -0.274827
Cl13  Cl    Cl    0.305155 0.302539 0.076811 -0.230370
Cl14  Cl    Cl    0.762964 0.424649 0.052475 -0.367102
Cl15  Cl    Cl    0.907861 0.789495 0.453969 -0.220791
Cl16  Cl    Cl    0.904983 0.239597 0.582224 -0.248001
Cl17  Cl    Cl    0.165369 0.555171 0.247571 -0.378863
Cl18  Cl    Cl    0.126739 0.297498 0.335391 -0.238434

loop_
_geom_bond_atom_site_label_1
_geom_bond_atom_site_label_2
_geom_bond_distance
_ccdc_geom_bond_type
C13   C15   1.538140 S    
C14   C16   1.537901 S    
C4    C8    1.431330 S    
C17   C18   1.582049 S    
C25   C26   1.632363 S    
C5    C9    1.544640 S    
C9    C11   1.537983 S    
O4    C2    1.331582 A    
O7    C4    1.317323 A    
C21   Cl6   1.778106 S    
N3    O10   1.292353 A    
C2    C12   1.459250 S    
C22   N2    1.527088 S    
C8    C9    1.529560 S    
N4    O12   1.295785 A    
O5    C3    1.335408 A    
C5    C12   1.544979 S    
C10   H2    1.105776 S    
C25   Cl8   1.804995 S    
C6    C7    1.534334 S    
C15   H7    1.113587 S    
C3    C19   1.545777 S    
C6    C10   1.539883 S    
C21   Cl4   1.794746 S    
C17   Cl17  1.807616 S    
C11   C12   1.538952 S    
H9    C23   1.109907 S    
C24   Cl11  1.767543 S    
H10   C24   1.104704 S    
O3    Zn1   2.024976 S    
C23   Cl10  1.741565 S    
Zn1   O7    2.018581 S    
C25   N1    1.532149 S    
C13   H5    1.111518 S    
C26   N2    1.552416 S    
C25   N3    1.513654 S    
C26   N4    1.490197 S    
C17   C20   1.583906 S    
O3    C2    1.323739 A    
C7    Cl1   1.786377 S    
C21   C22   1.640698 S    
C16   Cl16  1.761092 S    
C20   Cl3   1.782767 S    
N3    O9    1.289968 A    
C5    Cl12  1.771279 S    
C15   C19   1.596530 S    
O1    C1    1.330336 A    
C16   H8    1.113490 S    
C9    H1    1.110091 S    
C23   C24   1.589698 S    
C19   C20   1.576976 S    
Zn2   O8    2.025053 S    
C22   Cl7   1.778785 S    
C7    C8    1.522075 S    
C6    Cl13  1.767900 S    
C16   C19   1.594215 S    
C14   C18   1.534465 S    
O8    C4    1.325732 A    
C17   Cl18  1.779187 S    
C14   H6    1.114612 S    
C26   Cl9   1.788957 S    
C21   N1    1.541895 S    
Zn1   O5    2.090644 S    
C6    C12   1.537508 S    
O1    Zn1   2.086872 S    
O2    Zn2   2.091392 S    
O6    C3    1.355860 A    
O4    Zn2   2.018499 S    
C5    C7    1.533195 S    
C20   Cl2   1.799808 S    
C13   H3    1.107668 S    
C14   H4    1.095582 S    
Zn1   N2    2.112732 S    
O2    C1    1.341048 A    
Zn2   N1    2.113158 S    
C11   Cl14  1.760760 S    
C1    C18   1.506032 S    
C8    C10   1.525514 S    
N4    O11   1.303889 A    
C13   C18   1.532509 S    
C15   Cl15  1.779162 S    
C10   C11   1.531874 S    
Zn2   O6    2.086125 S    
C22   Cl5   1.807777 S    
C23   N1    1.529894 S    
C24   N2    1.513056 S    
