data_mof_unit_48857.cif
_audit_creation_date              2012-10-26T20:43:01-0400
_audit_creation_method            fapswitch 2.2
_symmetry_space_group_name_H-M    P1
_symmetry_Int_Tables_number       1
_space_group_crystal_system       triclinic
_cell_length_a                    10.866429
_cell_length_b                    9.506213
_cell_length_c                    15.089925
_cell_angle_alpha                 88.958439
_cell_angle_beta                  89.049568
_cell_angle_gamma                 90.061038
_cell_volume                      1558.29452652

loop_
_atom_site_label
_atom_site_type_symbol
_atom_type_description
_atom_site_fract_x
_atom_site_fract_y
_atom_site_fract_z
_atom_type_partial_charge
C1    C     C_R   0.262241 0.499727 0.499794 0.609522
C2    C     C_R   0.128475 0.499250 0.500263 -0.051603
C3    C     C_R   0.431435 0.076086 0.440632 0.051257
C4    C     C_R   0.568618 0.923917 0.559337 0.044953
C5    C     C_R   0.568662 0.072752 0.559243 0.037001
C6    C     C_R   0.431884 0.927229 0.440400 0.055841
C7    C     C_R   0.502021 0.501155 0.328786 0.573044
C8    C     C_R   0.497433 0.498652 0.671338 0.580434
C9    C     C_R   0.562637 0.598162 0.811221 -0.157847
C10   C     C_R   0.420860 0.414454 0.189477 -0.145406
C11   C     C_R   0.494622 0.496385 0.768180 0.027917
C12   C     C_R   0.737851 0.500720 0.501430 0.600474
C13   C     C_R   0.501177 0.504135 0.232244 0.021146
C14   C     C_R   0.423025 0.397570 0.816964 0.117331
C15   C     C_R   0.578977 0.595845 0.183403 0.114853
C16   C     C_R   0.417239 0.405530 0.910334 -0.003248
C17   C     C_R   0.569810 0.603289 0.090241 -0.013288
C18   C     C_R   0.490414 0.506080 0.953569 0.002892
C19   C     C_R   0.490872 0.508975 0.046966 -0.002000
C20   C     C_R   0.564723 0.602140 0.903586 0.017574
C21   C     C_R   0.415387 0.414505 0.097042 0.039537
C22   C     C_R   0.340665 0.315029 0.961364 -0.118945
C23   C     C_R   0.337394 0.320379 0.053728 0.137491
C24   C     C_R   0.641083 0.699326 0.039456 -0.092340
C25   C     C_3   0.410878 0.156916 0.768328 -0.260740
C26   C     C_3   0.793081 0.593798 0.220281 -0.262100
C27   C     C_3   0.140799 0.291451 0.127883 -0.299042
C28   C     C_3   0.656375 0.931302 0.878975 -0.303252
C29   C     C_R   0.638697 0.700620 0.947330 0.140815
C30   C     C_R   0.062901 0.397264 0.551145 0.217205
C31   C     C_R   0.937871 0.611559 0.458321 0.199944
C32   C     C_R   0.934648 0.398993 0.552508 0.215756
C33   C     C_R   0.065557 0.604396 0.452359 0.205287
C34   C     C_R   0.871747 0.503631 0.503960 -0.058294
Cl1   Cl    Cl    0.139165 0.268664 0.616563 -0.510811
Cl2   Cl    Cl    0.864810 0.760694 0.410227 -0.510078
Cl3   Cl    Cl    0.854675 0.276967 0.622672 -0.543392
Cl4   Cl    Cl    0.144369 0.723347 0.379342 -0.560046
Cu1   Cu    Cu3+1 0.500000 0.640660 0.500000 1.048260
Cu2   Cu    Cu3+1 0.500000 0.359340 0.500000 1.038857
H1    H     H_    0.615597 0.672728 0.771215 0.127618
H2    H     H_    0.406296 0.104605 0.834653 0.111396
H3    H     H_    0.508777 0.165258 0.746599 0.154040
H4    H     H_    0.361463 0.090744 0.720556 0.188609
H5    H     H_    0.681002 0.772575 0.215116 0.264445
H6    H     H_    0.815572 0.568520 0.150254 0.127612
H7    H     H_    0.790354 0.494979 0.260717 0.163205
H8    H     H_    0.868018 0.661689 0.244035 0.216021
H9    H     H_    0.245017 0.131754 0.073692 0.258298
H10   H     H_    0.086839 0.216025 0.170046 0.166672
H11   H     H_    0.086910 0.318194 0.067919 0.148945
H12   H     H_    0.363569 0.343425 0.229201 0.157588
H13   H     H_    0.155936 0.388260 0.166422 0.167155
H14   H     H_    0.766907 0.758555 0.849125 0.262038
H15   H     H_    0.724655 0.004659 0.847853 0.173009
H16   H     H_    0.618667 0.980308 0.939963 0.160952
H17   H     H_    0.580791 0.914374 0.831633 0.127510
H18   H     H_    0.281100 0.239833 0.930526 0.119625
H19   H     H_    0.701140 0.774035 0.070332 0.138545
H20   H     H_    0.376339 0.133486 0.393157 0.129272
H21   H     H_    0.623735 0.866556 0.606822 0.125413
H22   H     H_    0.623509 0.127446 0.606706 0.160125
H23   H     H_    0.377965 0.872512 0.392346 0.171322
H24   H     H_    0.262021 0.291978 0.787133 0.285651
N1    N     N_R   0.500000 0.852070 0.500000 -0.230660
N2    N     N_R   0.500000 0.147930 0.500000 -0.231758
N3    N     N_2   0.354521 0.294752 0.771015 -0.464262
N4    N     N_2   0.675844 0.665761 0.227486 -0.482072
N5    N     N_2   0.256967 0.228218 0.102645 -0.526857
N6    N     N_2   0.715567 0.799221 0.900648 -0.519142
O1    O     O_R   0.319640 0.618740 0.499990 -0.463582
O2    O     O_R   0.680360 0.381260 0.500010 -0.466414
O3    O     O_R   0.680360 0.618740 0.500010 -0.454076
O4    O     O_R   0.319640 0.381260 0.499990 -0.463137
O5    O     O_R   0.499970 0.618800 0.370260 -0.467407
O6    O     O_R   0.500030 0.381200 0.629740 -0.468411
O7    O     O_R   0.500030 0.618800 0.629740 -0.537250
O8    O     O_R   0.499970 0.381200 0.370260 -0.534994

loop_
_geom_bond_atom_site_label_1
_geom_bond_atom_site_label_2
_ccdc_geom_bond_type
C23   N5    S    
C25   N3    S    
C3    C6    A    
C10   H12   S    
C25   H3    S    
C28   H16   S    
C28   H17   S    
C1    O1    A    
C30   Cl1   S    
C1    O4    A    
Cu1   O7    S    
C19   C21   A    
C18   C19   A    
C8    C11   S    
C4    N1    A    
C11   C14   A    
C8    O6    A    
C1    C2    S    
C24   C29   A    
C6    N1    A    
C14   N3    S    
C31   C33   A    
Cu1   O5    S    
C18   C20   A    
C27   N5    S    
C27   H10   S    
C26   H8    S    
C3    H20   S    
C12   O2    A    
Cu2   N2    S    
C12   O3    A    
Cu1   N1    S    
C25   H4    S    
C28   H15   S    
C27   H11   S    
C20   C29   A    
C10   C21   A    
C17   C24   A    
H24   N3    S    
Cu1   Cu2   S    
C5    N2    A    
C7    O5    A    
C4    H21   S    
Cu2   O6    S    
C32   C34   A    
C6    H23   S    
C9    C20   A    
H14   N6    S    
H5    N4    S    
C31   C34   A    
C32   Cl3   S    
C9    C11   A    
C26   H7    S    
C7    O8    A    
C2    C33   A    
C13   C15   A    
C8    O7    A    
C14   C16   A    
C3    N2    A    
C12   C34   S    
C29   N6    S    
C15   C17   A    
C16   C22   A    
Cu2   O2    S    
C22   C23   A    
C28   N6    S    
C4    C5    A    
C10   C13   A    
C25   H2    S    
C22   H18   S    
C27   H13   S    
C9    H1    S    
C33   Cl4   S    
C2    C30   A    
C26   N4    S    
C21   C23   A    
C30   C32   A    
C24   H19   S    
C15   N4    S    
C17   C19   A    
Cu2   O4    S    
C5    H22   S    
Cu2   O8    S    
Cu1   O3    S    
C26   H6    S    
C7    C13   S    
C16   C18   A    
Cu1   O1    S    
C31   Cl2   S    
H9    N5    S    
