data_mof_unit_12617.cif
_audit_creation_date              2012-12-10T17:19:24-0500
_audit_creation_method            fapswitch 2.2
_symmetry_space_group_name_H-M    P1
_symmetry_Int_Tables_number       1
_space_group_crystal_system       triclinic
_cell_length_a                    18.292834
_cell_length_b                    18.292836
_cell_length_c                    34.465795
_cell_angle_alpha                 90.101994
_cell_angle_beta                  90.102006
_cell_angle_gamma                 90.012692
_cell_volume                      11533.1767387

loop_
_atom_site_label
_atom_site_type_symbol
_atom_type_description
_atom_site_fract_x
_atom_site_fract_y
_atom_site_fract_z
_atom_type_partial_charge
C1    C     C_R   0.470733 0.131490 0.520221 0.297506
C2    C     C_R   0.029372 0.368483 0.979777 0.294594
C3    C     C_R   0.434260 0.015529 0.959300 -0.023948
C4    C     C_R   0.006744 0.432879 0.040622 -0.019768
C5    C     C_R   0.993488 0.567154 0.959381 -0.027531
C6    C     C_R   0.432845 0.006512 0.040619 -0.027531
C7    C     C_R   0.567121 0.993256 0.959377 -0.019769
C8    C     C_R   0.999952 0.499956 0.644084 0.830746
C9    C     C_R   0.000048 0.500052 0.355916 0.831177
C10   C     C_R   0.499948 0.999952 0.644084 0.831177
C11   C     C_R   0.500044 0.000048 0.355916 0.830746
C12   C     C_R   0.499952 0.999956 0.144084 0.830745
C13   C     C_R   0.631517 0.970628 0.020223 0.294595
C14   C     C_R   0.500048 0.000052 0.855916 0.831177
C15   C     C_R   0.999948 0.499952 0.144084 0.831177
C16   C     C_R   0.000044 0.500048 0.855916 0.830745
C17   C     C_R   0.860151 0.639849 0.750000 0.780475
C18   C     C_R   0.139849 0.360151 0.250000 0.781602
C19   C     C_R   0.360018 0.860335 0.749863 0.785133
C20   C     C_R   0.639982 0.139664 0.250136 0.784774
C21   C     C_R   0.139815 0.360185 0.750000 0.780087
C22   C     C_R   0.860185 0.639815 0.250000 0.779735
C23   C     C_R   0.639665 0.139982 0.750137 0.785133
C24   C     C_R   0.368510 0.029267 0.979779 0.297507
C25   C     C_R   0.360335 0.860018 0.249864 0.784774
C26   C     C_R   0.860018 0.360335 0.249863 0.785133
C27   C     C_R   0.139982 0.639664 0.750136 0.784774
C28   C     C_R   0.360151 0.139849 0.250000 0.780474
C29   C     C_R   0.639849 0.860151 0.750000 0.781602
C30   C     C_R   0.139665 0.639982 0.250137 0.785133
C31   C     C_R   0.860336 0.360018 0.749864 0.784775
C32   C     C_R   0.639815 0.860185 0.250000 0.780087
C33   C     C_R   0.360185 0.139815 0.750000 0.779736
C34   C     C_R   0.283344 0.609880 0.780301 -0.284062
C35   C     C_R   0.015370 0.366212 0.020100 0.298987
C36   C     C_R   0.716649 0.390121 0.219703 -0.284576
C37   C     C_R   0.262333 0.154747 0.685288 -0.276191
C38   C     C_R   0.737611 0.845201 0.314731 -0.276386
C39   C     C_R   0.718033 0.390435 0.780526 -0.287490
C40   C     C_R   0.281975 0.609561 0.219482 -0.288297
C41   C     C_R   0.732018 0.839553 0.683525 -0.266625
C42   C     C_R   0.268024 0.160485 0.316487 -0.268081
C43   C     C_R   0.160447 0.267982 0.316475 -0.266626
C44   C     C_R   0.839515 0.731976 0.683513 -0.268081
C45   C     C_R   0.390120 0.716656 0.219699 -0.284062
C46   C     C_R   0.984922 0.633841 0.979923 0.302897
C47   C     C_R   0.609879 0.283350 0.780297 -0.284576
C48   C     C_R   0.845253 0.737667 0.314712 -0.276192
C49   C     C_R   0.154799 0.262389 0.685269 -0.276386
C50   C     C_R   0.609565 0.281966 0.219473 -0.287490
C51   C     C_R   0.390439 0.718025 0.780518 -0.288297
C52   C     C_R   0.783344 0.109880 0.280301 -0.284063
C53   C     C_R   0.216649 0.890121 0.719703 -0.284576
C54   C     C_R   0.762333 0.654747 0.185288 -0.276191
C55   C     C_R   0.237611 0.345201 0.814731 -0.276386
C56   C     C_R   0.218033 0.890435 0.280526 -0.287490
C57   C     C_R   0.366159 0.015078 0.020077 0.302897
C58   C     C_R   0.781975 0.109561 0.719482 -0.288296
C59   C     C_R   0.232018 0.339553 0.183525 -0.266625
C60   C     C_R   0.768024 0.660485 0.816487 -0.268081
C61   C     C_R   0.660447 0.767981 0.816474 -0.266625
C62   C     C_R   0.339515 0.231976 0.183513 -0.268080
C63   C     C_R   0.890120 0.216656 0.719699 -0.284063
C64   C     C_R   0.109879 0.783350 0.280297 -0.284576
C65   C     C_R   0.345253 0.237667 0.814712 -0.276195
C66   C     C_R   0.654799 0.762389 0.185269 -0.276386
C67   C     C_R   0.109565 0.781966 0.719473 -0.287490
C68   C     C_R   0.633787 0.984630 0.979900 0.298986
C69   C     C_R   0.890439 0.218025 0.280518 -0.288297
C70   C     C_R   0.352660 0.594680 0.795172 0.411337
C71   C     C_R   0.647330 0.405320 0.204835 0.411562
C72   C     C_R   0.215197 0.161216 0.653606 0.420429
C73   C     C_R   0.784759 0.838747 0.346408 0.420821
C74   C     C_R   0.649016 0.406338 0.795392 0.407003
C75   C     C_R   0.350991 0.593664 0.204610 0.407074
C76   C     C_R   0.775756 0.829740 0.650816 0.436171
C77   C     C_R   0.224275 0.170287 0.349193 0.437153
C78   C     C_R   0.170260 0.224244 0.349184 0.436171
C79   C     C_R   0.320689 0.734204 0.764836 0.017648
C80   C     C_R   0.829713 0.775725 0.650807 0.437153
C81   C     C_R   0.405320 0.647340 0.204828 0.411337
C82   C     C_R   0.594680 0.352670 0.795165 0.411561
C83   C     C_R   0.838784 0.784803 0.346394 0.420429
C84   C     C_R   0.161253 0.215241 0.653592 0.420821
C85   C     C_R   0.593662 0.350984 0.204608 0.407002
C86   C     C_R   0.406336 0.649009 0.795390 0.407074
C87   C     C_R   0.852660 0.094680 0.295172 0.411337
C88   C     C_R   0.147330 0.905320 0.704835 0.411562
C89   C     C_R   0.715197 0.661216 0.153606 0.420429
C90   C     C_R   0.679314 0.265791 0.235158 0.018377
C91   C     C_R   0.284759 0.338747 0.846408 0.420822
C92   C     C_R   0.149016 0.906338 0.295392 0.407003
C93   C     C_R   0.850991 0.093664 0.704610 0.407073
C94   C     C_R   0.275756 0.329740 0.150816 0.436171
C95   C     C_R   0.724275 0.670287 0.849193 0.437152
C96   C     C_R   0.670260 0.724244 0.849184 0.436172
C97   C     C_R   0.329713 0.275725 0.150807 0.437153
C98   C     C_R   0.905320 0.147340 0.704828 0.411338
C99   C     C_R   0.094680 0.852670 0.295165 0.411561
C100  C     C_R   0.338784 0.284803 0.846394 0.420430
C101  C     C_R   0.202542 0.257040 0.717557 0.016123
C102  C     C_R   0.661253 0.715241 0.153592 0.420821
C103  C     C_R   0.093662 0.850984 0.704608 0.407003
C104  C     C_R   0.906336 0.149009 0.295390 0.407073
C105  C     C_R   0.498576 0.999780 0.520309 -0.024339
C106  C     C_R   0.501681 0.000244 0.479692 -0.022322
C107  C     C_R   0.999756 0.498319 0.520308 -0.022322
C108  C     C_R   0.000219 0.501424 0.479691 -0.024339
C109  C     C_R   0.998576 0.499780 0.020309 -0.024339
C110  C     C_R   0.001681 0.500244 0.979692 -0.022322
C111  C     C_R   0.499756 0.998319 0.020308 -0.022322
C112  C     C_R   0.529372 0.868483 0.479777 0.294595
C113  C     C_R   0.797472 0.742974 0.282438 0.016264
C114  C     C_R   0.500219 0.001424 0.979691 -0.024339
C115  C     C_R   0.679527 0.266358 0.764846 0.017007
C116  C     C_R   0.320475 0.733642 0.235156 0.017396
C117  C     C_R   0.794632 0.740149 0.716710 0.017413
C118  C     C_R   0.205359 0.259838 0.283286 0.017676
C119  C     C_R   0.259851 0.205368 0.283290 0.017414
C120  C     C_R   0.740161 0.794641 0.716714 0.017676
C121  C     C_R   0.265796 0.679311 0.235164 0.017649
C122  C     C_R   0.734209 0.320686 0.764842 0.018377
C123  C     C_R   0.742960 0.797458 0.282443 0.016123
C124  C     C_R   0.131517 0.470628 0.520223 0.294595
C125  C     C_R   0.257026 0.202528 0.717562 0.016263
C126  C     C_R   0.733641 0.320473 0.235154 0.017007
C127  C     C_R   0.266358 0.679525 0.764844 0.017396
C128  C     C_R   0.820689 0.234204 0.264836 0.017649
C129  C     C_R   0.179313 0.765791 0.735159 0.018377
C130  C     C_R   0.702542 0.757040 0.217557 0.016123
C131  C     C_R   0.297472 0.242974 0.782438 0.016264
C132  C     C_R   0.179527 0.766358 0.264846 0.017007
C133  C     C_R   0.820475 0.233642 0.735156 0.017396
C134  C     C_R   0.294632 0.240149 0.216710 0.017413
C135  C     C_R   0.868510 0.529267 0.479779 0.297506
C136  C     C_R   0.705359 0.759838 0.783286 0.017676
C137  C     C_R   0.759851 0.705368 0.783289 0.017413
C138  C     C_R   0.240161 0.294641 0.216714 0.017676
C139  C     C_R   0.765795 0.179311 0.735164 0.017649
C140  C     C_R   0.234209 0.820686 0.264841 0.018377
C141  C     C_R   0.242960 0.297458 0.782443 0.016123
C142  C     C_R   0.757026 0.702528 0.217562 0.016262
C143  C     C_R   0.233642 0.820473 0.735154 0.017007
C144  C     C_R   0.766358 0.179525 0.264844 0.017396
C145  C     C_R   0.303940 0.804157 0.749917 -0.041673
C146  C     C_R   0.515370 0.866213 0.520100 0.298986
C147  C     C_R   0.696061 0.195841 0.250080 -0.040287
C148  C     C_R   0.195954 0.304046 0.750000 -0.038510
C149  C     C_R   0.804046 0.695954 0.250000 -0.038299
C150  C     C_R   0.695843 0.196060 0.750083 -0.041673
C151  C     C_R   0.304159 0.803939 0.249920 -0.040287
C152  C     C_R   0.804031 0.695969 0.750000 -0.039269
C153  C     C_R   0.195970 0.304030 0.250000 -0.039806
C154  C     C_R   0.304031 0.195969 0.250000 -0.039269
C155  C     C_R   0.695970 0.804030 0.750000 -0.039805
C156  C     C_R   0.195843 0.696060 0.250083 -0.041673
C157  C     C_R   0.484922 0.133841 0.479923 0.302897
C158  C     C_R   0.804159 0.303939 0.749920 -0.040287
C159  C     C_R   0.695954 0.804046 0.250000 -0.038510
C160  C     C_R   0.304046 0.195954 0.750000 -0.038299
C161  C     C_R   0.803940 0.304157 0.249917 -0.041673
C162  C     C_R   0.196061 0.695841 0.750080 -0.040287
C163  C     C_R   0.508099 0.934539 0.581271 -0.060265
C164  C     C_R   0.491989 0.065470 0.418729 -0.067241
C165  C     C_R   0.934530 0.508011 0.581271 -0.067241
C166  C     C_R   0.065461 0.491901 0.418729 -0.060266
C167  C     C_R   0.486455 0.064714 0.581355 -0.068144
C168  C     C_R   0.866159 0.515078 0.520077 0.302897
C169  C     C_R   0.513597 0.935288 0.418643 -0.068130
C170  C     C_R   0.064712 0.486403 0.581357 -0.068131
C171  C     C_R   0.935286 0.513545 0.418645 -0.068144
C172  C     C_R   0.008099 0.434539 0.081271 -0.060266
C173  C     C_R   0.991989 0.565470 0.918729 -0.067241
C174  C     C_R   0.434530 0.008011 0.081271 -0.067240
C175  C     C_R   0.565461 0.991901 0.918729 -0.060264
C176  C     C_R   0.986455 0.564714 0.081355 -0.068144
C177  C     C_R   0.013597 0.435288 0.918643 -0.068131
C178  C     C_R   0.564712 0.986403 0.081357 -0.068131
C179  C     C_R   0.133787 0.484630 0.479900 0.298986
C180  C     C_R   0.435286 0.013545 0.918645 -0.068145
C181  C     C_R   0.498263 0.999779 0.601557 -0.106854
C182  C     C_R   0.501774 0.000223 0.398444 -0.106778
C183  C     C_R   0.999777 0.498226 0.601555 -0.106778
C184  C     C_R   0.000221 0.501737 0.398443 -0.106854
C185  C     C_R   0.998263 0.499779 0.101557 -0.106854
C186  C     C_R   0.001774 0.500223 0.898444 -0.106778
C187  C     C_R   0.499777 0.998226 0.101555 -0.106778
C188  C     C_R   0.500221 0.001737 0.898443 -0.106854
C189  C     C_R   0.484470 0.065740 0.540700 -0.023949
C190  C     C_R   0.970733 0.631489 0.020221 0.297506
C191  C     C_R   0.515687 0.934260 0.459298 -0.021893
C192  C     C_R   0.065740 0.484313 0.540702 -0.021893
C193  C     C_R   0.934260 0.515529 0.459300 -0.023948
C194  C     C_R   0.506743 0.932879 0.540622 -0.019768
C195  C     C_R   0.493488 0.067154 0.459381 -0.027531
C196  C     C_R   0.932845 0.506512 0.540619 -0.027531
C197  C     C_R   0.067120 0.493257 0.459378 -0.019768
C198  C     C_R   0.984470 0.565740 0.040700 -0.023948
C199  C     C_R   0.015687 0.434260 0.959298 -0.021893
C200  C     C_R   0.565740 0.984313 0.040702 -0.021893
Cl1   Cl    Cl    0.005981 0.867441 0.685526 -0.405178
Cl2   Cl    Cl    0.738274 0.613709 0.889764 -0.392792
Cl3   Cl    Cl    0.132559 0.994018 0.314474 -0.405178
Cl4   Cl    Cl    0.867452 0.005984 0.685530 -0.404895
Cl5   Cl    Cl    0.724187 0.599855 0.114531 -0.366204
Cl6   Cl    Cl    0.275664 0.400016 0.885517 -0.366921
Cl7   Cl    Cl    0.870516 0.007002 0.313596 -0.400379
Cl8   Cl    Cl    0.129455 0.993009 0.686433 -0.400407
Cl9   Cl    Cl    0.505981 0.367441 0.185526 -0.405178
Cl10  Cl    Cl    0.494016 0.632548 0.814470 -0.404896
Cl11  Cl    Cl    0.900145 0.775813 0.385468 -0.366204
Cl12  Cl    Cl    0.994016 0.132548 0.314470 -0.404895
Cl13  Cl    Cl    0.099984 0.224336 0.614483 -0.366923
Cl14  Cl    Cl    0.492998 0.629484 0.186404 -0.400379
Cl15  Cl    Cl    0.506991 0.370544 0.813567 -0.400407
Cl16  Cl    Cl    0.113623 0.238180 0.389738 -0.397425
Cl17  Cl    Cl    0.886291 0.761726 0.610236 -0.392793
Cl18  Cl    Cl    0.761820 0.886377 0.610262 -0.397425
Cl19  Cl    Cl    0.238274 0.113709 0.389764 -0.392793
Cl20  Cl    Cl    0.632559 0.494018 0.814474 -0.405178
Cl21  Cl    Cl    0.367452 0.505984 0.185530 -0.404896
Cl22  Cl    Cl    0.224187 0.099855 0.614531 -0.366205
Cl23  Cl    Cl    0.400145 0.275813 0.885469 -0.366202
Cl24  Cl    Cl    0.775664 0.900016 0.385517 -0.366923
Cl25  Cl    Cl    0.370516 0.507002 0.813596 -0.400379
Cl26  Cl    Cl    0.629455 0.493009 0.186433 -0.400407
Cl27  Cl    Cl    0.599984 0.724336 0.114483 -0.366923
Cl28  Cl    Cl    0.992998 0.129484 0.686404 -0.400379
Cl29  Cl    Cl    0.006991 0.870545 0.313567 -0.400406
Cl30  Cl    Cl    0.613623 0.738180 0.889738 -0.397425
Cl31  Cl    Cl    0.386291 0.261726 0.110236 -0.392792
Cl32  Cl    Cl    0.261820 0.386377 0.110262 -0.397425
H1    H     H_    0.243086 0.566581 0.781256 0.175062
H2    H     H_    0.882912 0.691879 0.682514 0.174878
H3    H     H_    0.433419 0.756914 0.218744 0.175062
H4    H     H_    0.566575 0.243097 0.781247 0.175036
H5    H     H_    0.888566 0.697443 0.315631 0.177108
H6    H     H_    0.111529 0.302657 0.684333 0.177218
H7    H     H_    0.566709 0.241250 0.218277 0.174260
H8    H     H_    0.433299 0.758736 0.781709 0.174704
H9    H     H_    0.743086 0.066581 0.281256 0.175062
H10   H     H_    0.256903 0.933425 0.718753 0.175036
H11   H     H_    0.802557 0.611434 0.184369 0.177108
H12   H     H_    0.756903 0.433425 0.218753 0.175036
H13   H     H_    0.197343 0.388471 0.815667 0.177219
H14   H     H_    0.258750 0.933291 0.281723 0.174260
H15   H     H_    0.741263 0.066701 0.718291 0.174703
H16   H     H_    0.191953 0.382982 0.182538 0.174664
H17   H     H_    0.808121 0.617088 0.817486 0.174877
H18   H     H_    0.617018 0.808047 0.817462 0.174664
H19   H     H_    0.382912 0.191879 0.182514 0.174877
H20   H     H_    0.933419 0.256914 0.718744 0.175062
H21   H     H_    0.066575 0.743097 0.281247 0.175036
H22   H     H_    0.388566 0.197443 0.815631 0.177108
H23   H     H_    0.302557 0.111434 0.684369 0.177108
H24   H     H_    0.611529 0.802657 0.184333 0.177219
H25   H     H_    0.066709 0.741250 0.718277 0.174260
H26   H     H_    0.933299 0.258736 0.281709 0.174703
H27   H     H_    0.520222 0.885723 0.597638 0.219356
H28   H     H_    0.479776 0.114261 0.402357 0.220807
H29   H     H_    0.885739 0.520224 0.597643 0.220807
H30   H     H_    0.114277 0.479778 0.402362 0.219356
H31   H     H_    0.481527 0.114804 0.597767 0.219178
H32   H     H_    0.518435 0.885206 0.402222 0.219137
H33   H     H_    0.114794 0.481565 0.597778 0.219138
H34   H     H_    0.697343 0.888471 0.315667 0.177219
H35   H     H_    0.885195 0.518473 0.402233 0.219178
H36   H     H_    0.020223 0.385723 0.097638 0.219355
H37   H     H_    0.979775 0.614261 0.902357 0.220807
H38   H     H_    0.385739 0.020224 0.097643 0.220809
H39   H     H_    0.614277 0.979777 0.902362 0.219358
H40   H     H_    0.981527 0.614804 0.097767 0.219178
H41   H     H_    0.018435 0.385205 0.902222 0.219137
H42   H     H_    0.614794 0.981565 0.097778 0.219138
H43   H     H_    0.385196 0.018473 0.902233 0.219176
H44   H     H_    0.350050 0.219799 0.591140 0.389978
H45   H     H_    0.758750 0.433291 0.781722 0.174260
H46   H     H_    0.649173 0.779480 0.408675 0.390062
H47   H     H_    0.220521 0.350827 0.591325 0.390061
H48   H     H_    0.780201 0.649948 0.408859 0.389977
H49   H     H_    0.431892 0.744911 0.591955 0.399539
H50   H     H_    0.436796 0.290460 0.419343 0.404826
H51   H     H_    0.709540 0.563204 0.580657 0.404826
H52   H     H_    0.255088 0.568107 0.408045 0.399538
H53   H     H_    0.850050 0.719799 0.091140 0.389978
H54   H     H_    0.149173 0.279480 0.908675 0.390062
H55   H     H_    0.720520 0.850826 0.091325 0.390061
H56   H     H_    0.241263 0.566701 0.218291 0.174703
H57   H     H_    0.280201 0.149944 0.908857 0.389974
H58   H     H_    0.931895 0.244913 0.091956 0.399539
H59   H     H_    0.936795 0.790460 0.919343 0.404826
H60   H     H_    0.209536 0.063206 0.080654 0.404830
H61   H     H_    0.755092 0.068111 0.908047 0.399539
H62   H     H_    0.691953 0.882982 0.682538 0.174664
H63   H     H_    0.308121 0.117088 0.317486 0.174878
H64   H     H_    0.117018 0.308047 0.317462 0.174664
O1    O     O_3   1.000000 0.500000 0.750000 -0.511268
O2    O     O_R   0.060740 0.500000 0.337440 -0.632780
O3    O     O_3   0.708940 0.068139 0.923037 -0.546327
O4    O     O_R   0.500000 0.939260 0.662560 -0.632780
O5    O     O_R   0.500000 0.060740 0.337440 -0.631017
O6    O     O_R   0.560740 0.000000 0.162560 -0.635727
O7    O     O_R   0.439260 0.000000 0.837440 -0.634910
O8    O     O_R   1.000000 0.560740 0.162560 -0.634910
O9    O     O_R   0.000000 0.439260 0.837440 -0.635727
O10   O     O_R   0.439260 0.000000 0.162560 -0.631017
O11   O     O_R   0.560740 0.000000 0.837440 -0.632778
O12   O     O_R   1.000000 0.439260 0.162560 -0.632780
O13   O     O_3   1.000000 0.500000 0.250000 -0.510341
O14   O     O_R   1.000000 0.560740 0.837440 -0.631017
O15   O     O_R   0.853850 0.585450 0.727070 -0.630775
O16   O     O_R   0.146150 0.414550 0.272930 -0.630963
O17   O     O_R   0.414550 0.853850 0.727070 -0.626196
O18   O     O_R   0.585450 0.146150 0.272930 -0.621691
O19   O     O_R   0.146150 0.414550 0.727070 -0.629469
O20   O     O_R   0.853850 0.585450 0.272930 -0.629237
O21   O     O_R   0.585450 0.146150 0.727070 -0.625276
O22   O     O_R   0.414550 0.853850 0.272930 -0.627848
O23   O     O_R   0.853850 0.414550 0.272930 -0.625276
O24   O     O_3   0.500000 1.000000 0.750000 -0.510341
O25   O     O_R   0.146150 0.585450 0.727070 -0.627848
O26   O     O_R   0.414550 0.146150 0.272930 -0.630775
O27   O     O_R   0.585450 0.853850 0.727070 -0.630962
O28   O     O_R   0.146150 0.585450 0.272930 -0.626196
O29   O     O_R   0.853850 0.414550 0.727070 -0.621691
O30   O     O_R   0.585450 0.853850 0.272930 -0.629469
O31   O     O_R   0.414550 0.146150 0.727070 -0.629237
O32   O     O_R   0.353850 0.085450 0.227070 -0.630775
O33   O     O_R   0.646150 0.914550 0.772930 -0.630963
O34   O     O_R   0.914550 0.353850 0.227070 -0.626196
O35   O     O_3   0.500000 0.000000 0.250000 -0.511268
O36   O     O_R   0.085450 0.646150 0.772930 -0.621690
O37   O     O_R   0.646150 0.914550 0.227070 -0.629468
O38   O     O_R   0.353850 0.085450 0.772930 -0.629238
O39   O     O_R   0.085450 0.646150 0.227070 -0.625275
O40   O     O_R   0.914550 0.353850 0.772930 -0.627848
O41   O     O_R   0.353850 0.914550 0.772930 -0.625276
O42   O     O_R   0.646150 0.085450 0.227070 -0.627848
O43   O     O_R   0.914550 0.646150 0.772930 -0.630775
O44   O     O_R   0.085450 0.353850 0.227070 -0.630962
O45   O     O_R   0.646150 0.085450 0.772930 -0.626195
O46   O     O_R   0.060740 0.500000 0.662560 -0.635727
O47   O     O_R   0.353850 0.914550 0.227070 -0.621690
O48   O     O_R   0.085450 0.353850 0.772930 -0.629468
O49   O     O_R   0.914550 0.646150 0.227070 -0.629237
O50   O     O_2   0.484129 0.252436 0.564080 -0.240993
O51   O     O_2   0.385283 0.253051 0.515788 -0.128025
O52   O     O_3   0.367527 0.175571 0.577364 -0.525887
O53   O     O_2   0.614037 0.746279 0.484015 -0.130778
O54   O     O_2   0.514951 0.747705 0.435881 -0.244798
O55   O     O_3   0.632021 0.823798 0.422484 -0.526633
O56   O     O_2   0.253721 0.385963 0.515984 -0.130779
O57   O     O_R   0.939260 0.500000 0.337440 -0.634910
O58   O     O_2   0.252295 0.485049 0.564118 -0.244798
O59   O     O_3   0.176202 0.367979 0.577516 -0.526633
O60   O     O_2   0.747564 0.515871 0.435920 -0.240995
O61   O     O_2   0.746949 0.614716 0.484212 -0.128023
O62   O     O_3   0.824429 0.632473 0.422636 -0.525886
O63   O     O_2   0.475819 0.722740 0.515915 -0.151045
O64   O     O_2   0.567871 0.757507 0.564478 -0.234662
O65   O     O_3   0.431861 0.791060 0.576963 -0.546327
O66   O     O_2   0.523086 0.277712 0.484270 -0.150188
O67   O     O_2   0.561289 0.210739 0.426768 -0.282461
O68   O     O_R   0.500000 0.060740 0.662560 -0.634910
O69   O     O_3   0.423897 0.244577 0.432928 -0.483877
O70   O     O_2   0.722288 0.476913 0.515730 -0.150188
O71   O     O_2   0.789261 0.438711 0.573232 -0.282461
O72   O     O_3   0.755423 0.576103 0.567072 -0.483877
O73   O     O_2   0.277259 0.524181 0.484084 -0.151044
O74   O     O_2   0.242493 0.432129 0.435522 -0.234664
O75   O     O_3   0.208940 0.568139 0.423037 -0.546327
O76   O     O_2   0.984128 0.752436 0.064080 -0.240993
O77   O     O_2   0.885283 0.753051 0.015788 -0.128025
O78   O     O_3   0.867527 0.675571 0.077364 -0.525887
O79   O     O_R   0.500000 0.939260 0.337440 -0.635727
O80   O     O_2   0.114037 0.246279 0.984015 -0.130778
O81   O     O_2   0.014952 0.247705 0.935882 -0.244799
O82   O     O_3   0.132021 0.323799 0.922484 -0.526632
O83   O     O_2   0.753721 0.885963 0.015985 -0.130779
O84   O     O_2   0.752295 0.985048 0.064118 -0.244798
O85   O     O_3   0.676201 0.867979 0.077516 -0.526632
O86   O     O_2   0.247564 0.015871 0.935920 -0.240999
O87   O     O_2   0.246948 0.114716 0.984212 -0.128022
O88   O     O_3   0.324429 0.132473 0.922636 -0.525883
O89   O     O_2   0.975820 0.222740 0.015916 -0.151044
O90   O     O_R   0.939260 0.500000 0.662560 -0.631018
O91   O     O_2   0.067872 0.257507 0.064478 -0.234665
O92   O     O_3   0.931862 0.291060 0.076963 -0.546328
O93   O     O_2   0.023086 0.777712 0.984270 -0.150188
O94   O     O_2   0.061289 0.710739 0.926768 -0.282461
O95   O     O_3   0.923897 0.744577 0.932928 -0.483877
O96   O     O_2   0.222288 0.976913 0.015730 -0.150193
O97   O     O_2   0.289261 0.938711 0.073232 -0.282456
O98   O     O_3   0.255423 0.076103 0.067072 -0.483880
O99   O     O_2   0.777259 0.024181 0.984085 -0.151051
O100  O     O_2   0.742493 0.932128 0.935522 -0.234659
S1    S     S_3+6 0.427082 0.206637 0.544111 0.123112
S2    S     S_3+6 0.072410 0.293066 0.955799 0.120597
S3    S     S_3+6 0.706934 0.927590 0.044201 0.120597
S4    S     S_3+6 0.293363 0.072918 0.955889 0.123112
S5    S     S_3+6 0.999097 0.281075 0.044098 0.111981
S6    S     S_3+6 0.000879 0.719145 0.955981 0.115739
S7    S     S_3+6 0.280855 0.999121 0.044019 0.115738
S8    S     S_3+6 0.718925 0.000904 0.955902 0.111980
S9    S     S_3+6 0.572410 0.793066 0.455799 0.120596
S10   S     S_3+6 0.206934 0.427590 0.544201 0.120596
S11   S     S_3+6 0.793363 0.572918 0.455889 0.123112
S12   S     S_3+6 0.499096 0.781075 0.544098 0.111981
S13   S     S_3+6 0.500879 0.219145 0.455981 0.115739
S14   S     S_3+6 0.780855 0.499121 0.544019 0.115739
S15   S     S_3+6 0.218925 0.500904 0.455902 0.111982
S16   S     S_3+6 0.927082 0.706637 0.044111 0.123112
Zn1   Zn    Zn3+2 1.000000 0.586740 0.782740 1.014147
Zn2   Zn    Zn3+2 0.500000 0.913260 0.717260 1.009218
Zn3   Zn    Zn3+2 0.913260 0.500000 0.282740 1.010301
Zn4   Zn    Zn3+2 0.086740 0.500000 0.717260 1.008273
Zn5   Zn    Zn3+2 0.500000 0.913260 0.282740 1.008273
Zn6   Zn    Zn3+2 0.500000 0.086740 0.717260 1.010301
Zn7   Zn    Zn3+2 0.086740 0.500000 0.282740 1.009218
Zn8   Zn    Zn3+2 0.913260 0.500000 0.717260 1.014147
Zn9   Zn    Zn3+2 1.000000 0.413260 0.217260 1.009217
Zn10  Zn    Zn3+2 0.413260 1.000000 0.782740 1.010300
Zn11  Zn    Zn3+2 0.586740 1.000000 0.217260 1.008273
Zn12  Zn    Zn3+2 0.000000 0.413260 0.782740 1.008272
Zn13  Zn    Zn3+2 0.000000 0.586740 0.217260 1.010301
Zn14  Zn    Zn3+2 0.586740 1.000000 0.782740 1.009219
Zn15  Zn    Zn3+2 0.413260 1.000000 0.217260 1.014148
Zn16  Zn    Zn3+2 0.500000 0.086740 0.282740 1.014147

loop_
_geom_bond_atom_site_label_1
_geom_bond_atom_site_label_2
_ccdc_geom_bond_type
H47   O59   S    
C165  C196  A    
C101  C148  A    
C27   O25   A    
O31   Zn6   S    
O4    Zn2   S    
H46   O55   S    
O53   S9    D    
O29   Zn8   S    
C48   H5    S    
C164  C195  A    
C95   Cl2   S    
C15   C185  S    
O16   Zn7   S    
C52   C144  A    
C30   O39   A    
C63   C133  A    
O26   Zn16  S    
C58   H15   S    
C13   C200  A    
O15   Zn8   S    
C63   C98   A    
C27   C162  S    
C8    O90   A    
C56   C140  A    
C42   C119  A    
C11   O5    A    
C20   O18   A    
C27   O36   A    
C118  C153  A    
C133  C158  A    
C39   C74   A    
C9    O57   A    
O3    S8    S    
C99   Cl29  S    
C175  C188  A    
C50   C90   A    
C89   Cl5   S    
C34   C127  A    
C107  C192  A    
C12   O10   A    
C135  C168  A    
O20   Zn3   S    
C171  H35   S    
C59   H16   S    
C91   C100  A    
C146  C194  A    
O69   S13   S    
C98   Cl28  S    
C38   C123  A    
C36   C71   A    
O13   Zn13  S    
C29   C155  S    
C30   C156  S    
C63   H20   S    
C29   O27   A    
C67   C129  A    
C24   S4    S    
C167  C189  A    
O99   S8    D    
C36   C126  A    
O38   Zn10  S    
C1    S1    S    
C116  C121  A    
H49   O65   S    
C165  C183  A    
C105  C189  A    
C31   O29   A    
C166  C184  A    
C157  S13   S    
C6    C174  A    
C94   C97   A    
O68   Zn6   S    
C40   H56   S    
C120  C155  A    
C177  C186  A    
C130  C159  A    
O18   Zn16  S    
C103  Cl1   S    
H52   O75   S    
C11   O79   A    
C122  C158  A    
C31   O40   A    
C77   Cl19  S    
C128  C144  A    
C9    O2    A    
C72   C84   A    
C92   Cl3   S    
O13   Zn9   S    
C133  C139  A    
O82   S2    S    
C78   Cl16  S    
O30   Zn5   S    
C91   Cl6   S    
C105  C106  A    
O28   Zn7   S    
C79   C127  A    
C62   C134  A    
C139  C150  A    
O75   S15   S    
C32   O37   A    
C157  C195  A    
O11   Zn14  S    
C45   C81   A    
C85   Cl9   S    
C5    C46   A    
C17   O15   A    
C26   C161  S    
O45   Zn14  S    
C59   C138  A    
C18   O16   A    
C172  H36   S    
C9    C184  S    
C52   H9    S    
C112  C191  A    
C173  H37   S    
C123  C159  A    
H48   O62   S    
O87   S4    D    
C166  H30   S    
C41   C120  A    
C169  C182  A    
O96   S7    D    
C43   C118  A    
C82   Cl15  S    
C60   C95   A    
O83   S3    D    
O93   S6    D    
H60   O98   S    
C73   C83   A    
C17   O43   A    
C4    C109  A    
C121  C156  A    
C163  C181  A    
C6    C111  A    
C14   O11   A    
C171  C193  A    
O100  S8    D    
C61   C96   A    
C94   Cl32  S    
C15   O12   A    
O54   S9    D    
H44   O52   S    
C39   C122  A    
O57   Zn3   S    
C49   C84   A    
C50   H7    S    
C44   H2    S    
C111  C200  A    
C5    C110  A    
C163  H27   S    
C108  C197  A    
C124  S10   S    
C64   C99   A    
H54   O82   S    
C69   C128  A    
C112  C146  A    
C24   C57   A    
O48   Zn12  S    
C97   Cl31  S    
C101  C125  A    
C107  C108  A    
C51   H8    S    
O55   S9    S    
C172  C185  A    
O89   S5    D    
C131  C141  A    
C33   C160  S    
O95   S6    S    
C86   Cl10  S    
C7    C68   A    
H58   O92   S    
C170  H33   S    
C3    C24   A    
O73   S15   D    
C144  C147  A    
C135  S11   S    
C107  C196  A    
C26   O34   A    
O42   Zn11  S    
C13   S3    S    
O60   S11   D    
C105  C194  A    
O94   S6    D    
O6    Zn11  S    
C2    C199  A    
C21   C148  S    
C23   O21   A    
O80   S2    D    
C80   Cl17  S    
C136  C155  A    
O2    Zn7   S    
C61   H18   S    
C163  C194  A    
O44   Zn9   S    
C12   C187  S    
H57   O88   S    
C30   O28   A    
C3    C180  A    
C90   C147  A    
O70   S14   D    
C174  C187  A    
C62   C97   A    
O43   Zn1   S    
O98   S7    S    
O66   S13   D    
O47   Zn15  S    
O77   S16   D    
C167  H31   S    
C14   O7    A    
C8    C183  S    
C66   H24   S    
H51   O72   S    
C127  C162  A    
O35   Zn15  S    
C60   H17   S    
C33   O38   A    
C29   O33   A    
C169  C191  A    
C74   Cl20  S    
C84   Cl13  S    
C64   H21   S    
C35   S5    S    
C4    C172  A    
C5    C173  A    
O81   S2    D    
C76   C80   A    
C176  C198  A    
C136  C137  A    
C3    C114  A    
C18   O44   A    
C48   C83   A    
C25   C151  S    
C54   H11   S    
O64   S12   D    
O49   Zn13  S    
C45   C116  A    
O46   Zn4   S    
C132  C156  A    
O27   Zn2   S    
C130  C142  A    
O71   S14   D    
C51   C79   A    
C22   C149  S    
O50   S1    D    
O8    Zn13  S    
C16   O9    A    
C42   C77   A    
C177  C199  A    
O1    Zn8   S    
C104  Cl12  S    
O35   Zn11  S    
O33   Zn14  S    
C34   H1    S    
O40   Zn12  S    
O34   Zn9   S    
C92   C99   A    
C13   C68   A    
C1    C189  A    
C2    C35   A    
C28   O26   A    
C55   C141  A    
O23   Zn3   S    
O17   Zn2   S    
O79   Zn5   S    
C177  H41   S    
C176  C185  A    
C174  H38   S    
C77   C78   A    
C43   C78   A    
C47   C115  A    
C168  S14   S    
C146  S12   S    
C7    C114  A    
C58   C93   A    
C88   Cl8   S    
C180  H43   S    
C49   C101  A    
C170  C183  A    
O22   Zn5   S    
C124  C179  A    
C55   C91   A    
C180  C188  A    
C50   C85   A    
C64   C132  A    
C76   Cl18  S    
C137  C152  A    
O10   Zn15  S    
C59   C94   A    
C126  C161  A    
C34   C70   A    
O62   S11   S    
C32   C159  S    
C4    C35   A    
C142  C149  A    
O72   S14   S    
C43   H64   S    
C6    C57   A    
C109  C198  A    
C11   C182  S    
C74   C82   A    
O25   Zn4   S    
C51   C86   A    
C100  Cl23  S    
C8    O46   A    
C25   O22   A    
C16   O14   A    
O13   Zn3   S    
C33   O31   A    
C67   C103  A    
C36   H12   S    
C171  C184  A    
C44   C80   A    
O9    Zn12  S    
C23   O45   A    
C117  C120  A    
C112  S9    S    
O13   Zn7   S    
O61   S11   D    
O1    Zn4   S    
C14   C188  S    
O19   Zn4   S    
C10   O68   A    
C113  C123  A    
C65   H22   S    
O88   S4    S    
C140  C151  A    
C67   H25   S    
O63   S12   D    
C178  C187  A    
C138  C153  A    
O24   Zn6   S    
C62   H19   S    
C54   C142  A    
C23   C150  S    
C21   O19   A    
C119  C154  A    
C22   O20   A    
C71   Cl26  S    
C17   C152  S    
H55   O85   S    
O5    Zn16  S    
C124  C192  A    
C190  C198  A    
C47   H4    S    
O90   Zn8   S    
C178  C200  A    
C45   H3    S    
C65   C100  A    
C49   H6    S    
C106  C195  A    
C129  C143  A    
C132  C140  A    
H53   O78   S    
C68   S8    S    
C40   C75   A    
C166  C197  A    
C109  C110  A    
O14   Zn1   S    
C179  S15   S    
C134  C154  A    
C128  C161  A    
C41   C76   A    
C111  C114  A    
O24   Zn14  S    
C31   C158  S    
C164  C182  A    
C10   O4    A    
C87   C104  A    
C42   H63   S    
C37   C72   A    
O24   Zn2   S    
O36   Zn1   S    
C10   C181  S    
C61   C136  A    
C48   C113  A    
O51   S1    D    
C58   C139  A    
C26   O23   A    
C89   C102  A    
C66   C102  A    
C95   C96   A    
C70   Cl25  S    
C79   C145  A    
C167  C181  A    
C40   C121  A    
C19   C145  S    
O92   S5    S    
C15   O8    A    
C57   S7    S    
C2    S2    S    
O1    Zn12  S    
C170  C192  A    
C47   C82   A    
C93   Cl4   S    
C118  C119  A    
O24   Zn10  S    
C141  C148  A    
C71   C85   A    
C37   H23   S    
C7    C175  A    
O41   Zn10  S    
O84   S3    D    
O78   S16   S    
C96   Cl30  S    
C53   C88   A    
C60   C137  A    
C41   H62   S    
C178  H42   S    
C115  C122  A    
C28   C154  S    
C46   S6    S    
C106  C191  A    
C46   C190  A    
C65   C131  A    
C22   O49   A    
C37   C125  A    
C90   C126  A    
O59   S10   S    
C173  C186  A    
O76   S16   D    
O21   Zn6   S    
O32   Zn15  S    
C113  C149  A    
C53   H10   S    
C54   C89   A    
H59   O95   S    
O7    Zn10  S    
C75   C81   A    
C179  C197  A    
O58   S10   D    
C19   O41   A    
C56   H14   S    
C169  H32   S    
C53   C143  A    
H61   O3    S    
C20   O42   A    
O12   Zn9   S    
C135  C193  A    
C39   H45   S    
C125  C160  A    
C81   Cl14  S    
C72   Cl22  S    
C20   C147  S    
O67   S13   D    
C19   O17   A    
O52   S1    S    
H50   O69   S    
C87   Cl7   S    
C18   C153  S    
O1    Zn1   S    
C190  S16   S    
C164  H28   S    
C55   H13   S    
C165  H29   S    
C70   C86   A    
C175  H39   S    
O74   S15   D    
C25   O47   A    
C88   C103  A    
C176  H40   S    
C69   C104  A    
C143  C145  A    
O65   S12   S    
C73   Cl24  S    
C110  C199  A    
O97   S7    D    
C52   C87   A    
C134  C138  A    
O56   S10   D    
O37   Zn11  S    
O35   Zn5   S    
O39   Zn13  S    
C1    C157  A    
C38   H34   S    
C21   O48   A    
C16   C186  S    
C28   O32   A    
C44   C117  A    
O85   S3    S    
C115  C150  A    
O86   S4    D    
C102  Cl27  S    
C129  C162  A    
O91   S5    D    
C117  C152  A    
C116  C151  A    
C131  C160  A    
C56   C92   A    
C75   Cl21  S    
C12   O6    A    
C168  C196  A    
O35   Zn16  S    
C32   O30   A    
C108  C193  A    
C93   C98   A    
C83   Cl11  S    
C69   H26   S    
C66   C130  A    
C38   C73   A    
