data_mof_unit_50320.cif
_audit_creation_date              2012-12-10T20:34:11-0500
_audit_creation_method            fapswitch 2.2
_symmetry_space_group_name_H-M    P1
_symmetry_Int_Tables_number       1
_space_group_crystal_system       triclinic
_cell_length_a                    9.958138
_cell_length_b                    10.756335
_cell_length_c                    13.653403
_cell_angle_alpha                 91.36558
_cell_angle_beta                  84.015856
_cell_angle_gamma                 90.979056
_cell_volume                      1453.91871867

loop_
_atom_site_label
_atom_site_type_symbol
_atom_type_description
_atom_site_fract_x
_atom_site_fract_y
_atom_site_fract_z
_atom_type_partial_charge
C1    C     C_R   0.501306 0.739305 0.495949 0.993564
C2    C     C_1   0.462288 0.477950 0.787346 0.007385
C3    C     C_R   0.384410 0.934275 0.523126 0.006582
C4    C     C_R   0.502428 0.871335 0.491378 -0.303080
C5    C     C_R   0.618469 0.936742 0.453768 0.596451
C6    C     C_R   0.617269 0.065153 0.453305 0.563188
C7    C     C_R   0.498408 0.128177 0.487679 -0.379249
C8    C     C_R   0.381176 0.061849 0.520533 -0.043890
C9    C     C_3   0.243620 0.057515 0.482828 0.660263
C10   C     C_3   0.249860 0.917172 0.485198 -0.433866
C11   C     C_R   0.917464 0.503404 0.586298 -0.160222
C12   C     C_R   0.477095 0.495918 0.685108 0.924470
C13   C     C_R   0.940969 0.489838 0.414536 0.771259
C14   C     C_R   0.083737 0.491679 0.414622 -0.077280
C15   C     C_R   0.058938 0.500080 0.586888 0.060329
C16   C     C_3   0.055108 0.594657 0.669764 0.738007
C17   C     C_3   0.901408 0.595060 0.671371 0.126518
C18   C     C_R   0.499527 0.260454 0.495316 0.946170
C19   C     C_R   0.522872 0.498276 0.314881 0.868072
C20   C     C_1   0.537274 0.486912 0.212004 -0.040250
C21   C     C_2   0.558583 0.465660 0.021313 0.189198
C22   C     C_2   0.445693 0.450321 0.977207 0.561652
C23   C     C_1   0.450729 0.462887 0.873854 0.111729
C24   C     C_1   0.547984 0.475816 0.124954 0.067863
H1    H     H_    0.146404 0.487136 0.345127 0.206962
H2    H     H_    0.845332 0.551346 0.736301 0.170916
H3    H     H_    0.174349 0.874208 0.539438 0.286660
H4    H     H_    0.257404 0.869339 0.411694 0.220529
N1    N     N_R   0.857130 0.500860 0.500650 -0.119947
N2    N     N_R   0.142770 0.500820 0.500650 -0.109816
O1    O     O_R   0.385310 0.683210 0.499990 -0.603815
O2    O     O_R   0.614650 0.683240 0.500000 -0.509098
O3    O     O_R   0.368820 0.499950 0.640340 -0.547074
O4    O     O_R   0.598170 0.499990 0.640350 -0.619556
O5    O     O_R   0.385350 0.316760 0.500000 -0.558272
O6    O     O_R   0.614690 0.316790 0.500010 -0.572569
O7    O     O_R   0.401830 0.500010 0.359650 -0.625200
O8    O     O_R   0.631180 0.500050 0.359660 -0.537600
Zn1   Zn    Zn3+2 0.346870 0.499980 0.499990 1.100073
Zn2   Zn    Zn3+2 0.653130 0.500020 0.500010 1.139724
F1    F     F_    0.323372 0.434459 0.030361 -0.569591
S1    S     S_3+6 0.110257 0.546814 0.783697 0.134500
O9    O     O_2   0.229390 0.626778 0.804522 -0.213148
O10   O     O_2   0.002407 0.567711 0.867166 -0.179600
O11   O     O_3   0.153011 0.396139 0.778488 -0.503683
H5    H     H_    0.065940 0.349629 0.783095 0.397475
F2    F     F_    0.120172 0.703357 0.638786 -0.613242
S2    S     S_3+6 0.840163 0.746520 0.649940 0.143134
O12   O     O_2   0.689562 0.749472 0.672876 -0.258781
O13   O     O_2   0.901330 0.838837 0.717537 -0.163425
O14   O     O_3   0.885843 0.783853 0.532247 -0.484428
H6    H     H_    0.916972 0.871620 0.534760 0.421528
S3    S     S_3+6 0.719215 0.491150 0.957433 0.069862
O15   O     O_2   0.747561 0.391722 0.879136 -0.282343
O16   O     O_2   0.721566 0.615937 0.909908 -0.268052
O17   O     O_3   0.838049 0.488078 0.036395 -0.395845
H7    H     H_    0.830124 0.568478 0.073311 0.390288
F3    F     F_    0.728233 0.876841 0.409802 -0.558191
F4    F     F_    0.729259 0.127004 0.413651 -0.553042
S4    S     S_3+6 0.113225 0.119825 0.570495 0.079469
O18   O     O_2   0.098911 0.044301 0.662340 -0.225592
O19   O     O_2   0.149281 0.250890 0.597657 -0.295446
O20   O     O_3   0.965614 0.118024 0.520980 -0.471890
H8    H     H_    0.901868 0.161639 0.570233 0.389998
S5    S     S_3+6 0.236328 0.110637 0.359334 0.106080
O21   O     O_2   0.114872 0.052919 0.318453 -0.130898
O22   O     O_2   0.223933 0.249442 0.358730 -0.278147
O23   O     O_3   0.375618 0.067350 0.286853 -0.539618
H9    H     H_    0.436621 0.141171 0.284280 0.367858
F5    F     F_    0.888769 0.480353 0.327023 -0.592008

loop_
_geom_bond_atom_site_label_1
_geom_bond_atom_site_label_2
_ccdc_geom_bond_type
C10   H3    S    
O5    Zn1   S    
S1    O11   S    
C6    C7    A    
C19   O8    A    
C13   C14   A    
C18   O5    A    
C19   C20   S    
C17   S2    S    
O6    Zn2   S    
C1    C4    S    
C2    C12   S    
S5    O23   S    
S2    O13   D    
C7    C8    A    
O7    Zn1   S    
C3    C10   S    
S3    O15   D    
C21   S3    S    
C18   O6    A    
O3    Zn1   S    
S1    O10   D    
C5    F3    S    
C14   N2    A    
S4    O20   S    
O4    Zn2   S    
C4    C5    A    
N1    Zn2   S    
C13   N1    A    
S2    O12   D    
O8    Zn2   S    
O1    Zn1   S    
N2    Zn1   S    
C3    C8    A    
O2    Zn2   S    
S3    O16   D    
C14   H1    S    
C5    C6    A    
S2    O14   S    
C9    S5    S    
C21   C24   S    
O11   H5    S    
C22   F1    S    
C16   C17   S    
C13   F5    S    
C17   H2    S    
C12   O4    A    
C15   C16   S    
C9    C10   S    
C16   S1    S    
C1    O1    A    
C7    C18   S    
O14   H6    S    
O17   H7    S    
C11   N1    A    
C15   N2    A    
S4    O19   D    
S5    O21   D    
S1    O9    D    
S3    O17   S    
C10   H4    S    
C2    C23   T    
C16   F2    S    
C22   C23   S    
C8    C9    S    
C19   O7    A    
S4    O18   D    
C12   O3    A    
C21   C22   D    
C11   C15   A    
C6    F4    S    
C20   C24   T    
C1    O2    A    
C11   C17   S    
C3    C4    A    
O20   H8    S    
O23   H9    S    
S5    O22   D    
C9    S4    S    
