data_mof_unit_10836.cif
_audit_creation_date              2012-10-26T18:54:51-0400
_audit_creation_method            fapswitch 2.2
_symmetry_space_group_name_H-M    P1
_symmetry_Int_Tables_number       1
_space_group_crystal_system       triclinic
_cell_length_a                    10.833411
_cell_length_b                    9.550529
_cell_length_c                    10.880218
_cell_angle_alpha                 90.436849
_cell_angle_beta                  91.070974
_cell_angle_gamma                 90.081307
_cell_volume                      1125.48890367

loop_
_atom_site_label
_atom_site_type_symbol
_atom_type_description
_atom_site_fract_x
_atom_site_fract_y
_atom_site_fract_z
_atom_type_partial_charge
C1    C     C_R   0.262161 0.499866 0.500120 0.552407
C2    C     C_R   0.516685 0.620275 0.940056 0.026662
C3    C     C_R   0.496880 0.498044 0.130397 0.000838
C4    C     C_R   0.497927 0.499468 0.870199 0.002987
C5    C     C_R   0.475668 0.373068 0.063252 -0.160364
C6    C     C_R   0.476025 0.373817 0.934171 -0.162388
C7    C     C_3   0.551806 0.771710 0.935132 -0.004217
C8    C     C_3   0.549031 0.771006 0.076982 -0.019804
C9    C     C_R   0.063561 0.372700 0.492873 -0.139485
C10   C     C_R   0.935808 0.372780 0.492902 -0.138586
C11   C     C_R   0.871734 0.499887 0.500040 0.019522
C12   C     C_R   0.737839 0.499994 0.500019 0.545076
C13   C     C_R   0.128268 0.499694 0.500447 0.022427
C14   C     C_R   0.936496 0.626776 0.507468 -0.141766
C15   C     C_R   0.064155 0.626620 0.508277 -0.137071
C16   C     C_R   0.412770 0.074180 0.434788 0.002528
C17   C     C_R   0.588442 0.076154 0.563337 0.025381
C18   C     C_R   0.412437 0.925420 0.434177 0.198451
C19   C     C_R   0.590295 0.927415 0.562485 0.211662
C20   C     C_R   0.499327 0.499528 0.262815 0.551775
C21   C     C_R   0.500350 0.500359 0.737422 0.549484
C22   C     C_R   0.515805 0.619399 0.064251 -0.000248
Cu1   Cu    Cu3+1 0.500000 0.640660 0.500000 1.000274
Cu2   Cu    Cu3+1 0.500000 0.359340 0.500000 0.932953
H1    H     H_    0.644934 0.790056 0.897643 0.146619
H2    H     H_    0.477560 0.962555 0.894934 0.223199
H3    H     H_    0.732837 0.716406 0.104317 0.231393
H4    H     H_    0.663891 0.785140 0.228276 0.264237
H5    H     H_    0.343237 0.130226 0.382189 0.109030
H6    H     H_    0.658862 0.134382 0.613753 0.113471
H7    H     H_    0.328539 0.884240 0.271095 0.188476
H8    H     H_    0.234450 0.883767 0.392318 0.194492
H9    H     H_    0.754383 0.927541 0.659886 0.176980
H10   H     H_    0.653725 0.803087 0.697091 0.257333
H11   H     H_    0.475828 0.836361 0.118542 0.146831
H12   H     H_    0.111344 0.273401 0.486719 0.125030
H13   H     H_    0.887517 0.273489 0.486955 0.129471
H14   H     H_    0.888942 0.726142 0.513002 0.155482
H15   H     H_    0.112278 0.725779 0.515485 0.133229
H16   H     H_    0.459217 0.275105 0.109763 0.135676
H17   H     H_    0.459701 0.276190 0.885173 0.138181
H18   H     H_    0.370378 0.838584 0.919605 0.231174
N1    N     N_R   0.500000 0.852070 0.500000 -0.169474
N2    N     N_R   0.500000 0.147940 0.500000 -0.254956
N3    N     N_3   0.455074 0.857586 0.878027 -0.625047
N4    N     N_3   0.671476 0.794120 0.133065 -0.641584
N5    N     N_3   0.321197 0.852148 0.362235 -0.565358
N6    N     N_3   0.690021 0.856229 0.623209 -0.601699
O1    O     O_R   0.319640 0.618740 0.499990 -0.470028
O2    O     O_R   0.680360 0.618740 0.500010 -0.483700
O3    O     O_R   0.319620 0.381170 0.499990 -0.517948
O4    O     O_R   0.680380 0.381170 0.500010 -0.517218
O5    O     O_R   0.499990 0.618810 0.319660 -0.486726
O6    O     O_R   0.500010 0.618810 0.680340 -0.482832
O7    O     O_R   0.499960 0.381240 0.319650 -0.509519
O8    O     O_R   0.500040 0.381240 0.680350 -0.512712

loop_
_geom_bond_atom_site_label_1
_geom_bond_atom_site_label_2
_ccdc_geom_bond_type
Cu2   O4    S    
C21   O8    A    
C8    C22   S    
C11   C12   S    
C2    C22   A    
C4    C21   S    
C14   H14   S    
C9    C10   A    
C16   N2    A    
C2    C4    A    
C2    C7    S    
C7    H1    S    
Cu1   Cu2   S    
C15   H15   S    
C18   N5    S    
Cu2   O3    S    
C13   C15   A    
C17   N2    A    
Cu1   N1    S    
C7    C8    S    
H7    N5    S    
C18   N1    A    
Cu2   O7    S    
C17   H6    S    
C1    O3    A    
H4    N4    S    
C5    C6    A    
C10   H13   S    
C7    N3    S    
H3    N4    S    
C4    C6    A    
C17   C19   A    
C19   N1    A    
Cu1   O5    S    
C20   O7    A    
C21   O6    A    
Cu2   N2    S    
H8    N5    S    
C8    N4    S    
Cu1   O1    S    
Cu2   O8    S    
C10   C11   A    
C9    H12   S    
C3    C5    A    
C1    C13   S    
C3    C20   S    
H10   N6    S    
Cu1   O6    S    
C16   C18   A    
C5    H16   S    
C6    H17   S    
C11   C14   A    
H9    N6    S    
C9    C13   A    
C14   C15   A    
C20   O5    A    
Cu1   O2    S    
H2    N3    S    
C12   O4    A    
C16   H5    S    
C19   N6    S    
C1    O1    A    
H18   N3    S    
C12   O2    A    
C3    C22   A    
C8    H11   S    
