data_mof_unit_16791.cif
_audit_creation_date              2012-12-11T15:54:51-0500
_audit_creation_method            fapswitch 2.2
_symmetry_space_group_name_H-M    P1
_symmetry_Int_Tables_number       1
_space_group_crystal_system       triclinic
_cell_length_a                    17.794472
_cell_length_b                    24.607181
_cell_length_c                    15.223676
_cell_angle_alpha                 89.819842
_cell_angle_beta                  126.454587
_cell_angle_gamma                 90.210144
_cell_volume                      5361.62570984

loop_
_atom_site_label
_atom_site_type_symbol
_atom_type_description
_atom_site_fract_x
_atom_site_fract_y
_atom_site_fract_z
_atom_type_partial_charge
C1    C     C_R   0.933231 0.852732 0.091609 -0.167316
C2    C     C_R   0.909619 0.135928 0.086625 -0.156402
C3    C     C_R   0.433231 0.352732 0.091609 -0.167316
C4    C     C_R   0.409620 0.635928 0.086625 -0.156401
C5    C     C_R   0.054292 0.849895 0.905204 -0.163711
C6    C     C_R   0.051864 0.153054 0.909403 -0.171381
C7    C     C_R   0.554292 0.349895 0.905204 -0.163711
C8    C     C_R   0.551864 0.653054 0.909403 -0.171381
C9    C     C_R   0.136700 0.153680 0.090647 0.020550
C10   C     C_R   0.144813 0.847143 0.087139 0.038872
C11   C     C_R   0.636700 0.653680 0.090647 0.020550
C12   C     C_R   0.644813 0.347143 0.087139 0.038872
C13   C     C_R   0.304861 0.998850 0.364485 -0.087907
C14   C     C_R   0.804861 0.498850 0.364485 -0.087906
C15   C     C_R   0.930651 0.000326 0.633834 0.043556
C16   C     C_R   0.430651 0.500326 0.633834 0.043556
C17   C     C_R   0.114627 0.817569 0.993202 0.017203
C18   C     C_R   0.110494 0.184689 0.000476 0.021125
C19   C     C_R   0.614627 0.317570 0.993202 0.017203
C20   C     C_R   0.610494 0.684689 0.000476 0.021126
C21   C     C_3   0.896291 0.051229 0.372834 0.061702
C22   C     C_3   0.901964 0.944038 0.381206 0.041070
C23   C     C_3   0.396290 0.551229 0.372834 0.061702
C24   C     C_3   0.401964 0.444038 0.381206 0.041070
C25   C     C_3   0.892212 0.054166 0.472399 -0.178795
C26   C     C_3   0.874524 0.951633 0.461090 -0.151400
C27   C     C_3   0.392212 0.554166 0.472399 -0.178795
C28   C     C_3   0.374524 0.451633 0.461090 -0.151400
C29   C     C_3   0.057119 0.999220 0.503677 0.076011
C30   C     C_3   0.557118 0.499220 0.503677 0.076011
C31   C     C_3   0.958151 0.998486 0.386865 0.163916
C32   C     C_3   0.458151 0.498486 0.386865 0.163916
C33   C     C_3   0.930624 0.000326 0.537992 0.223244
C34   C     C_3   0.430624 0.500326 0.537992 0.223244
C35   C     C_R   0.814612 0.128288 0.903624 -0.152308
C36   C     C_R   0.835292 0.854374 0.909333 -0.103920
C37   C     C_R   0.314612 0.628288 0.903624 -0.152308
C38   C     C_R   0.335292 0.354374 0.909333 -0.103919
C39   C     C_3   0.036735 0.994517 0.588669 -0.503802
C40   C     C_3   0.536735 0.494517 0.588668 -0.503802
C41   C     C_3   0.679830 0.212577 0.859106 0.052177
C42   C     C_3   0.689291 0.821622 0.951725 0.043484
C43   C     C_3   0.179830 0.712577 0.859106 0.052177
C44   C     C_3   0.189292 0.321622 0.951725 0.043484
C45   C     C_3   0.116215 0.754209 0.864190 -0.181418
C46   C     C_3   0.117750 0.276572 0.932646 -0.172768
C47   C     C_3   0.616216 0.254209 0.864190 -0.181418
C48   C     C_3   0.617750 0.776572 0.932646 -0.172768
C49   C     C_3   0.321206 0.742592 0.045121 -0.460640
C50   C     C_3   0.271965 0.241803 0.934514 -0.474358
C51   C     C_3   0.821206 0.242592 0.045121 -0.460639
C52   C     C_3   0.771965 0.741803 0.934514 -0.474357
C53   C     C_3   0.712586 0.170792 0.041162 0.022072
C54   C     C_3   0.834946 0.769711 0.126859 0.031724
C55   C     C_3   0.212586 0.670792 0.041162 0.022072
C56   C     C_3   0.334946 0.269711 0.126859 0.031724
C57   C     C_3   0.758135 0.191952 0.982669 0.252129
C58   C     C_3   0.789349 0.792400 0.005246 0.254609
C59   C     C_3   0.258135 0.691952 0.982669 0.252130
C60   C     C_3   0.289349 0.292400 0.005246 0.254609
C61   C     C_3   0.160294 0.769811 0.986000 0.242251
C62   C     C_3   0.172845 0.225856 0.003183 0.241242
C63   C     C_3   0.660294 0.269811 0.986000 0.242251
C64   C     C_3   0.672845 0.725856 0.003183 0.241241
C65   C     C_3   0.262402 0.788943 0.038693 -0.477002
C66   C     C_3   0.217452 0.199325 0.949880 -0.460837
C67   C     C_3   0.762402 0.288944 0.038693 -0.477004
C68   C     C_3   0.717452 0.699326 0.949880 -0.460836
C69   C     C_3   0.162034 0.720076 0.050608 -0.133779
C70   C     C_3   0.255176 0.241926 0.124003 -0.125720
C71   C     C_3   0.662034 0.220076 0.050609 -0.133779
C72   C     C_3   0.755176 0.741926 0.124003 -0.125719
C73   C     C_3   0.447495 0.025346 0.376840 -0.128775
C74   C     C_3   0.446450 0.031206 0.542394 -0.122700
C75   C     C_3   0.947494 0.525344 0.376840 -0.128775
C76   C     C_3   0.946450 0.531208 0.542394 -0.122700
C77   C     C_R   0.745980 0.953392 0.697210 0.033136
C78   C     C_R   0.744258 0.044074 0.694229 0.022924
C79   C     C_R   0.245980 0.453392 0.697210 0.033136
C80   C     C_R   0.244258 0.544074 0.694230 0.022924
C81   C     C_3   0.555149 0.026699 0.453451 -0.430432
C82   C     C_3   0.553725 0.026836 0.619745 -0.458124
C83   C     C_3   0.055149 0.526698 0.453451 -0.430432
C84   C     C_3   0.053725 0.526837 0.619745 -0.458124
C85   C     C_3   0.446290 0.938777 0.469475 -0.395069
C86   C     C_3   0.946290 0.438777 0.469478 -0.395068
C87   C     C_3   0.408509 0.997966 0.436726 0.316341
C88   C     C_3   0.908508 0.497966 0.436726 0.316341
C89   C     C_3   0.591049 0.997648 0.561644 0.376152
C90   C     C_3   0.091049 0.497647 0.561645 0.376153
C91   C     C_3   0.551975 0.938647 0.535702 -0.435143
C92   C     C_3   0.051974 0.438647 0.535705 -0.435143
C93   C     C_R   0.001723 0.045241 0.269861 -0.134094
C94   C     C_R   0.990677 0.954238 0.258201 -0.157701
C95   C     C_R   0.501723 0.545241 0.269861 -0.134094
C96   C     C_R   0.490677 0.454238 0.258201 -0.157701
C97   C     C_R   0.853873 0.829231 0.002145 0.022126
C98   C     C_R   0.822183 0.150535 0.990943 0.042565
C99   C     C_R   0.353873 0.329231 0.002145 0.022126
C100  C     C_R   0.322184 0.650535 0.990943 0.042565
C101  C     C_R   0.694579 0.998111 0.634819 -0.051543
C102  C     C_R   0.194578 0.498111 0.634820 -0.051543
C103  C     C_R   0.975787 0.999449 0.301225 0.004144
C104  C     C_R   0.475786 0.499449 0.301225 0.004143
C105  C     C_R   0.252998 0.954188 0.304735 0.031749
C106  C     C_R   0.255565 0.044574 0.305522 0.021296
C107  C     C_R   0.752998 0.454188 0.304735 0.031748
C108  C     C_R   0.755565 0.544574 0.305522 0.021294
C109  C     C_R   0.950265 0.045717 0.697216 -0.152635
C110  C     C_R   0.948465 0.954669 0.696395 -0.144791
C111  C     C_R   0.450265 0.545717 0.697216 -0.152635
C112  C     C_R   0.448464 0.454669 0.696395 -0.144791
H1    H     H_    0.981559 0.837919 0.173737 0.116553
H2    H     H_    0.942588 0.150316 0.168727 0.090339
H3    H     H_    0.481559 0.337919 0.173737 0.116553
H4    H     H_    0.442588 0.650316 0.168727 0.090339
H5    H     H_    0.939890 0.086978 0.528441 0.106974
H6    H     H_    0.895171 0.914291 0.511371 0.106332
H7    H     H_    0.439890 0.586978 0.528441 0.106974
H8    H     H_    0.395171 0.414291 0.511371 0.106333
H9    H     H_    0.078439 0.025354 0.654241 0.165670
H10   H     H_    0.061689 0.954403 0.630805 0.173199
H11   H     H_    0.578439 0.525354 0.654241 0.165669
H12   H     H_    0.561689 0.454403 0.630805 0.173199
H13   H     H_    0.117274 0.792040 0.824529 0.127676
H14   H     H_    0.078046 0.262588 0.846280 0.123711
H15   H     H_    0.617274 0.292040 0.824529 0.127676
H16   H     H_    0.578046 0.762588 0.846281 0.123711
H17   H     H_    0.358758 0.756121 0.010922 0.184123
H18   H     H_    0.233031 0.252163 0.846783 0.159927
H19   H     H_    0.858758 0.256121 0.010922 0.184123
H20   H     H_    0.733031 0.752163 0.846783 0.159927
H21   H     H_    0.760748 0.131354 0.818173 0.115127
H22   H     H_    0.785385 0.842373 0.825382 0.098492
H23   H     H_    0.260748 0.631354 0.818173 0.115127
H24   H     H_    0.285385 0.342373 0.825382 0.098492
H25   H     H_    0.262547 0.822717 0.989835 0.182133
H26   H     H_    0.164349 0.181601 0.868104 0.168049
H27   H     H_    0.762547 0.322717 0.989835 0.182133
H28   H     H_    0.664349 0.681602 0.868104 0.168048
H29   H     H_    0.205489 0.732403 0.137366 0.107514
H30   H     H_    0.285828 0.204529 0.174218 0.098337
H31   H     H_    0.705489 0.232403 0.137366 0.107514
H32   H     H_    0.785828 0.704529 0.174218 0.098337
H33   H     H_    0.378385 0.734653 0.132030 0.157966
H34   H     H_    0.338261 0.223756 0.957140 0.197420
H35   H     H_    0.878385 0.234653 0.132030 0.157966
H36   H     H_    0.838261 0.723756 0.957140 0.197420
H37   H     H_    0.297204 0.805142 0.122427 0.165614
H38   H     H_    0.264454 0.165397 0.002103 0.189148
H39   H     H_    0.797204 0.305142 0.122427 0.165614
H40   H     H_    0.764454 0.665397 0.002103 0.189148
H41   H     H_    0.423565 0.068380 0.357671 0.118629
H42   H     H_    0.429605 0.074822 0.519806 0.125613
H43   H     H_    0.923565 0.568379 0.357669 0.118628
H44   H     H_    0.929605 0.574823 0.519804 0.125612
H45   H     H_    0.578701 0.069717 0.468699 0.151300
H46   H     H_    0.582436 0.068619 0.645656 0.149609
H47   H     H_    0.078700 0.569716 0.468697 0.151300
H48   H     H_    0.082436 0.568620 0.645655 0.149608
H49   H     H_    0.585147 0.006994 0.414882 0.162343
H50   H     H_    0.577393 0.004219 0.695572 0.164286
H51   H     H_    0.085146 0.506992 0.414882 0.162343
H52   H     H_    0.077392 0.504221 0.695573 0.164286
H53   H     H_    0.417527 0.912196 0.397151 0.150260
H54   H     H_    0.425488 0.919709 0.518305 0.162566
H55   H     H_    0.917527 0.412196 0.397155 0.150259
H56   H     H_    0.925488 0.419710 0.518309 0.162566
H57   H     H_    0.572117 0.917037 0.488529 0.154587
H58   H     H_    0.579188 0.915746 0.612278 0.159642
H59   H     H_    0.072116 0.417037 0.488532 0.154588
H60   H     H_    0.079188 0.415746 0.612282 0.159642
H61   H     H_    0.012435 0.086467 0.296990 0.115606
H62   H     H_    0.975821 0.912545 0.258605 0.105522
H63   H     H_    0.512435 0.586467 0.296989 0.115606
H64   H     H_    0.475820 0.412545 0.258605 0.105522
H65   H     H_    0.941522 0.088100 0.674483 0.083254
H66   H     H_    0.938508 0.912358 0.673666 0.086163
H67   H     H_    0.441522 0.588100 0.674483 0.083254
H68   H     H_    0.438508 0.412358 0.673666 0.086163
H69   H     H_    0.009910 0.840058 0.819366 0.114102
H70   H     H_    0.013375 0.165218 0.824709 0.093467
H71   H     H_    0.509910 0.340058 0.819366 0.114102
H72   H     H_    0.513375 0.665218 0.824709 0.093467
N1    N     N_R   0.950530 0.896220 0.057200 -0.039019
N2    N     N_R   0.950530 0.103780 0.057200 -0.028634
N3    N     N_R   0.450530 0.396220 0.057200 -0.039019
N4    N     N_R   0.450530 0.603780 0.057200 -0.028634
N5    N     N_R   0.893330 0.103780 0.942800 -0.040094
N6    N     N_R   0.893330 0.896220 0.942800 -0.037938
N7    N     N_R   0.393330 0.603780 0.942800 -0.040094
N8    N     N_R   0.393330 0.396220 0.942800 -0.037938
N9    N     N_R   0.818150 0.971400 0.792440 -0.049348
N10   N     N_R   0.818150 0.028600 0.792440 -0.058966
N11   N     N_R   0.318150 0.471400 0.792440 -0.049347
N12   N     N_R   0.318150 0.528600 0.792440 -0.058966
N13   N     N_R   0.025710 0.028600 0.207560 -0.036752
N14   N     N_R   0.025710 0.971400 0.207560 -0.035756
N15   N     N_R   0.525710 0.528600 0.207560 -0.036752
N16   N     N_R   0.525710 0.471400 0.207560 -0.035756
N17   N     N_R   0.181850 0.971400 0.207560 -0.070674
N18   N     N_R   0.181850 0.028600 0.207560 -0.068636
N19   N     N_R   0.681850 0.471400 0.207560 -0.070674
N20   N     N_R   0.681850 0.528600 0.207560 -0.068636
N21   N     N_R   0.974290 0.028600 0.792440 -0.037743
N22   N     N_R   0.974290 0.971400 0.792440 -0.035091
N23   N     N_R   0.474290 0.528600 0.792440 -0.037743
N24   N     N_R   0.474290 0.471400 0.792440 -0.035091
N25   N     N_R   0.049470 0.896220 0.942800 -0.048852
N26   N     N_R   0.049470 0.103780 0.942800 -0.046563
N27   N     N_R   0.549470 0.396220 0.942800 -0.048852
N28   N     N_R   0.549470 0.603780 0.942800 -0.046563
N29   N     N_R   0.106670 0.103780 0.057200 -0.046803
N30   N     N_R   0.106670 0.896220 0.057200 -0.048672
N31   N     N_R   0.606670 0.603780 0.057200 -0.046803
N32   N     N_R   0.606670 0.396220 0.057200 -0.048672
Ni1   Ni    Ni4+2 0.065600 0.934400 0.131190 0.215736
Ni2   Ni    Ni4+2 0.065600 0.065600 0.131190 0.216804
Ni3   Ni    Ni4+2 0.565600 0.434400 0.131190 0.215736
Ni4   Ni    Ni4+2 0.565600 0.565600 0.131190 0.216804
Ni5   Ni    Ni4+2 0.934400 0.065600 0.868810 0.190951
Ni6   Ni    Ni4+2 0.934400 0.934400 0.868810 0.207880
Ni7   Ni    Ni4+2 0.434400 0.565600 0.868810 0.190951
Ni8   Ni    Ni4+2 0.434400 0.434400 0.868810 0.207880
N33   N     N_3   0.801377 0.047739 0.268817 -0.213922
H73   H     H_    0.803886 0.034063 0.205737 0.100994
H74   H     H_    0.756036 0.022546 0.272115 0.153836
N34   N     N_3   0.816895 0.934867 0.269512 -0.228439
H75   H     H_    0.831363 0.932797 0.212823 0.092575
H76   H     H_    0.784376 0.898556 0.265198 0.114260
N35   N     N_3   0.301377 0.547739 0.268817 -0.213922
H77   H     H_    0.303886 0.534063 0.205737 0.100994
H78   H     H_    0.256036 0.522546 0.272115 0.153836
N36   N     N_3   0.316895 0.434867 0.269512 -0.228439
H79   H     H_    0.331363 0.432797 0.212823 0.092575
H80   H     H_    0.284376 0.398556 0.265198 0.114260
N37   N     N_3   0.797816 0.068047 0.438366 -0.210371
H81   H     H_    0.780813 0.106726 0.402873 0.106919
H82   H     H_    0.796714 0.071329 0.505846 0.113571
N38   N     N_3   0.773283 0.957085 0.405523 -0.206667
H83   H     H_    0.741667 0.919183 0.374312 0.097225
H84   H     H_    0.761421 0.965979 0.463433 0.109301
N39   N     N_3   0.297816 0.568047 0.438366 -0.210371
H85   H     H_    0.280813 0.606726 0.402873 0.106919
H86   H     H_    0.296714 0.571328 0.505846 0.113570
N40   N     N_3   0.273283 0.457085 0.405523 -0.206667
H87   H     H_    0.241667 0.419183 0.374312 0.097225
H88   H     H_    0.261421 0.465979 0.463434 0.109301
N41   N     N_3   0.110372 0.049553 0.523765 -0.226551
H89   H     H_    0.170218 0.050290 0.604812 0.095433
H90   H     H_    0.135776 0.049955 0.477125 0.110584
N42   N     N_3   0.116226 0.952936 0.518207 -0.214467
H91   H     H_    0.139060 0.957874 0.469323 0.117265
H92   H     H_    0.176861 0.952340 0.598751 0.098118
N43   N     N_3   0.610372 0.549553 0.523765 -0.226551
H93   H     H_    0.635776 0.549955 0.477125 0.110584
H94   H     H_    0.670218 0.550290 0.604812 0.095433
N44   N     N_3   0.616226 0.452936 0.518207 -0.214467
H95   H     H_    0.676861 0.452340 0.598751 0.098118
H96   H     H_    0.639060 0.457874 0.469323 0.117265
N45   N     N_3   0.725395 0.243309 0.818234 -0.219532
H97   H     H_    0.772695 0.220077 0.815544 0.100276
H98   H     H_    0.675296 0.256665 0.738214 0.086227
N46   N     N_3   0.652692 0.847480 0.845504 -0.224733
H99   H     H_    0.635420 0.818815 0.785784 0.077586
H100  H     H_    0.590509 0.867928 0.816471 0.090442
N47   N     N_3   0.225396 0.743309 0.818234 -0.219532
H101  H     H_    0.272695 0.720077 0.815544 0.100276
H102  H     H_    0.175296 0.756665 0.738214 0.086226
N48   N     N_3   0.152692 0.347480 0.845504 -0.224733
H103  H     H_    0.135420 0.318815 0.785784 0.077585
H104  H     H_    0.090509 0.367928 0.816470 0.090442
N49   N     N_3   0.625243 0.167882 0.781126 -0.235033
H105  H     H_    0.583888 0.182715 0.701068 0.083454
H106  H     H_    0.580812 0.147401 0.792556 0.101857
N50   N     N_3   0.699641 0.864517 0.025229 -0.215867
H107  H     H_    0.636933 0.885713 0.989131 0.091470
H108  H     H_    0.746841 0.893449 0.033935 0.107531
N51   N     N_3   0.125243 0.667882 0.781126 -0.235033
H109  H     H_    0.083888 0.682715 0.701068 0.083454
H110  H     H_    0.080812 0.647401 0.792556 0.101857
N52   N     N_3   0.199641 0.364517 0.025229 -0.215867
H111  H     H_    0.136933 0.385713 0.989131 0.091470
H112  H     H_    0.246841 0.393449 0.033935 0.107531
N53   N     N_3   0.516700 0.239386 0.801902 -0.222404
H113  H     H_    0.487070 0.238019 0.718600 0.093022
H114  H     H_    0.505776 0.202198 0.824905 0.122054
N54   N     N_3   0.545263 0.794855 0.944046 -0.220681
H115  H     H_    0.502558 0.823033 0.882233 0.089243
H116  H     H_    0.572838 0.814229 0.017948 0.138420
N55   N     N_3   0.016700 0.739386 0.801902 -0.222404
H117  H     H_    0.987070 0.738019 0.718600 0.093022
H118  H     H_    0.005776 0.702198 0.824905 0.122054
N56   N     N_3   0.045263 0.294855 0.944046 -0.220681
H119  H     H_    0.002558 0.323033 0.882233 0.089243
H120  H     H_    0.072838 0.314229 0.017948 0.138420
N57   N     N_3   0.783610 0.152172 0.153462 -0.223449
H121  H     H_    0.834507 0.181422 0.201472 0.086218
H122  H     H_    0.814751 0.116612 0.153067 0.126792
N58   N     N_3   0.906116 0.728140 0.155327 -0.212509
H123  H     H_    0.960094 0.745451 0.155953 0.112096
H124  H     H_    0.936871 0.713457 0.234420 0.089146
N59   N     N_3   0.283610 0.652172 0.153462 -0.223448
H125  H     H_    0.334507 0.681422 0.201472 0.086218
H126  H     H_    0.314751 0.616612 0.153067 0.126791
N60   N     N_3   0.406116 0.228140 0.155327 -0.212509
H127  H     H_    0.460094 0.245450 0.155953 0.112096
H128  H     H_    0.436871 0.213457 0.234420 0.089146
N61   N     N_3   0.650655 0.123656 0.980710 -0.217004
H129  H     H_    0.654756 0.095119 0.034534 0.111129
H130  H     H_    0.580258 0.133548 0.929308 0.098039
N62   N     N_3   0.881810 0.811065 0.213775 -0.241307
H131  H     H_    0.905899 0.793600 0.288990 0.094933
H132  H     H_    0.838381 0.843077 0.198760 0.116683
N63   N     N_3   0.150655 0.623656 0.980710 -0.217004
H133  H     H_    0.154756 0.595119 0.034534 0.111129
H134  H     H_    0.080257 0.633548 0.929308 0.098039
N64   N     N_3   0.381810 0.311065 0.213775 -0.241307
H135  H     H_    0.405899 0.293600 0.288990 0.094933
H136  H     H_    0.338381 0.343077 0.198760 0.116683
C113  C     C_1   0.571134 0.207411 0.028698 0.010846
N65   N     N_1   0.500230 0.197232 0.012010 -0.113680
C114  C     C_1   0.723666 0.774757 0.178279 -0.016408
N66   N     N_1   0.700558 0.800125 0.222358 -0.123322
C115  C     C_1   0.071134 0.707411 0.028698 0.010846
N67   N     N_1   0.000230 0.697232 0.012010 -0.113680
C116  C     C_1   0.223666 0.274757 0.178279 -0.016407
N68   N     N_1   0.200558 0.300125 0.222358 -0.123322
N69   N     N_3   0.415311 0.999154 0.273192 -0.213509
H137  H     H_    0.342734 0.001525 0.217612 0.114878
H138  H     H_    0.434832 0.958329 0.285154 0.118506
N70   N     N_3   0.403376 0.014622 0.596024 -0.212144
H139  H     H_    0.422013 0.043041 0.656870 0.102296
H140  H     H_    0.429912 0.977194 0.635171 0.110592
N71   N     N_3   0.915311 0.499152 0.273193 -0.213508
H141  H     H_    0.842733 0.501524 0.217612 0.114878
H142  H     H_    0.934829 0.458326 0.285155 0.118506
N72   N     N_3   0.903375 0.514625 0.596024 -0.212145
H143  H     H_    0.922012 0.543045 0.656868 0.102296
H144  H     H_    0.929912 0.477196 0.635173 0.110591
N73   N     N_3   0.753115 0.903943 0.653069 -0.217001
H145  H     H_    0.708708 0.874852 0.649684 0.076830
H146  H     H_    0.732555 0.910865 0.573859 0.084999
N74   N     N_3   0.740835 0.094366 0.644342 -0.229909
H147  H     H_    0.689421 0.118741 0.636851 0.073468
H148  H     H_    0.804628 0.114624 0.695981 0.100310
N75   N     N_3   0.253114 0.403943 0.653069 -0.217001
H149  H     H_    0.208707 0.374852 0.649684 0.076830
H150  H     H_    0.232554 0.410865 0.573858 0.084999
N76   N     N_3   0.240835 0.594366 0.644342 -0.229909
H151  H     H_    0.189420 0.618741 0.636851 0.073468
H152  H     H_    0.304627 0.614624 0.695981 0.100310
C117  C     C_1   0.242939 0.908384 0.356130 0.024621
N77   N     N_1   0.234946 0.872102 0.398591 -0.116846
C118  C     C_1   0.253905 0.091859 0.359459 0.002268
N78   N     N_1   0.253428 0.128893 0.405812 -0.118041
C119  C     C_1   0.742939 0.408384 0.356130 0.024621
N79   N     N_1   0.734945 0.372102 0.398590 -0.116846
C120  C     C_1   0.753904 0.591859 0.359459 0.002269
N80   N     N_1   0.753426 0.628893 0.405812 -0.118041
N81   N     N_3   0.136193 0.174426 0.177875 -0.207329
H153  H     H_    0.204038 0.185139 0.242386 0.112260
H154  H     H_    0.092454 0.208313 0.151346 0.116594
N82   N     N_3   0.182735 0.825322 0.192717 -0.211267
H155  H     H_    0.139792 0.793777 0.185123 0.102218
H156  H     H_    0.250262 0.811093 0.228533 0.076904
N83   N     N_3   0.636194 0.674426 0.177875 -0.207329
H157  H     H_    0.704038 0.685139 0.242386 0.112260
H158  H     H_    0.592455 0.708313 0.151346 0.116594
N84   N     N_3   0.682735 0.325322 0.192717 -0.211267
H159  H     H_    0.639792 0.293777 0.185123 0.102218
H160  H     H_    0.750262 0.311094 0.228533 0.076904
N85   N     N_3   0.934362 0.103910 0.369769 -0.233809
H161  H     H_    0.996209 0.114821 0.443914 0.102357
H162  H     H_    0.888185 0.134403 0.357290 0.100569
N86   N     N_3   0.959621 0.893956 0.422137 -0.218409
H163  H     H_    0.997285 0.884550 0.392811 0.105625
H164  H     H_    0.918526 0.860013 0.408906 0.085782
N87   N     N_3   0.434361 0.603910 0.369769 -0.233809
H165  H     H_    0.496208 0.614821 0.443914 0.102357
H166  H     H_    0.388185 0.634403 0.357289 0.100569
N88   N     N_3   0.459621 0.393956 0.422137 -0.218408
H167  H     H_    0.497285 0.384550 0.392811 0.105625
H168  H     H_    0.418527 0.360013 0.408906 0.085782

loop_
_geom_bond_atom_site_label_1
_geom_bond_atom_site_label_2
_ccdc_geom_bond_type
N43   H94   S    
C119  N79   T    
C55   C59   S    
N57   H122  S    
C15   C109  A    
C77   C101  A    
N55   H117  S    
N32   Ni3   S    
C42   C58   S    
N1    N6    A    
N59   H126  S    
C69   C115  S    
N52   H111  S    
C42   C48   S    
C46   C62   S    
N4    N7    A    
C54   N58   S    
C86   C88   S    
C110  H66   S    
C62   C70   S    
C78   N74   S    
C77   N9    A    
C106  C118  S    
C17   C61   S    
C19   C63   S    
C32   C104  S    
C79   C102  A    
C36   C97   A    
C51   C57   S    
C38   H24   S    
N69   H137  S    
C42   N50   S    
N61   H130  S    
N15   N16   A    
C78   C101  A    
C111  H67   S    
N25   Ni6   S    
C76   C84   S    
N36   H80   S    
C73   C81   S    
N34   H75   S    
C44   C46   S    
C63   C67   S    
C80   N12   A    
C11   C20   A    
N41   H90   S    
C114  N66   T    
C52   H20   S    
C29   N42   S    
N71   H142  S    
C91   H57   S    
C9    N29   A    
C24   C32   S    
C105  C117  S    
C90   C92   S    
N59   H125  S    
C25   N37   S    
N60   H127  S    
C52   C58   S    
C14   C107  A    
C63   C71   S    
C7    C19   A    
C96   C104  A    
N48   H104  S    
C68   H28   S    
C12   N32   A    
N13   Ni2   S    
C53   C71   S    
N7    Ni7   S    
C41   N49   S    
N58   H123  S    
C71   H31   S    
C72   H32   S    
C89   C101  S    
C13   C106  A    
C3    N3    A    
C1    N1    A    
C7    H71   S    
C85   H53   S    
C4    N4    A    
C14   C88   S    
N53   H114  S    
N31   Ni4   S    
C2    H2    S    
N11   Ni8   S    
C92   H60   S    
C93   H61   S    
N51   H110  S    
C65   H37   S    
N76   H151  S    
C24   N36   S    
C41   C57   S    
N11   N12   A    
N57   H121  S    
C61   C65   S    
C43   N51   S    
C106  N18   A    
N9    N10   A    
C120  N80   T    
C3    H3    S    
C23   N35   S    
C16   C111  A    
N54   H116  S    
N42   H91   S    
N23   Ni7   S    
N47   H102  S    
N44   H96   S    
C53   N61   S    
C75   C83   S    
C93   C103  A    
N84   H159  S    
C43   N47   S    
C21   C31   S    
N41   H89   S    
C39   H10   S    
C6    H70   S    
C36   N6    A    
C64   C68   S    
N55   H118  S    
N6    Ni6   S    
N45   H97   S    
C82   H46   S    
C22   N34   S    
N27   Ni8   S    
C80   N76   S    
C108  N20   A    
C79   N11   A    
N62   H131  S    
C74   H42   S    
C90   C102  S    
C95   H63   S    
C16   C34   S    
N82   H156  S    
N46   H99   S    
C74   C87   S    
C89   C91   S    
C67   H27   S    
C43   C59   S    
C112  H68   S    
N27   N32   A    
C52   H36   S    
N37   H81   S    
C59   C100  S    
N69   H138  S    
C84   C90   S    
N86   H164  S    
N33   H73   S    
N73   H146  S    
C45   N55   S    
C40   H12   S    
C71   C113  S    
C62   C66   S    
C86   H56   S    
N70   H139  S    
C28   H8    S    
C18   C62   S    
C28   N40   S    
C82   H50   S    
N71   H141  S    
C80   C102  A    
C29   N41   S    
C93   N13   A    
C107  N19   A    
C75   H43   S    
C26   C33   S    
C105  N17   A    
C66   H26   S    
N28   N31   A    
C44   N52   S    
C13   C87   S    
C37   H23   S    
C41   C47   S    
C51   C67   S    
C109  N21   A    
C43   C45   S    
N3    N8    A    
C55   C69   S    
C113  N65   T    
N72   H144  S    
C111  N23   A    
C96   N16   A    
C21   C25   S    
N40   H87   S    
C30   N44   S    
C24   C28   S    
N50   H108  S    
C108  C120  S    
C36   H22   S    
C7    N27   A    
N47   H101  S    
C47   H15   S    
N24   Ni8   S    
N26   N29   A    
C5    N25   A    
N52   H112  S    
C49   C59   S    
C50   C60   S    
N18   Ni2   S    
C4    C100  A    
N44   H95   S    
C65   H25   S    
N22   Ni6   S    
C14   C108  A    
N38   H83   S    
N33   H74   S    
N13   N14   A    
C54   N62   S    
C26   N38   S    
C9    C18   A    
N74   H147  S    
C51   H19   S    
C46   N56   S    
C8    N28   A    
C37   C100  A    
C25   C33   S    
N63   H134  S    
N88   H167  S    
C35   H21   S    
N34   H76   S    
C117  N77   T    
C84   H48   S    
N87   H165  S    
C95   C104  A    
N81   H154  S    
C1    H1    S    
N20   Ni4   S    
C66   H38   S    
N85   H162  S    
C47   C63   S    
N56   H119  S    
C48   C64   S    
C5    C17   A    
C69   H29   S    
N39   H85   S    
C56   C70   S    
C78   N10   A    
C40   H11   S    
C73   C87   S    
C83   H47   S    
C73   N69   S    
N60   H128  S    
N51   H109  S    
C35   C98   A    
C81   C89   S    
C50   H34   S    
C72   C114  S    
N4    Ni4   S    
C28   C34   S    
N63   H133  S    
C35   N5    A    
C15   C110  A    
C74   C82   S    
C5    H69   S    
N58   H124  S    
C107  C119  S    
C81   H45   S    
N15   Ni4   S    
N23   N24   A    
C26   H6    S    
N8    Ni8   S    
C42   N46   S    
N75   H149  S    
C53   C57   S    
C10   N30   A    
N61   H129  S    
C75   N71   S    
C76   H44   S    
C56   C60   S    
C27   N39   S    
N53   H113  S    
C68   H40   S    
C55   N63   S    
C48   H16   S    
N2    Ni2   S    
C10   N82   S    
N29   Ni2   S    
C49   H33   S    
N83   H158  S    
C8    C20   A    
N76   H152  S    
C82   C89   S    
N1    Ni1   S    
N10   Ni5   S    
C13   C105  A    
C94   C103  A    
N14   Ni1   S    
N36   H79   S    
C9    N81   S    
C16   C112  A    
N42   H92   S    
C83   H51   S    
C21   N85   S    
C96   H64   S    
C81   H49   S    
C4    H4    S    
C38   C99   A    
N84   H160  S    
N25   N30   A    
C39   H9    S    
C23   C32   S    
N2    N5    A    
C41   N45   S    
C77   N73   S    
C116  N68   T    
C56   N60   S    
C24   N88   S    
C48   N54   S    
C55   N59   S    
C44   C60   S    
C57   C98   S    
C12   C19   A    
C45   C61   S    
N62   H132  S    
C56   N64   S    
C115  N67   T    
N12   Ni7   S    
C109  H65   S    
N46   H100  S    
C22   C26   S    
C76   N72   S    
N16   Ni3   S    
N48   H103  S    
C10   C17   A    
C30   C32   S    
N19   N20   A    
N17   N18   A    
N83   H157  S    
C53   N57   S    
C60   C99   S    
C85   C91   S    
N3    Ni3   S    
N21   N22   A    
N82   H155  S    
C33   C39   S    
C49   C65   S    
C34   C40   S    
C85   H54   S    
N70   H140  S    
N5    Ni5   S    
N87   H166  S    
C92   H59   S    
C50   H18   S    
N49   H106  S    
C118  N78   T    
C45   H13   S    
N39   H86   S    
N64   H136  S    
C23   C27   S    
C76   C88   S    
C84   H52   S    
C8    H72   S    
N26   Ni5   S    
C58   C97   S    
C85   C87   S    
C27   C34   S    
C6    C18   A    
N40   H88   S    
C70   H30   S    
C22   C31   S    
C67   H39   S    
C112  N24   A    
N35   H78   S    
C47   N53   S    
C1    C97   A    
N45   H98   S    
C49   H17   S    
C94   N14   A    
C31   C103  S    
C20   C64   S    
C22   N86   S    
C2    N2    A    
N64   H135  S    
C3    C99   A    
N75   H150  S    
C51   H35   S    
C29   C39   S    
N38   H84   S    
N49   H105  S    
C30   C40   S    
C110  N22   A    
N50   H107  S    
C50   C66   S    
C74   N70   S    
C94   H62   S    
C37   N7    A    
N74   H148  S    
C38   N8    A    
N37   H82   S    
C73   H41   S    
N43   H93   S    
N86   H163  S    
C44   N48   S    
C54   C58   S    
C61   C69   S    
C83   C90   S    
N9    Ni6   S    
N88   H168  S    
C91   H58   S    
C46   H14   S    
C86   H55   S    
N30   Ni1   S    
C52   C68   S    
C70   C116  S    
C6    N26   A    
C27   H7    S    
C21   N33   S    
N81   H153  S    
C79   N75   S    
N19   Ni3   S    
N54   H115  S    
N17   Ni1   S    
C29   C31   S    
C86   C92   S    
N85   H161  S    
N56   H120  S    
N21   Ni5   S    
C12   N84   S    
C64   C72   S    
C25   H5    S    
C11   N83   S    
C75   C88   S    
C54   C72   S    
C2    C98   A    
C95   N15   A    
N72   H143  S    
C11   N31   A    
N35   H77   S    
N73   H145  S    
C30   N43   S    
C23   N87   S    
C15   C33   S    
N28   Ni7   S    
