data_mof_unit_60186.cif
_audit_creation_date              2012-12-10T19:17:24-0500
_audit_creation_method            fapswitch 2.2
_symmetry_space_group_name_H-M    P1
_symmetry_Int_Tables_number       1
_space_group_crystal_system       triclinic
_cell_length_a                    15.997865
_cell_length_b                    14.768795
_cell_length_c                    15.923869
_cell_angle_alpha                 90.013394
_cell_angle_beta                  89.979042
_cell_angle_gamma                 89.99979
_cell_volume                      3762.31925384

loop_
_atom_site_label
_atom_site_type_symbol
_atom_type_description
_atom_site_fract_x
_atom_site_fract_y
_atom_site_fract_z
_atom_type_partial_charge
C1    C     C_R   0.340830 0.500000 0.500057 0.839156
C2    C     C_3   0.589421 0.497920 0.952118 0.400003
C3    C     C_3   0.587113 0.505963 0.049851 -0.560668
C4    C     C_1   0.498450 0.500390 0.824848 0.132559
C5    C     C_1   0.497766 0.499799 0.175187 0.069009
C6    C     C_1   0.499068 0.499935 0.250504 -0.114020
C7    C     C_R   0.956377 0.582182 0.500547 -0.147221
C8    C     C_R   0.956378 0.417818 0.499912 -0.147126
C9    C     C_R   0.912786 0.500000 0.500222 0.143527
C10   C     C_R   0.043619 0.417819 0.499906 -0.142767
C11   C     C_R   0.043618 0.582182 0.500541 -0.142932
C12   C     C_R   0.087209 0.500000 0.500211 0.143935
C13   C     C_1   0.823332 0.500000 0.500162 -0.036551
C14   C     C_R   0.500004 0.499988 0.339882 0.820367
C15   C     C_1   0.176662 0.500001 0.500158 -0.027730
C16   C     C_1   0.251708 0.500000 0.500109 -0.127867
C17   C     C_1   0.748284 0.500000 0.500097 -0.139773
C18   C     C_R   0.545469 0.952124 0.560432 -0.132620
C19   C     C_R   0.545470 0.047907 0.560431 -0.134677
C20   C     C_R   0.499955 0.902865 0.500049 0.036430
C21   C     C_R   0.499956 0.097135 0.500047 0.035654
C22   C     C_R   0.454435 0.952094 0.439669 -0.137666
C23   C     C_R   0.454436 0.047877 0.439668 -0.134936
C24   C     C_1   0.499968 0.802716 0.500040 0.152599
C25   C     C_1   0.499968 0.197284 0.500038 0.153595
C26   C     C_R   0.659160 0.500000 0.500025 0.827179
C27   C     C_R   0.499974 0.500015 0.660170 0.826276
C28   C     C_3   0.447221 0.584067 0.049409 0.135946
C29   C     C_3   0.458021 0.409658 0.048250 0.142506
C30   C     C_3   0.449068 0.415515 0.950693 0.096090
C31   C     C_3   0.455384 0.589364 0.951678 0.101307
C32   C     C_1   0.499304 0.500103 0.749530 -0.067945
C33   C     C_3   0.495784 0.499685 0.083136 -0.022815
C34   C     C_3   0.497221 0.500784 0.916984 -0.073280
Cu1   Cu    Cu3+1 0.500000 0.589220 0.500020 1.019113
Cu2   Cu    Cu3+1 0.500000 0.410780 0.500020 1.020126
H1    H     H_    0.418729 0.916412 0.392303 0.147212
H2    H     H_    0.418731 0.083535 0.392301 0.149673
H3    H     H_    0.504415 0.355220 0.061374 0.129713
H4    H     H_    0.477520 0.645745 0.075780 0.112809
H5    H     H_    0.478151 0.353620 0.923841 0.150903
H6    H     H_    0.498293 0.646637 0.938279 0.146800
H7    H     H_    0.614866 0.571398 0.070408 0.220271
H8    H     H_    0.626200 0.452166 0.079009 0.232037
H9    H     H_    0.077010 0.646013 0.500779 0.152915
H10   H     H_    0.077012 0.353988 0.499651 0.152988
H11   H     H_    0.922985 0.646013 0.500788 0.151224
H12   H     H_    0.922987 0.353987 0.499660 0.151314
H13   H     H_    0.581178 0.083588 0.607796 0.149019
H14   H     H_    0.581177 0.916466 0.607798 0.149285
N1    N     N_1   0.499980 0.276710 0.500030 -0.144280
N2    N     N_1   0.499980 0.723290 0.500030 -0.144533
O1    O     O_R   0.380310 0.575320 0.500040 -0.566324
O2    O     O_R   0.380310 0.424680 0.500040 -0.566225
O3    O     O_R   0.500000 0.575380 0.379460 -0.571759
O4    O     O_R   0.500000 0.424620 0.379460 -0.564804
O5    O     O_R   0.619690 0.575360 0.500000 -0.570075
O6    O     O_R   0.619690 0.424640 0.500000 -0.569957
O7    O     O_R   0.500000 0.575310 0.620580 -0.560665
O8    O     O_R   0.500000 0.424690 0.620580 -0.566232
Br1   Br    Br    0.355360 0.630715 0.891330 -0.332243
Br2   Br    Br    0.334078 0.406105 0.908946 -0.298334
Br3   Br    Br    0.332467 0.591673 0.092058 -0.302984
Br4   Br    Br    0.359498 0.364314 0.108624 -0.340602
Br5   Br    Br    0.659260 0.595220 0.906211 -0.444700
Br6   Br    Br    0.647783 0.386478 0.919865 -0.457232

loop_
_geom_bond_atom_site_label_1
_geom_bond_atom_site_label_2
_ccdc_geom_bond_type
C10   H10   S    
C14   O4    A    
C11   C12   A    
C8    H12   S    
C28   H4    S    
C24   N2    T    
C29   C30   S    
Cu2   O4    S    
C31   H6    S    
C6    C14   S    
C23   H2    S    
C19   H13   S    
Cu2   O6    S    
Cu1   Cu2   S    
C12   C15   S    
C13   C17   T    
Cu1   O5    S    
C2    Br5   S    
C29   H3    S    
C25   N1    T    
C2    C3    S    
C27   C32   S    
C29   Br4   S    
C31   Br1   S    
C30   H5    S    
C1    C16   S    
C27   O7    A    
C7    C11   A    
C26   O6    A    
C3    H7    S    
C21   C25   S    
C4    C32   T    
Cu2   N1    S    
C10   C12   A    
C1    O2    A    
C17   C26   S    
C8    C10   A    
C19   C21   A    
C20   C22   A    
C28   C33   S    
C14   O3    A    
C18   C20   A    
C27   O8    A    
C30   Br2   S    
C21   C23   A    
C5    C6    T    
C26   O5    A    
C4    C34   S    
C3    H8    S    
C11   H9    S    
Cu1   O1    S    
C30   C34   S    
Cu1   O3    S    
C15   C16   T    
C28   Br3   S    
C29   C33   S    
C31   C34   S    
C18   H14   S    
Cu1   O7    S    
C18   C19   A    
Cu1   N2    S    
C7    C9    A    
C1    O1    A    
C3    C33   S    
C9    C13   S    
Cu2   O2    S    
C2    Br6   S    
C2    C34   S    
C22   C23   A    
C22   H1    S    
C28   C31   S    
C20   C24   S    
C7    H11   S    
C8    C9    A    
Cu2   O8    S    
C5    C33   S    
