data_mof_unit_33334.cif
_audit_creation_date              2012-12-11T14:39:41-0500
_audit_creation_method            fapswitch 2.2
_symmetry_space_group_name_H-M    P1
_symmetry_Int_Tables_number       1
_space_group_crystal_system       triclinic
_cell_length_a                    7.525826
_cell_length_b                    14.146056
_cell_length_c                    17.139766
_cell_angle_alpha                 89.999983
_cell_angle_beta                  95.659854
_cell_angle_gamma                 89.999918
_cell_volume                      1815.8168222

loop_
_atom_site_label
_atom_site_type_symbol
_atom_type_description
_atom_site_fract_x
_atom_site_fract_y
_atom_site_fract_z
_atom_type_partial_charge
O1    O     O_R   0.525340 0.338340 0.164530 -0.542727
O2    O     O_R   0.474660 0.661660 0.835470 -0.538549
O3    O     O_R   0.974660 0.838340 0.835470 -0.542740
O4    O     O_R   0.025340 0.161660 0.164530 -0.538550
O5    O     O_R   0.253520 0.352000 0.336710 -0.463814
O6    O     O_R   0.746480 0.648000 0.663290 -0.490786
O7    O     O_R   0.246480 0.852000 0.663290 -0.463813
O8    O     O_R   0.753520 0.148000 0.336710 -0.490787
O9    O     O_R   0.083330 0.168380 0.337300 -0.459989
O10   O     O_R   0.916670 0.831620 0.662700 -0.475188
O11   O     O_R   0.416670 0.668380 0.662700 -0.459989
O12   O     O_R   0.583330 0.331620 0.337300 -0.475187
C1    C     C_R   0.432588 0.370597 0.362547 0.936677
C2    C     C_R   0.568685 0.629327 0.637181 0.902386
C3    C     C_R   0.067412 0.870598 0.637453 0.936675
C4    C     C_R   0.931315 0.129328 0.362818 0.902384
O13   O     O_R   0.195840 0.349670 0.165140 -0.544354
O14   O     O_R   0.804160 0.650330 0.834860 -0.540061
O15   O     O_R   0.304160 0.849670 0.834860 -0.544352
O16   O     O_R   0.695840 0.150330 0.165140 -0.540061
C5    C     C_R   0.357691 0.364657 0.134353 0.773650
C6    C     C_R   0.641709 0.633657 0.864559 0.770861
C7    C     C_R   0.142309 0.864657 0.865647 0.773642
C8    C     C_R   0.858291 0.133657 0.135441 0.770862
O17   O     O_3   0.387830 0.193120 0.250910 -0.360393
O18   O     O_3   0.612170 0.806880 0.749090 -0.369793
O19   O     O_3   0.112170 0.693120 0.749090 -0.360392
O20   O     O_3   0.887830 0.306880 0.250910 -0.369792
V1    V     V_3+5 0.113010 0.264540 0.250910 1.790207
V2    V     V_3+5 0.886990 0.735460 0.749090 1.746610
V3    V     V_3+5 0.386990 0.764540 0.749090 1.790212
V4    V     V_3+5 0.613010 0.235460 0.250910 1.746617
H1    H     H_    0.798333 0.802698 0.285739 0.229844
H2    H     H_    0.952623 0.208056 0.721271 0.238894
H3    H     H_    0.701661 0.302697 0.714262 0.229844
H4    H     H_    0.547371 0.708055 0.278728 0.238895
C9    C     C_R   0.993656 0.206324 0.531957 0.318751
C10   C     C_R   0.997903 0.791034 0.468391 0.334161
C11   C     C_R   0.506344 0.706324 0.468043 0.318752
C12   C     C_R   0.502097 0.291034 0.531609 0.334160
C13   C     C_R   0.013367 0.236566 0.610517 0.333961
C14   C     C_R   0.934814 0.761452 0.391201 0.323509
C15   C     C_R   0.486631 0.736566 0.389483 0.333963
C16   C     C_R   0.565184 0.261451 0.608799 0.323500
C17   C     C_R   0.967825 0.176651 0.664998 -0.183274
C18   C     C_R   0.863161 0.826780 0.341131 -0.170586
C19   C     C_R   0.532172 0.676651 0.335001 -0.183270
C20   C     C_R   0.636834 0.326779 0.658870 -0.170588
C21   C     C_R   0.977740 0.080929 0.655244 0.457743
C22   C     C_R   0.920711 0.917688 0.347700 0.426214
C23   C     C_R   0.522259 0.580928 0.344755 0.457726
C24   C     C_R   0.579284 0.417688 0.652300 0.426219
C25   C     C_R   0.998878 0.037864 0.579203 -0.060383
C26   C     C_R   0.964780 0.960980 0.423003 -0.075665
C27   C     C_R   0.501122 0.537864 0.420797 -0.060378
C28   C     C_R   0.535219 0.460979 0.576997 -0.075660
C29   C     C_R   0.984257 0.103249 0.512750 0.024250
C30   C     C_R   0.998916 0.895082 0.488748 -0.011599
C31   C     C_R   0.515742 0.603249 0.487250 0.024251
C32   C     C_R   0.501084 0.395081 0.511252 -0.011598
C33   C     C_R   0.026776 0.935831 0.567597 -0.063224
C34   C     C_R   0.966027 0.063696 0.433619 -0.081791
C35   C     C_R   0.473224 0.435831 0.432403 -0.063226
C36   C     C_R   0.533973 0.563696 0.566381 -0.081794
H5    H     H_    0.134705 0.058203 0.058858 0.150231
H6    H     H_    0.866708 0.938230 0.943666 0.134385
H7    H     H_    0.365295 0.558203 0.941142 0.150232
H8    H     H_    0.633293 0.438231 0.056335 0.134397
C37   C     C_2   0.145807 0.932621 0.934450 -0.187661
C38   C     C_2   0.855277 0.065222 0.066945 -0.243379
C39   C     C_2   0.354193 0.432621 0.065550 -0.187660
C40   C     C_2   0.644723 0.565222 0.933055 -0.243379
C41   C     C_2   0.997194 0.963667 0.967258 -0.051134
C42   C     C_2   0.004167 0.033225 0.034901 -0.017279
C43   C     C_2   0.502806 0.463668 0.032742 -0.051124
C44   C     C_2   0.495833 0.533225 0.965099 -0.017285
H9    H     H_    0.725658 0.039311 0.042618 0.118399
H10   H     H_    0.275398 0.959036 0.958323 0.122425
H11   H     H_    0.774342 0.539311 0.957382 0.118400
H12   H     H_    0.224601 0.459036 0.041676 0.122422
S1    S     S_3+6 0.973197 0.308446 0.473196 0.015643
O21   O     O_2   0.155020 0.344850 0.467229 -0.310547
O22   O     O_2   0.881620 0.302005 0.393857 -0.346805
O23   O     O_3   0.863774 0.389985 0.519988 -0.527799
H13   H     H_    0.834394 0.439546 0.480698 0.378492
S2    S     S_3+6 0.044902 0.687670 0.526851 0.034056
O24   O     O_2   0.172671 0.625178 0.490815 -0.309862
O25   O     O_2   0.113156 0.698346 0.609125 -0.335691
O26   O     O_3   0.860923 0.624709 0.526428 -0.522122
H14   H     H_    0.898396 0.567614 0.557106 0.382316
S3    S     S_3+6 0.526802 0.808446 0.526803 0.015645
O27   O     O_2   0.344980 0.844850 0.532771 -0.310547
O28   O     O_2   0.618380 0.802004 0.606143 -0.346803
O29   O     O_3   0.636225 0.889984 0.480012 -0.527798
H15   H     H_    0.665605 0.939545 0.519302 0.378493
S4    S     S_3+6 0.455097 0.187670 0.473149 0.034057
O30   O     O_2   0.327328 0.125178 0.509185 -0.309862
O31   O     O_2   0.386844 0.198346 0.390875 -0.335691
O32   O     O_3   0.639076 0.124708 0.473571 -0.522123
H16   H     H_    0.601603 0.067614 0.442893 0.382319
S5    S     S_3+6 0.109754 0.343729 0.653972 0.104408
O33   O     O_2   0.982313 0.387882 0.704675 -0.348311
O34   O     O_2   0.266739 0.312764 0.707994 -0.245105
O35   O     O_3   0.174855 0.429074 0.595237 -0.437465
H17   H     H_    0.166608 0.488756 0.624825 0.398448
S6    S     S_3+6 0.968707 0.649512 0.342996 0.103307
O36   O     O_2   0.882490 0.649310 0.260074 -0.311261
O37   O     O_2   0.163347 0.635034 0.338418 -0.281006
O38   O     O_3   0.892857 0.555653 0.388534 -0.487134
H18   H     H_    0.949316 0.500575 0.365172 0.401941
S7    S     S_3+6 0.390244 0.843729 0.346028 0.104407
O39   O     O_2   0.517682 0.887881 0.295324 -0.348309
O40   O     O_2   0.233256 0.812764 0.292007 -0.245107
O41   O     O_3   0.325145 0.929074 0.404764 -0.437464
H19   H     H_    0.333382 0.988755 0.375173 0.398448
S8    S     S_3+6 0.531292 0.149511 0.657004 0.103320
O42   O     O_2   0.617511 0.149307 0.739926 -0.311247
O43   O     O_2   0.336652 0.135034 0.661583 -0.281007
O44   O     O_3   0.607140 0.055653 0.611465 -0.487127
H20   H     H_    0.550681 0.000575 0.634827 0.401949
S9    S     S_3+6 0.993051 0.030039 0.747802 0.008777
O45   O     O_2   0.174611 0.987231 0.756206 -0.350422
O46   O     O_2   0.987137 0.098415 0.814977 -0.325376
O47   O     O_3   0.818574 0.957165 0.749836 -0.497635
H21   H     H_    0.743206 0.984416 0.788387 0.369771
S10   S     S_3+6 0.941893 0.959162 0.253597 0.012718
O48   O     O_2   0.095341 0.025837 0.252793 -0.334832
O49   O     O_2   0.971567 0.881114 0.196402 -0.291221
O50   O     O_3   0.738117 0.002367 0.229477 -0.514487
H22   H     H_    0.683225 0.961157 0.186938 0.365650
S11   S     S_3+6 0.506950 0.530038 0.252198 0.008773
O51   O     O_2   0.325388 0.487232 0.243793 -0.350421
O52   O     O_2   0.512865 0.598414 0.185022 -0.325374
O53   O     O_3   0.681424 0.457163 0.250164 -0.497641
H23   H     H_    0.756823 0.484431 0.211633 0.369780
S12   S     S_3+6 0.558103 0.459163 0.746403 0.012718
O54   O     O_2   0.404655 0.525838 0.747206 -0.334829
O55   O     O_2   0.528428 0.381115 0.803599 -0.291223
O56   O     O_3   0.761879 0.502367 0.770523 -0.514489
H24   H     H_    0.816771 0.461157 0.813061 0.365650

loop_
_geom_bond_atom_site_label_1
_geom_bond_atom_site_label_2
_ccdc_geom_bond_type
O1    C5    A    
S10   O48   D    
C12   C32   A    
C27   C31   A    
O13   V1    S    
C41   C42   S    
C7    C37   S    
O3    C7    A    
S7    O39   D    
C11   C31   A    
C40   C44   D    
S11   O53   S    
O15   V3    S    
S1    O21   D    
C8    C38   S    
C29   C34   A    
H8    C43   S    
C31   C36   A    
S5    O33   D    
C4    C34   S    
C10   S2    S    
C32   C35   A    
O20   V1    S    
O9    C4    A    
C10   C14   A    
C40   H11   S    
O10   C3    A    
O16   V4    S    
O4    C8    A    
O11   C2    A    
S2    O25   D    
O6    C2    A    
S6    O36   D    
S4    O32   S    
S8    O42   D    
H4    C19   S    
C14   C18   A    
C11   S3    S    
O35   H17   S    
S9    O47   S    
C10   C30   A    
C25   C33   A    
O16   C8    A    
S8    O43   D    
S4    O31   D    
C38   C42   D    
C28   C36   A    
C37   C41   D    
C22   S10   S    
O5    C1    A    
O4    V1    S    
O9    V1    S    
C30   C33   A    
O7    C3    A    
O11   V3    S    
O18   V3    S    
S5    O34   D    
O12   V4    S    
C38   H9    S    
H1    C18   S    
C9    S1    S    
C37   H10   S    
C15   S7    S    
C12   S4    S    
S12   O56   S    
H3    C20   S    
C6    C40   S    
C39   H12   S    
S1    O22   D    
O41   H19   S    
O5    V1    S    
O7    V3    S    
O8    V4    S    
O23   H13   S    
S12   O55   D    
S3    O27   D    
C25   C29   A    
S2    O24   D    
C11   C15   A    
C26   C34   A    
S10   O50   S    
H6    C41   S    
O1    V4    S    
O13   C5    A    
H5    C42   S    
C28   C32   A    
C27   C35   A    
O2    V3    S    
O3    V2    S    
O15   C7    A    
C43   C44   S    
O2    C6    A    
S3    O28   D    
O10   V2    S    
O32   H16   S    
C1    C35   S    
C17   C21   A    
O56   H24   S    
C21   S9    S    
S4    O30   D    
C3    C33   S    
S7    O40   D    
H2    C17   S    
C22   C26   A    
C14   S6    S    
S9    O45   D    
O14   V2    S    
C2    C36   S    
O6    V2    S    
C5    C39   S    
S5    O35   S    
C24   S12   S    
S11   O51   D    
S1    O23   S    
O50   H22   S    
C26   C30   A    
S10   O49   D    
O8    C4    A    
O14   C6    A    
S12   O54   D    
S11   O52   D    
S2    O26   S    
C19   C23   A    
O44   H20   S    
O53   H23   S    
C18   C22   A    
S8    O44   S    
O38   H18   S    
S3    O29   S    
C39   C43   D    
S6    O37   D    
O17   V4    S    
C21   C25   A    
C13   S5    S    
S7    O41   S    
C23   C27   A    
C9    C13   A    
O29   H15   S    
S9    O46   D    
C16   C20   A    
C12   C16   A    
O12   C1    A    
C16   S8    S    
C23   S11   S    
C13   C17   A    
H7    C44   S    
O26   H14   S    
C20   C24   A    
C15   C19   A    
C9    C29   A    
C24   C28   A    
O47   H21   S    
O19   V2    S    
S6    O38   S    
