data_mof_unit_53798.cif
_audit_creation_date              2012-12-11T16:47:44-0500
_audit_creation_method            fapswitch 2.2
_symmetry_space_group_name_H-M    P1
_symmetry_Int_Tables_number       1
_space_group_crystal_system       triclinic
_cell_length_a                    26.151213
_cell_length_b                    7.157201
_cell_length_c                    23.928407
_cell_angle_alpha                 89.999876
_cell_angle_beta                  101.46384
_cell_angle_gamma                 90.0
_cell_volume                      4389.31975297

loop_
_atom_site_label
_atom_site_type_symbol
_atom_type_description
_atom_site_fract_x
_atom_site_fract_y
_atom_site_fract_z
_atom_type_partial_charge
O1    O     O_R   0.797620 0.601060 0.203310 -0.551991
O2    O     O_R   0.202380 0.398940 0.796690 -0.526696
O3    O     O_R   0.702380 0.101060 0.296690 -0.551991
O4    O     O_R   0.297620 0.898940 0.703310 -0.526697
O5    O     O_R   0.692070 0.267810 0.186600 -0.526815
O6    O     O_R   0.307930 0.732190 0.813400 -0.528036
O7    O     O_R   0.807930 0.767810 0.313400 -0.526815
O8    O     O_R   0.192070 0.232190 0.686600 -0.528036
C1    C     C_R   0.673831 0.439879 0.171423 0.691990
C2    C     C_R   0.326233 0.560138 0.828493 0.707576
C3    C     C_R   0.826169 0.939879 0.328577 0.691991
C4    C     C_R   0.173766 0.060138 0.671507 0.707577
O9    O     O_R   0.796590 0.271120 0.196480 -0.519577
O10   O     O_R   0.203410 0.728880 0.803520 -0.546886
O11   O     O_R   0.703410 0.771120 0.303520 -0.519577
O12   O     O_R   0.296590 0.228880 0.696480 -0.546886
O13   O     O_R   0.807640 0.104280 0.306650 -0.538464
O14   O     O_R   0.192360 0.895720 0.693350 -0.538469
O15   O     O_R   0.692360 0.604280 0.193350 -0.538463
O16   O     O_R   0.307640 0.395720 0.806650 -0.538469
C5    C     C_R   0.811452 0.440259 0.183260 0.682878
C6    C     C_R   0.186723 0.560475 0.814712 0.690351
C7    C     C_R   0.688547 0.940259 0.316740 0.682878
C8    C     C_R   0.313277 0.060475 0.685288 0.690352
O17   O     O_3   0.753500 0.435660 0.286130 -0.369311
O18   O     O_3   0.246500 0.564340 0.713870 -0.372337
O19   O     O_3   0.746500 0.935660 0.213870 -0.369311
O20   O     O_3   0.253500 0.064340 0.786130 -0.372337
V1    V     V_3+5 0.749350 0.159470 0.243300 1.480785
V2    V     V_3+5 0.250650 0.840530 0.756700 1.472659
V3    V     V_3+5 0.750650 0.659470 0.256700 1.480785
V4    V     V_3+5 0.249350 0.340530 0.743300 1.472659
C9    C     C_R   0.391218 0.189337 0.647281 -0.050076
C10   C     C_R   0.652738 0.096386 0.397267 -0.071425
C11   C     C_R   0.108782 0.689336 0.852718 -0.050075
C12   C     C_R   0.847261 0.596387 0.102733 -0.071426
C13   C     C_R   0.426809 0.172087 0.609407 -0.054506
C14   C     C_R   0.615240 0.099842 0.433187 -0.099064
C15   C     C_R   0.073190 0.672086 0.890592 -0.054506
C16   C     C_R   0.884760 0.599843 0.066812 -0.099063
C17   C     C_R   0.421830 0.020346 0.570546 0.006953
C18   C     C_R   0.575820 0.961076 0.426917 0.005339
C19   C     C_R   0.078170 0.520346 0.929454 0.006954
C20   C     C_R   0.924179 0.461078 0.073083 0.005341
C21   C     C_R   0.383707 0.882651 0.571394 0.450234
C22   C     C_R   0.575258 0.815536 0.387383 0.441202
C23   C     C_R   0.116293 0.382651 0.928606 0.450230
C24   C     C_R   0.924741 0.315538 0.112617 0.441199
C25   C     C_R   0.349535 0.898703 0.609659 -0.172676
C26   C     C_R   0.613340 0.809971 0.353390 -0.172710
C27   C     C_R   0.150465 0.398703 0.890341 -0.172677
C28   C     C_R   0.886660 0.309972 0.146610 -0.172710
H1    H     H_    0.319911 0.792662 0.609401 0.138340
H2    H     H_    0.612244 0.697961 0.322700 0.122770
H3    H     H_    0.180089 0.292662 0.890600 0.138339
H4    H     H_    0.887756 0.197963 0.177301 0.122769
C29   C     C_R   0.352187 0.050659 0.647208 -0.180844
C30   C     C_R   0.651585 0.949450 0.356981 -0.164124
C31   C     C_R   0.147812 0.550658 0.852792 -0.180843
C32   C     C_R   0.848415 0.449450 0.143019 -0.164125
C33   C     C_R   0.454031 0.103216 0.479705 -0.016437
C34   C     C_R   0.539138 0.855105 0.513024 -0.014580
C35   C     C_R   0.045967 0.603225 0.020293 -0.016440
C36   C     C_R   0.960863 0.355098 0.986978 -0.014574
C37   C     C_R   0.492584 0.084678 0.446709 -0.265220
C38   C     C_R   0.500442 0.873072 0.545900 -0.224875
C39   C     C_R   0.007414 0.584689 0.053289 -0.265225
C40   C     C_R   0.999560 0.373064 0.954102 -0.224871
H5    H     H_    0.489821 0.166919 0.408147 0.124367
H6    H     H_    0.503528 0.792476 0.584822 0.147904
H7    H     H_    0.010176 0.666936 0.091849 0.124369
H8    H     H_    0.996475 0.292461 0.915181 0.147903
C41   C     C_R   0.535338 0.964315 0.462902 0.104513
C42   C     C_R   0.458582 0.997861 0.530648 0.104724
C43   C     C_R   0.964662 0.464317 0.037098 0.104512
C44   C     C_R   0.041418 0.497861 0.969352 0.104727
C45   C     C_3   0.957319 0.014429 0.521954 0.327806
C46   C     C_3   0.042323 0.985624 0.478502 0.319904
C47   C     C_3   0.542680 0.514430 0.978046 0.327805
C48   C     C_3   0.457677 0.485623 0.021498 0.319904
C49   C     C_3   0.999490 0.165150 0.524914 0.317920
C50   C     C_3   0.000157 0.834906 0.475545 0.313502
C51   C     C_3   0.500509 0.665150 0.975086 0.317920
C52   C     C_3   0.499843 0.334906 0.024455 0.313502
H9    H     H_    0.000887 0.250643 0.429037 0.183299
H10   H     H_    0.998765 0.749422 0.571429 0.188216
H11   H     H_    0.499112 0.750642 0.070963 0.183299
H12   H     H_    0.501235 0.249423 0.928571 0.188216
C53   C     C_1   0.128000 0.049421 0.625838 -0.157654
C54   C     C_1   0.871806 0.950619 0.374410 -0.157651
C55   C     C_1   0.372000 0.549420 0.874162 -0.157655
C56   C     C_1   0.628193 0.450620 0.125590 -0.157652
C57   C     C_3   0.999647 0.862088 0.539767 -0.352071
C58   C     C_3   0.000002 0.137964 0.460693 -0.360921
C59   C     C_3   0.500353 0.362089 0.960233 -0.352071
C60   C     C_3   0.499998 0.637964 0.039306 -0.360920
C61   C     C_3   0.042281 0.016264 0.542249 0.011154
C62   C     C_3   0.957367 0.983791 0.458206 0.011347
C63   C     C_3   0.457719 0.516263 0.957751 0.011154
C64   C     C_3   0.542632 0.483791 0.041794 0.011347
C65   C     C_1   0.089474 0.036140 0.588046 0.104214
C66   C     C_1   0.910239 0.963908 0.412324 0.102111
C67   C     C_1   0.410526 0.536139 0.911954 0.104214
C68   C     C_1   0.589761 0.463909 0.087676 0.102111
C69   C     C_2   0.394971 0.349411 0.687462 0.509625
H13   H     H_    0.390881 0.326548 0.731194 0.015557
O21   O     O_2   0.400837 0.508663 0.671560 -0.520544
C70   C     C_2   0.693308 0.244108 0.401747 0.535009
H14   H     H_    0.733130 0.207065 0.399663 0.034263
O22   O     O_2   0.682206 0.408691 0.405643 -0.503104
C71   C     C_2   0.105029 0.849410 0.812537 0.509625
H15   H     H_    0.109119 0.826547 0.768805 0.015557
O23   O     O_2   0.099163 0.008662 0.828439 -0.520544
C72   C     C_2   0.806691 0.744108 0.098253 0.535009
H16   H     H_    0.766869 0.707065 0.100337 0.034263
O24   O     O_2   0.817793 0.908691 0.094356 -0.503103
C73   C     C_2   0.471099 0.304905 0.611468 0.484114
H17   H     H_    0.484605 0.340846 0.572824 0.021189
O25   O     O_2   0.494563 0.368911 0.656624 -0.503701
C74   C     C_2   0.618010 0.240517 0.479625 0.560690
H18   H     H_    0.582575 0.292965 0.491104 0.010825
O26   O     O_2   0.659884 0.292576 0.507401 -0.466495
C75   C     C_2   0.028900 0.804901 0.888530 0.484115
H19   H     H_    0.015393 0.840844 0.927173 0.021181
O27   O     O_2   0.005436 0.868905 0.843373 -0.503699
C76   C     C_2   0.881988 0.740516 0.020373 0.560697
H20   H     H_    0.917423 0.792964 0.008894 0.010818
O28   O     O_2   0.840114 0.792574 0.992598 -0.466495
O29   O     O_3   0.380687 0.733054 0.534342 -0.621724
H21   H     H_    0.352667 0.647263 0.540845 0.316043
O30   O     O_3   0.537186 0.679406 0.383042 -0.642167
H22   H     H_    0.542647 0.585666 0.354274 0.281160
O31   O     O_3   0.119314 0.233055 0.965659 -0.621725
H23   H     H_    0.147334 0.147264 0.959156 0.316043
O32   O     O_3   0.962814 0.179410 0.116959 -0.642169
H24   H     H_    0.957353 0.085669 0.145727 0.281160
C77   C     C_2   0.410548 0.235720 0.459270 0.410950
H25   H     H_    0.411549 0.322859 0.422363 0.072603
O33   O     O_2   0.373025 0.248577 0.482283 -0.514861
C78   C     C_2   0.582842 0.723883 0.533845 0.437151
H26   H     H_    0.581291 0.634095 0.570048 0.063287
O34   O     O_2   0.621126 0.714882 0.511968 -0.481776
C79   C     C_2   0.089449 0.735738 0.040726 0.410944
H27   H     H_    0.088445 0.822890 0.077629 0.072607
O35   O     O_2   0.126973 0.748586 0.017715 -0.514858
C80   C     C_2   0.917162 0.223867 0.966159 0.437152
H28   H     H_    0.918715 0.134065 0.929960 0.063280
O36   O     O_2   0.878875 0.214877 0.988033 -0.481776
O37   O     O_3   0.998723 0.337690 0.552094 -0.630707
H29   H     H_    0.966891 0.401671 0.531497 0.322698
O38   O     O_3   0.000927 0.662362 0.448368 -0.635142
H30   H     H_    0.032748 0.598357 0.468981 0.319271
O39   O     O_3   0.501277 0.837691 0.947906 -0.630708
H31   H     H_    0.533108 0.901672 0.968503 0.322698
O40   O     O_3   0.499073 0.162361 0.051632 -0.635142
H32   H     H_    0.467252 0.098356 0.031019 0.319271
O41   O     O_3   0.912204 0.033839 0.544449 -0.608058
H33   H     H_    0.924645 0.049908 0.586076 0.322650
O42   O     O_3   0.087435 0.966215 0.456000 -0.617890
H34   H     H_    0.074991 0.950119 0.414375 0.310449
O43   O     O_3   0.587796 0.533842 0.955551 -0.608058
H35   H     H_    0.575355 0.549910 0.913924 0.322649
O44   O     O_3   0.412565 0.466213 0.043999 -0.617890
H36   H     H_    0.425009 0.450117 0.085625 0.310449

loop_
_geom_bond_atom_site_label_1
_geom_bond_atom_site_label_2
_ccdc_geom_bond_type
O17   V3    S    
C7    C30   S    
C63   C67   S    
O1    C5    A    
C76   H20   S    
O19   V1    S    
O13   V1    S    
C24   O32   S    
O3    C7    A    
C71   H15   S    
C64   C68   S    
C48   C52   S    
C12   C72   S    
C72   H16   S    
C15   C75   S    
O32   H24   S    
C37   H5    S    
O7    C3    A    
C69   O21   D    
C26   H2    S    
C36   C40   A    
O2    V4    S    
O10   V2    S    
C14   C18   A    
C73   O25   D    
O4    C8    A    
C52   O40   S    
C59   C63   S    
C75   O27   D    
C35   C44   A    
C58   C62   S    
C36   C80   S    
C79   H27   S    
C38   C42   A    
O1    V3    S    
C25   C29   A    
C70   H14   S    
C11   C31   A    
C18   C22   A    
O3    V1    S    
C46   C50   S    
O12   V4    S    
C54   C66   T    
C12   C16   A    
C28   C32   A    
C17   C42   S    
C1    O15   A    
O41   H33   S    
C35   C79   S    
O44   H36   S    
C2    O16   A    
C8    C29   S    
O2    C6    A    
C76   O28   D    
O38   H30   S    
C34   C41   A    
O14   V2    S    
C45   C49   S    
C48   C60   S    
C16   C20   A    
O5    V1    S    
C50   O38   S    
C40   H8    S    
C77   H25   S    
C14   C74   S    
O11   C7    A    
H12   C59   S    
O15   V3    S    
O12   C8    A    
C50   C57   S    
C51   C63   S    
C23   O31   S    
C50   C62   S    
C13   C73   S    
C47   O43   S    
C1    C56   S    
C74   O26   D    
O43   H35   S    
C80   O36   D    
C49   O37   S    
C35   C39   A    
O7    V3    S    
C34   C38   A    
C28   H4    S    
O8    V4    S    
C4    C53   S    
C75   H19   S    
C9    C69   S    
C78   H26   S    
C5    C32   S    
C37   C41   A    
C6    C31   S    
O18   V4    S    
C23   C27   A    
C27   H3    S    
C62   C66   S    
C9    C13   A    
C52   C59   S    
C52   C64   S    
C47   C59   S    
C20   C43   S    
C11   C15   A    
C48   O44   S    
O5    C1    A    
H10   C57   S    
C77   O33   D    
H9    C58   S    
C47   C64   S    
C72   O24   D    
O42   H34   S    
C21   C25   A    
O8    C4    A    
C16   C76   S    
H11   C60   S    
C46   C61   S    
C26   C30   A    
O9    C5    A    
C45   C62   S    
C71   O23   D    
O6    V2    S    
C2    C55   S    
C48   C63   S    
O31   H23   S    
C39   C43   A    
O30   H22   S    
C57   C61   S    
C22   O30   S    
C11   C71   S    
C74   H18   S    
C78   O34   D    
C80   H28   S    
O16   V4    S    
O9    V1    S    
C19   C44   S    
C79   O35   D    
C3    O13   A    
C18   C41   S    
C9    C29   A    
C53   C65   T    
C10   C14   A    
C55   C67   T    
C12   C32   A    
O6    C2    A    
C15   C19   A    
O11   V3    S    
C51   O39   S    
C33   C42   A    
C40   C44   A    
C69   H13   S    
C22   C26   A    
C10   C70   S    
O10   C6    A    
O20   V2    S    
O29   H21   S    
C73   H17   S    
C47   C51   S    
C49   C58   S    
C3    C54   S    
C33   C77   S    
C21   O29   S    
C38   H6    S    
C49   C61   S    
C46   C58   S    
C25   H1    S    
C51   C60   S    
C60   C64   S    
C45   C57   S    
C36   C43   A    
C70   O22   D    
C39   H7    S    
C13   C17   A    
O4    V2    S    
C56   C68   T    
C33   C37   A    
C46   O42   S    
C24   C28   A    
C27   C31   A    
C4    O14   A    
O40   H32   S    
C10   C30   A    
C17   C21   A    
C34   C78   S    
O39   H31   S    
O37   H29   S    
C19   C23   A    
C61   C65   S    
C20   C24   A    
C45   O41   S    
