data_mof_unit_44012.cif
_audit_creation_date              2013-03-05T15:44:39-0500
_audit_creation_method            fapswitch 2.2
_symmetry_space_group_name_H-M    P1
_symmetry_Int_Tables_number       1
_space_group_crystal_system       triclinic
_cell_length_a                    19.985532
_cell_length_b                    22.687912
_cell_length_c                    15.170287
_cell_angle_alpha                 89.949486
_cell_angle_beta                  90.36049
_cell_angle_gamma                 89.95092
_cell_volume                      6878.52172366

loop_
_atom_site_label
_atom_site_type_symbol
_atom_site_description
_atom_site_fract_x
_atom_site_fract_y
_atom_site_fract_z
_atom_type_partial_charge
Zn1   Zn    Zn3+2 0.583120 0.000000 0.434770 1.005575
Zn2   Zn    Zn3+2 0.083120 0.500000 0.434770 1.025566
Zn3   Zn    Zn3+2 0.425830 0.000000 0.416880 1.012298
Zn4   Zn    Zn3+2 0.925830 0.500000 0.416880 1.029573
Zn5   Zn    Zn3+2 0.495530 0.070660 0.574170 1.054363
Zn6   Zn    Zn3+2 0.495530 0.929340 0.574170 1.031824
Zn7   Zn    Zn3+2 0.995530 0.570660 0.574170 1.067457
Zn8   Zn    Zn3+2 0.995530 0.429340 0.574170 1.004261
O1    O     O_3   0.500000 0.000000 0.500000 -0.513182
O2    O     O_3   1.000000 0.500000 0.500000 -0.504207
O3    O     O_R   0.419410 0.880950 0.543120 -0.608721
O4    O     O_R   0.419410 0.119050 0.543120 -0.603653
O5    O     O_R   0.919410 0.380950 0.543120 -0.684072
O6    O     O_R   0.919410 0.619050 0.543120 -0.604870
O7    O     O_R   0.635640 0.069590 0.463140 -0.640534
O8    O     O_R   0.635640 0.930410 0.463140 -0.624260
O9    O     O_R   0.135640 0.569590 0.463140 -0.627889
O10   O     O_R   0.135640 0.430410 0.463140 -0.612448
O11   O     O_R   0.456890 0.000000 0.295720 -0.642495
O12   O     O_R   0.956890 0.500000 0.295720 -0.638910
O13   O     O_R   0.488070 0.049450 0.698020 -0.624026
O14   O     O_R   0.488070 0.950550 0.698020 -0.618946
O15   O     O_R   0.988070 0.549450 0.698020 -0.644670
O16   O     O_R   0.988070 0.450550 0.698020 -0.625136
O17   O     O_R   0.370630 0.069610 0.433010 -0.611856
O18   O     O_R   0.370630 0.930390 0.433010 -0.631768
O19   O     O_R   0.870630 0.569610 0.433010 -0.633629
O20   O     O_R   0.870630 0.430390 0.433010 -0.606480
O21   O     O_R   0.574320 0.880940 0.560740 -0.658749
O22   O     O_R   0.574320 0.119060 0.560740 -0.615053
O23   O     O_R   0.074320 0.380940 0.560740 -0.656549
O24   O     O_R   0.074320 0.619060 0.560740 -0.639704
O25   O     O_R   0.566990 0.000000 0.308240 -0.635506
O26   O     O_R   0.066990 0.500000 0.308240 -0.644160
C1    C     C_R   0.372736 0.886165 0.485444 0.883459
C2    C     C_R   0.372281 0.113887 0.486213 0.856822
C3    C     C_R   0.872699 0.385821 0.485352 0.857852
C4    C     C_R   0.872980 0.613816 0.485499 1.007660
C5    C     C_R   0.626949 0.113497 0.514137 0.899969
C6    C     C_R   0.626793 0.885561 0.513200 0.880553
C7    C     C_R   0.126735 0.614103 0.513672 0.917212
C8    C     C_R   0.126534 0.386063 0.513360 0.885073
C9    C     C_R   0.514324 0.000378 0.259860 0.803089
C10   C     C_R   0.014737 0.496894 0.259495 0.795638
C11   C     C_R   0.484416 0.000098 0.738221 0.820936
C12   C     C_R   0.984032 0.499775 0.738767 0.834278
C13   C     C_R   0.317027 0.156943 0.488881 -0.135924
C14   C     C_R   0.325250 0.837692 0.474088 -0.150429
C15   C     C_R   0.817402 0.655213 0.489909 -0.094021
C16   C     C_R   0.818671 0.341622 0.484080 -0.160405
C17   C     C_R   0.679299 0.840511 0.518575 -0.105665
C18   C     C_R   0.678414 0.158107 0.519811 -0.071089
C19   C     C_R   0.177959 0.341492 0.520199 -0.098543
C20   C     C_R   0.178097 0.659470 0.520709 -0.090317
C21   C     C_R   0.798067 0.817369 0.505767 -0.110306
C22   C     C_R   0.788769 0.188960 0.568759 -0.053748
C23   C     C_R   0.282042 0.306311 0.584253 -0.098475
C24   C     C_R   0.245869 0.722727 0.614959 -0.093251
C25   C     C_R   0.747086 0.858508 0.524650 -0.062025
C26   C     C_R   0.735351 0.148534 0.573364 -0.119719
C27   C     C_R   0.231058 0.349114 0.580946 -0.100813
C28   C     C_R   0.208882 0.670304 0.603212 -0.070131
C29   C     C_R   0.662819 0.779988 0.512025 -0.053116
C30   C     C_R   0.671355 0.209538 0.469049 -0.121150
C31   C     C_R   0.171097 0.289220 0.470796 -0.058997
C32   C     C_R   0.191125 0.695979 0.447736 -0.048961
C33   C     C_R   0.715148 0.738161 0.514282 0.107234
C34   C     C_R   0.717586 0.255697 0.481215 0.011276
C35   C     C_R   0.215056 0.241943 0.488629 0.096868
C36   C     C_R   0.241306 0.739438 0.455107 0.066331
C37   C     C_R   0.276198 0.254263 0.532135 0.000540
C38   C     C_R   0.259847 0.759093 0.540501 -0.027569
C39   C     C_R   0.780727 0.757102 0.493520 -0.011698
C40   C     C_R   0.780683 0.242142 0.519231 0.098206
C41   C     C_R   0.329811 0.214786 0.520134 -0.083034
C42   C     C_R   0.292619 0.814010 0.548370 -0.070006
C43   C     C_R   0.827861 0.714488 0.466311 -0.101565
C44   C     C_R   0.833347 0.282588 0.506864 -0.109445
C45   C     C_R   0.250672 0.139798 0.467270 -0.139078
C46   C     C_R   0.316030 0.812567 0.389630 -0.136669
C47   C     C_R   0.757265 0.637673 0.530837 -0.162168
C48   C     C_R   0.751953 0.358428 0.464298 -0.060705
C49   C     C_R   0.200074 0.183098 0.463288 -0.111027
C50   C     C_R   0.271845 0.764574 0.379517 -0.031024
C51   C     C_R   0.704113 0.678206 0.537029 -0.069577
C52   C     C_R   0.702249 0.314702 0.456736 -0.083217
C53   C     C_R   0.518884 0.997602 0.162770 -0.097048
C54   C     C_R   0.021462 0.487602 0.162283 -0.126317
C55   C     C_R   0.477843 0.001384 0.832945 -0.139642
C56   C     C_R   0.975667 0.497196 0.834190 -0.164876
C57   C     C_R   0.421417 0.043591 0.958492 -0.055241
C58   C     C_R   0.917852 0.452787 0.958835 -0.054812
C59   C     C_R   0.421139 0.028170 0.869003 -0.048495
C60   C     C_R   0.920665 0.465985 0.868261 -0.051257
C61   C     C_R   0.532633 0.986015 0.885955 -0.086434
C62   C     C_R   0.028518 0.514767 0.889538 -0.063865
C63   C     C_R   0.524624 0.985435 0.978355 0.113004
C64   C     C_R   0.029283 0.495449 0.978261 0.117603
C65   C     C_R   0.470613 0.017889 0.016109 0.005388
C66   C     C_R   0.969796 0.473170 0.016125 -0.002286
C67   C     C_R   0.466797 0.021771 0.109453 -0.095153
C68   C     C_R   0.964627 0.472807 0.109579 -0.093880
C69   C     C_R   0.571430 0.965252 0.123851 -0.130731
C70   C     C_R   0.085306 0.490641 0.121220 -0.131482
C71   C     C_R   0.570019 0.954009 0.033167 -0.021196
C72   C     C_R   0.089145 0.493437 0.028624 -0.019658
C73   C     C_2   0.399149 0.238298 0.522927 0.382176
H1    H     H_    0.415298 0.268507 0.471887 0.036976
O27   O     O_2   0.436751 0.227312 0.584559 -0.534930
C74   C     C_2   0.280336 0.851205 0.627876 0.422969
H2    H     H_    0.232641 0.847816 0.661164 0.048025
O28   O     O_2   0.321907 0.885401 0.657207 -0.561234
C75   C     C_2   0.883064 0.731551 0.405399 0.371192
H3    H     H_    0.876882 0.769776 0.363144 0.072297
O29   O     O_2   0.935282 0.703829 0.401184 -0.592913
C76   C     C_2   0.903383 0.261139 0.504234 0.384650
H4    H     H_    0.940346 0.276743 0.551237 0.117498
O30   O     O_2   0.919642 0.224374 0.449687 -0.563644
C77   C     C_2   0.610197 0.903434 0.999073 0.446016
H5    H     H_    0.659391 0.893781 0.026069 0.081953
O31   O     O_2   0.587221 0.870540 0.942856 -0.572685
C78   C     C_2   0.155137 0.484406 0.984770 0.437306
H6    H     H_    0.200904 0.501290 0.013758 0.081609
O32   O     O_2   0.159117 0.455872 0.916753 -0.582326
C79   C     C_R   0.362913 0.042748 0.811476 0.079197
C80   C     C_R   0.356707 0.098593 0.772199 -0.081482
C81   C     C_R   0.301464 0.111287 0.718418 -0.138086
C82   C     C_R   0.251947 0.068835 0.704481 -0.076949
C83   C     C_R   0.258111 0.013111 0.742967 -0.092618
C84   C     C_R   0.313545 0.999968 0.796101 -0.136307
H7    H     H_    0.394593 0.131961 0.783053 0.155450
H8    H     H_    0.296955 0.153881 0.687211 0.149616
H9    H     H_    0.208956 0.079065 0.663492 0.155937
H10   H     H_    0.219969 0.980095 0.731597 0.137560
H11   H     H_    0.317850 0.956673 0.825767 0.157927
C85   C     C_R   0.864533 0.448227 0.809264 0.101403
C86   C     C_R   0.809351 0.485892 0.798346 -0.138922
C87   C     C_R   0.754083 0.467829 0.748325 -0.056089
C88   C     C_R   0.754403 0.412851 0.706987 -0.056262
C89   C     C_R   0.809769 0.375716 0.716128 -0.141537
C90   C     C_R   0.864356 0.392793 0.768189 -0.081638
H12   H     H_    0.808599 0.528587 0.830208 0.136298
H13   H     H_    0.711201 0.496636 0.741104 0.129051
H14   H     H_    0.711891 0.399110 0.667535 0.130887
H15   H     H_    0.810183 0.333731 0.682854 0.127682
H16   H     H_    0.906332 0.363032 0.776508 0.139010
C91   C     C_2   0.599797 0.979014 0.844271 0.502186
H17   H     H_    0.604596 0.959934 0.779087 0.102919
O33   O     O_2   0.650259 0.996952 0.881280 -0.568674
C92   C     C_2   0.080312 0.556147 0.855482 0.460211
H18   H     H_    0.095481 0.554836 0.787094 0.115142
O34   O     O_2   0.105311 0.593356 0.903576 -0.602760
C93   C     C_2   0.232499 0.076716 0.453076 0.432312
H19   H     H_    0.198256 0.064331 0.400627 0.020822
O35   O     O_2   0.253707 0.038169 0.502051 -0.563082
C94   C     C_2   0.356272 0.834612 0.313833 0.425045
H20   H     H_    0.408301 0.846764 0.323772 0.049827
O36   O     O_2   0.331390 0.841472 0.240872 -0.606496
C95   C     C_2   0.751016 0.578727 0.573441 0.464147
H21   H     H_    0.703045 0.556562 0.576025 0.060377
O37   O     O_2   0.798875 0.555433 0.609784 -0.558104
C96   C     C_2   0.732411 0.421630 0.458625 0.397267
H22   H     H_    0.696024 0.436886 0.410707 0.106517
O38   O     O_2   0.755119 0.457243 0.510762 -0.572871
C97   C     C_R   0.337264 0.313737 0.649390 0.116489
C98   C     C_R   0.387782 0.355662 0.635091 -0.145384
C99   C     C_R   0.439655 0.362333 0.696560 -0.100785
C100  C     C_R   0.440999 0.327741 0.772885 -0.085728
C101  C     C_R   0.390177 0.286769 0.788243 -0.110601
C102  C     C_R   0.338176 0.280037 0.727040 -0.099203
H23   H     H_    0.387253 0.382487 0.576000 0.128515
H24   H     H_    0.478861 0.394239 0.684967 0.124024
H25   H     H_    0.481227 0.332900 0.820341 0.117367
H26   H     H_    0.390943 0.260380 0.847682 0.127032
H27   H     H_    0.298329 0.249170 0.740489 0.115281
C103  C     C_R   0.277436 0.734410 0.702288 0.083023
C104  C     C_R   0.238742 0.754955 0.772989 -0.202708
C105  C     C_R   0.268864 0.766699 0.854525 -0.103934
C106  C     C_R   0.337523 0.757540 0.866225 -0.086568
C107  C     C_R   0.376055 0.736154 0.796615 -0.102078
C108  C     C_R   0.346089 0.724305 0.715022 -0.106136
H28   H     H_    0.185549 0.762369 0.764443 0.128895
H29   H     H_    0.239009 0.782965 0.908594 0.138200
H30   H     H_    0.360792 0.766706 0.929350 0.143308
H31   H     H_    0.429096 0.728540 0.805973 0.151745
H32   H     H_    0.376056 0.706672 0.662173 0.126973
C109  C     C_R   0.869679 0.834992 0.515022 0.092424
C110  C     C_R   0.899493 0.873059 0.453514 -0.216464
C111  C     C_R   0.967603 0.886551 0.460053 -0.122544
C112  C     C_R   0.006446 0.862246 0.527852 -0.115548
C113  C     C_R   0.977189 0.824596 0.589495 -0.116120
C114  C     C_R   0.909081 0.811039 0.583312 -0.078194
H33   H     H_    0.870270 0.891593 0.400001 0.113875
H34   H     H_    0.990374 0.915567 0.412200 0.128099
H35   H     H_    0.059239 0.872489 0.532522 0.119492
H36   H     H_    0.007372 0.805668 0.641829 0.128154
H37   H     H_    0.887143 0.781325 0.630981 0.142457
C115  C     C_R   0.847965 0.179530 0.627029 0.065953
C116  C     C_R   0.852770 0.209270 0.707885 -0.176524
C117  C     C_R   0.908849 0.201341 0.762155 -0.136844
C118  C     C_R   0.959975 0.163013 0.736598 -0.109944
C119  C     C_R   0.954762 0.132110 0.657159 -0.085772
C120  C     C_R   0.898734 0.139947 0.602720 -0.104341
H38   H     H_    0.812774 0.237903 0.729259 0.133919
H39   H     H_    0.912517 0.224712 0.824184 0.133690
H40   H     H_    0.003393 0.156935 0.778640 0.127167
H41   H     H_    0.994164 0.102148 0.637727 0.144683
H42   H     H_    0.895153 0.115880 0.541251 0.154818
C121  C     C_2   0.642220 0.659740 0.583087 0.380765
H43   H     H_    0.613969 0.621987 0.559740 0.047415
O39   O     O_2   0.624085 0.685406 0.649488 -0.560799
C122  C     C_2   0.631695 0.332362 0.439274 0.360606
H44   H     H_    0.592622 0.318377 0.484009 0.087058
O40   O     O_2   0.616500 0.360023 0.373036 -0.595487
C123  C     C_2   0.129726 0.164567 0.446148 0.415099
H45   H     H_    0.117937 0.134822 0.392387 0.040355
O41   O     O_2   0.084591 0.181332 0.493909 -0.549917
C124  C     C_2   0.267436 0.734423 0.292827 0.425140
H46   H     H_    0.252277 0.758474 0.234252 0.124083
O42   O     O_2   0.281770 0.682297 0.286500 -0.615730
C125  C     C_2   0.764842 0.919565 0.553365 0.429184
H47   H     H_    0.810839 0.940247 0.532340 0.058566
O43   O     O_2   0.729031 0.946837 0.603954 -0.550646
C126  C     C_2   0.740186 0.096043 0.633000 0.445552
H48   H     H_    0.788474 0.077922 0.651381 0.085215
O44   O     O_2   0.690391 0.073436 0.664682 -0.536064
C127  C     C_2   0.234268 0.401164 0.641683 0.414787
H49   H     H_    0.260672 0.397936 0.704187 0.093736
O45   O     O_2   0.208987 0.448461 0.622460 -0.515222
C128  C     C_2   0.202184 0.627385 0.677585 0.393456
H50   H     H_    0.206791 0.641604 0.745480 0.101625
O46   O     O_2   0.193645 0.574934 0.663764 -0.536037
C129  C     C_R   0.594497 0.760875 0.482788 0.068986
C130  C     C_R   0.538646 0.764687 0.538526 -0.001202
C131  C     C_R   0.475320 0.747752 0.508252 -0.166940
C132  C     C_R   0.467310 0.724918 0.423455 -0.146688
C133  C     C_R   0.522811 0.718507 0.368907 -0.130575
C134  C     C_R   0.586138 0.735904 0.398575 -0.221677
H51   H     H_    0.544087 0.780357 0.605558 0.184898
H52   H     H_    0.432392 0.752473 0.550460 0.148827
H53   H     H_    0.418236 0.711652 0.400378 0.166991
H54   H     H_    0.516817 0.699947 0.303642 0.148335
H55   H     H_    0.628764 0.729602 0.355950 0.130690
C135  C     C_R   0.624321 0.210671 0.392141 0.097955
C136  C     C_R   0.650271 0.216114 0.306557 -0.080893
C137  C     C_R   0.607271 0.220980 0.233926 -0.116141
C138  C     C_R   0.538076 0.220360 0.246005 -0.099228
C139  C     C_R   0.511752 0.213973 0.330591 -0.141262
C140  C     C_R   0.554610 0.209375 0.403491 -0.189804
H56   H     H_    0.703848 0.217413 0.296346 0.126208
H57   H     H_    0.627617 0.225767 0.168354 0.118085
H58   H     H_    0.504875 0.225019 0.189783 0.113016
H59   H     H_    0.458130 0.213377 0.339732 0.100378
H60   H     H_    0.533611 0.206679 0.468744 0.176623
C141  C     C_R   0.127562 0.287876 0.389995 0.102551
C142  C     C_R   0.058092 0.297407 0.394071 -0.063063
C143  C     C_R   0.018944 0.296426 0.317389 -0.122491
C144  C     C_R   0.048377 0.284644 0.236050 -0.134694
C145  C     C_R   0.117059 0.273775 0.231295 -0.157754
C146  C     C_R   0.156545 0.275703 0.307642 -0.203471
H61   H     H_    0.033928 0.304454 0.456527 0.145721
H62   H     H_    0.965613 0.304252 0.321215 0.134915
H63   H     H_    0.017940 0.283726 0.176789 0.124543
H64   H     H_    0.139879 0.264498 0.168288 0.131866
H65   H     H_    0.209852 0.267829 0.302579 0.123455
C147  C     C_R   0.141498 0.699628 0.373898 0.059771
C148  C     C_R   0.132691 0.653252 0.313614 -0.089038
C149  C     C_R   0.084721 0.657632 0.246370 -0.156828
C150  C     C_R   0.046059 0.708659 0.237809 -0.075289
C151  C     C_R   0.055152 0.755378 0.296579 -0.062374
C152  C     C_R   0.102407 0.750852 0.364542 -0.140412
H66   H     H_    0.163433 0.614186 0.318085 0.186822
H67   H     H_    0.077542 0.621590 0.200657 0.138958
H68   H     H_    0.009045 0.711990 0.185657 0.128255
H69   H     H_    0.025076 0.794866 0.290087 0.123969
H70   H     H_    0.108364 0.787158 0.410246 0.128722
C153  C     C_R   0.406718 0.047332 0.152559 0.159494
C154  C     C_R   0.409942 0.103049 0.192577 -0.124335
C155  C     C_R   0.353609 0.126742 0.233706 -0.104554
C156  C     C_R   0.294175 0.094453 0.236677 -0.083257
C157  C     C_R   0.291289 0.038012 0.199919 -0.123324
C158  C     C_R   0.347406 0.014333 0.158105 -0.093197
H71   H     H_    0.455833 0.128056 0.190512 0.106848
H72   H     H_    0.355888 0.170162 0.263016 0.099598
H73   H     H_    0.250399 0.113196 0.267514 0.096607
H74   H     H_    0.245406 0.012835 0.203130 0.127872
H75   H     H_    0.344637 0.970699 0.129428 0.144724
C159  C     C_R   0.899239 0.460740 0.151927 0.178345
C160  C     C_R   0.847925 0.503034 0.148775 -0.127489
C161  C     C_R   0.786211 0.491263 0.187972 -0.146700
C162  C     C_R   0.775484 0.437416 0.230454 -0.090209
C163  C     C_R   0.826838 0.395680 0.235537 -0.091526
C164  C     C_R   0.888754 0.407391 0.196980 -0.109599
H76   H     H_    0.855592 0.544616 0.115236 0.122992
H77   H     H_    0.746450 0.523606 0.184541 0.131159
H78   H     H_    0.727241 0.427912 0.258960 0.139144
H79   H     H_    0.818548 0.354155 0.268903 0.125038
H80   H     H_    0.928152 0.374719 0.200634 0.094456
C165  C     C_R   0.626077 0.939226 0.178097 0.121756
C166  C     C_R   0.616209 0.886339 0.224279 -0.144198
C167  C     C_R   0.668218 0.862483 0.274997 -0.118105
C168  C     C_R   0.730008 0.890990 0.279890 -0.098096
C169  C     C_R   0.740104 0.943616 0.234007 -0.135607
C170  C     C_R   0.688355 0.967680 0.182985 -0.112788
H81   H     H_    0.568431 0.863915 0.221106 0.120471
H82   H     H_    0.660811 0.822001 0.310738 0.117684
H83   H     H_    0.769972 0.872132 0.319117 0.109050
H84   H     H_    0.788015 0.965691 0.237882 0.125846
H85   H     H_    0.696591 0.008478 0.147560 0.136206
C171  C     C_R   0.148370 0.485378 0.173375 0.132715
C172  C     C_R   0.164447 0.431802 0.214910 -0.099614
C173  C     C_R   0.222830 0.426726 0.265609 -0.106844
C174  C     C_R   0.265980 0.474826 0.274164 -0.096268
C175  C     C_R   0.250919 0.527979 0.231805 -0.118824
C176  C     C_R   0.192292 0.533373 0.181611 -0.196036
H86   H     H_    0.131090 0.394533 0.208915 0.130467
H87   H     H_    0.234596 0.385616 0.298441 0.126198
H88   H     H_    0.311180 0.470860 0.313397 0.134157
H89   H     H_    0.284639 0.565030 0.238007 0.189259
H90   H     H_    0.181235 0.574731 0.148981 0.146661
C177  C     C_R   0.377260 0.093379 0.984466 0.139326
C178  C     C_R   0.405151 0.149513 0.997741 -0.170238
C179  C     C_R   0.364057 0.197428 0.018196 -0.164306
C180  C     C_R   0.294844 0.189859 0.024169 -0.105589
C181  C     C_R   0.266563 0.134405 0.009343 -0.126283
C182  C     C_R   0.307468 0.086337 0.989074 -0.126300
H91   H     H_    0.458669 0.155992 0.992567 0.131591
H92   H     H_    0.385873 0.240458 0.029216 0.127326
H93   H     H_    0.263111 0.226989 0.040074 0.121445
H94   H     H_    0.212939 0.128640 0.013662 0.122332
H95   H     H_    0.284991 0.043590 0.977685 0.120790
C183  C     C_R   0.869256 0.406914 0.987046 0.141830
C184  C     C_R   0.800389 0.419118 0.991468 -0.123085
C185  C     C_R   0.755325 0.374776 0.014868 -0.121204
C186  C     C_R   0.778534 0.317940 0.033332 -0.101763
C187  C     C_R   0.846841 0.305279 0.028044 -0.154498
C188  C     C_R   0.892085 0.349485 0.004635 -0.175271
H96   H     H_    0.781833 0.463055 0.977930 0.120070
H97   H     H_    0.702426 0.384535 0.018972 0.128258
H98   H     H_    0.743586 0.283711 0.051690 0.122848
H99   H     H_    0.864744 0.261202 0.042047 0.131882
H100  H     H_    0.944870 0.339096 0.000293 0.128993

loop_
_geom_bond_atom_site_label_1
_geom_bond_atom_site_label_2
_geom_bond_distance
_ccdc_geom_bond_type
C136  H56   1.083296 S    
C41   C73   1.485674 S    
C80   C81   1.398296 A    
O23   C8    1.276156 A    
C21   C25   1.412047 A    
C162  C163  1.397549 A    
C174  H88   1.082307 S    
C184  C185  1.397923 A    
C107  C108  1.398052 A    
C27   C127  1.499648 S    
C133  H54   1.082261 S    
C96   H22   1.081461 S    
C87   H13   1.082289 S    
C104  H28   1.083141 S    
C135  C136  1.406482 A    
C2    C13   1.474484 S    
C156  H73   1.081654 S    
O12   C10   1.285095 A    
C185  H97   1.082166 S    
C180  C181  1.397522 A    
C101  H26   1.081955 S    
C95   O37   1.220720 D    
Zn3   O11   1.943721 S    
Zn1   O7    1.943730 S    
C36   C50   1.421604 A    
C63   C71   1.418175 A    
Zn2   O26   1.944378 S    
C116  C117  1.397890 A    
O15   C12   1.287766 A    
C136  C137  1.397306 A    
C163  H79   1.082472 S    
C43   C75   1.494605 S    
C96   O38   1.217206 D    
C12   C56   1.459387 S    
C33   C51   1.420803 A    
C119  C120  1.398304 A    
C113  C114  1.398348 A    
C89   C90   1.398021 A    
Zn5   O4    1.930999 S    
Zn6   O3    1.932952 S    
C175  C176  1.398583 A    
C138  H58   1.082362 S    
C123  H45   1.083939 S    
C85   C90   1.404074 A    
O6    C4    1.276484 A    
C148  H66   1.079868 S    
C127  H49   1.084628 S    
C58   C183  1.488559 S    
C62   C92   1.492424 S    
C58   C60   1.407500 A    
C23   C37   1.426165 A    
C128  O46   1.220476 D    
O7    C5    1.274284 A    
C50   C124  1.485091 S    
O8    C6    1.282177 A    
C53   C69   1.413268 A    
C100  C101  1.397946 A    
C65   C67   1.421392 A    
C116  H38   1.081127 S    
C166  C167  1.397705 A    
C157  H74   1.082117 S    
C185  C186  1.397536 A    
Zn3   O18   1.943408 S    
C187  C188  1.398074 A    
C51   C121  1.484937 S    
C89   H15   1.078464 S    
C54   C68   1.425413 A    
C88   C89   1.396324 A    
C61   C63   1.411891 A    
C23   C27   1.407637 A    
C64   C72   1.416140 A    
O16   C12   1.279685 A    
O3    C1    1.280254 A    
C156  C157  1.398211 A    
C3    C16   1.474280 S    
C32   C36   1.411025 A    
C133  C134  1.397903 A    
C31   C141  1.499051 S    
C94   O36   1.220356 D    
C76   O30   1.220745 D    
O17   C2    1.289489 A    
C186  C187  1.397627 A    
Zn4   O12   1.943721 S    
O18   C1    1.280368 A    
O14   C11   1.281633 A    
Zn5   O13   1.945735 S    
C122  H44   1.085234 S    
Zn8   O2    1.960193 S    
C177  C178  1.404808 A    
C181  C182  1.397997 A    
C39   C43   1.412980 A    
C75   O29   1.220081 D    
C166  H81   1.083139 S    
C153  C158  1.405476 A    
C112  C113  1.397272 A    
C131  H52   1.079078 S    
C14   C42   1.411594 A    
C91   H17   1.084584 S    
C82   C83   1.397110 A    
Zn6   O1    1.960193 S    
C105  C106  1.397840 A    
C176  H90   1.082487 S    
C150  H68   1.082273 S    
C30   C34   1.408669 A    
C147  C152  1.406378 A    
O10   C8    1.275374 A    
C8    C19   1.444404 S    
C34   C40   1.416770 A    
C132  C133  1.395642 A    
C143  C144  1.396251 A    
C68   C159  1.485377 S    
C164  H80   1.082094 S    
C18   C26   1.410564 A    
C113  H36   1.082381 S    
C19   C27   1.411947 A    
C28   C128  1.496401 S    
C62   C64   1.415132 A    
C70   C171  1.488565 S    
C73   H1    1.084442 S    
C19   C31   1.409803 A    
C129  C130  1.407197 A    
C188  H100  1.083166 S    
C179  C180  1.397532 A    
C153  C154  1.404155 A    
Zn2   O9    1.943730 S    
C111  C112  1.397430 A    
C111  H34   1.082273 S    
C66   C68   1.422150 A    
C54   C70   1.425125 A    
C160  C161  1.398445 A    
O13   C11   1.276897 A    
C137  H57   1.082412 S    
C77   O31   1.221444 D    
C152  H70   1.083281 S    
C86   H12   1.083074 S    
C135  C140  1.405231 A    
C61   C91   1.495781 S    
C183  C184  1.405705 A    
C139  H59   1.081559 S    
C48   C96   1.488123 S    
C180  H93   1.082322 S    
C134  H55   1.082216 S    
C83   H10   1.082353 S    
C132  H53   1.082326 S    
Zn5   O1    1.961688 S    
C125  H47   1.082181 S    
Zn3   O1    1.940046 S    
C45   C93   1.492329 S    
C124  O42   1.220598 D    
C155  C156  1.397031 A    
C72   C78   1.494956 S    
C121  H43   1.084767 S    
C69   C71   1.399495 A    
C109  C114  1.405961 A    
C112  H35   1.082474 S    
C127  O45   1.220020 D    
C110  H33   1.081643 S    
C119  H41   1.082335 S    
C167  H82   1.076950 S    
C78   O32   1.221569 D    
Zn4   O19   1.942221 S    
C83   C84   1.397805 A    
C175  H89   1.081641 S    
C137  C138  1.396222 A    
Zn7   O24   1.932220 S    
Zn8   O23   1.930891 S    
C151  H69   1.082507 S    
C44   C76   1.482293 S    
C85   C86   1.403495 A    
C183  C188  1.404955 A    
C108  H32   1.080610 S    
C56   C62   1.403487 A    
C169  H84   1.082272 S    
C20   C32   1.407748 A    
C6    C17   1.466100 S    
C120  H42   1.083018 S    
C154  H71   1.079472 S    
C144  C145  1.396725 A    
C13   C41   1.418626 A    
O20   C3    1.285617 A    
Zn7   O15   1.945735 S    
O21   C6    1.280806 A    
Zn8   O16   1.946491 S    
C15   C43   1.407478 A    
O22   C5    1.277246 A    
C55   C59   1.399994 A    
C74   O28   1.219522 D    
C21   C39   1.422895 A    
Zn8   O5    1.932952 S    
Zn4   O20   1.943408 S    
C92   H18   1.083109 S    
C57   C65   1.434571 A    
C142  H61   1.078156 S    
C47   C51   1.408070 A    
C145  C146  1.398132 A    
C24   C28   1.411733 A    
Zn7   O2    1.961688 S    
C117  H39   1.082639 S    
C84   H11   1.083234 S    
C46   C50   1.410378 A    
C126  H48   1.083453 S    
C70   C72   1.408655 A    
C4    C15   1.455894 S    
C69   C165  1.485059 S    
C67   C153  1.488292 S    
C91   O33   1.221455 D    
C52   C122  1.487654 S    
C106  H30   1.082354 S    
C186  H98   1.082343 S    
C23   C97   1.486507 S    
O19   C4    1.281857 A    
C177  C182  1.406247 A    
Zn6   O14   1.946491 S    
C161  C162  1.398079 A    
C118  C119  1.398130 A    
C15   C47   1.413558 A    
C141  C146  1.407851 A    
C131  C132  1.395539 A    
C33   C39   1.416881 A    
C93   O35   1.220957 D    
C11   C55   1.444127 S    
C22   C115  1.487577 S    
C105  H29   1.082281 S    
C38   C42   1.412914 A    
C171  C176  1.404421 A    
C178  C179  1.398160 A    
C140  H60   1.079329 S    
C150  C151  1.396914 A    
C73   O27   1.221250 D    
C103  C108  1.403027 A    
C1    C14   1.462830 S    
C16   C44   1.413004 A    
O11   C9    1.273366 A    
C56   C60   1.408812 A    
C102  H27   1.081215 S    
C170  H85   1.083120 S    
C22   C40   1.429346 A    
C143  H62   1.082302 S    
Zn3   O17   1.942221 S    
Zn1   O1    1.938940 S    
C145  H64   1.082397 S    
C18   C30   1.404020 A    
C99   C100  1.398326 A    
C20   C28   1.413007 A    
C48   C52   1.408727 A    
C168  H83   1.080779 S    
C74   H2    1.084281 S    
C55   C61   1.398266 A    
C129  C134  1.407023 A    
C57   C59   1.402218 A    
C95   H21   1.083893 S    
C148  C149  1.398919 A    
C17   C29   1.415786 A    
C181  H94   1.082155 S    
Zn1   O8    1.941653 S    
C114  H37   1.083169 S    
C90   H16   1.083135 S    
C122  O40   1.220869 D    
C64   C66   1.417018 A    
C79   C80   1.404698 A    
C130  C131  1.397912 A    
C81   C82   1.396792 A    
C139  C140  1.398314 A    
C16   C48   1.416786 A    
C75   H3    1.084493 S    
C97   C102  1.403801 A    
C171  C172  1.404703 A    
C163  C164  1.397614 A    
C167  C168  1.396104 A    
C49   C123  1.489176 S    
C77   H5    1.084759 S    
C99   H24   1.082294 S    
C30   C135  1.493855 S    
C160  H76   1.082946 S    
C162  H78   1.081006 S    
C109  C110  1.406442 A    
C45   C49   1.410233 A    
C174  C175  1.397622 A    
C184  H96   1.082326 S    
C31   C35   1.410819 A    
C118  H40   1.082333 S    
C128  H50   1.082978 S    
C57   C177  1.487776 S    
C59   C79   1.487011 S    
C87   C88   1.396626 A    
C106  C107  1.397880 A    
C22   C26   1.410092 A    
Zn6   O21   1.930891 S    
C149  C150  1.396823 A    
C42   C74   1.494092 S    
C104  C105  1.398168 A    
C40   C44   1.410281 A    
C115  C120  1.405611 A    
C151  C152  1.397447 A    
C71   C77   1.494517 S    
C146  H65   1.083304 S    
C172  C173  1.398059 A    
C97   C98   1.405429 A    
C47   C95   1.490506 S    
Zn2   O10   1.941653 S    
C34   C52   1.421610 A    
C101  C102  1.397787 A    
C144  H63   1.082519 S    
C13   C45   1.418827 A    
C165  C166  1.403615 A    
Zn1   O25   1.944378 S    
C173  C174  1.397102 A    
C94   H20   1.085607 S    
C123  O41   1.221259 D    
C76   H4    1.083406 S    
C179  H92   1.082230 S    
C35   C37   1.413386 A    
C81   H8    1.079198 S    
C25   C125  1.494859 S    
C79   C84   1.403230 A    
Zn7   O6    1.930999 S    
C169  C170  1.398220 A    
C117  C118  1.398048 A    
C149  H67   1.081716 S    
C60   C85   1.486819 S    
C115  C116  1.403250 A    
C21   C109  1.492127 S    
O4    C2    1.279182 A    
O5    C3    1.281039 A    
C32   C147  1.493656 S    
C5    C18   1.445843 S    
C98   H23   1.083053 S    
C53   C67   1.423455 A    
C172  H86   1.080753 S    
C26   C126  1.497615 S    
C63   C65   1.429182 A    
C46   C94   1.493472 S    
C100  H25   1.082304 S    
C29   C33   1.411826 A    
C161  H77   1.082151 S    
O25   C9    1.279396 A    
O26   C10   1.277834 A    
C147  C148  1.405132 A    
C157  C158  1.399047 A    
C159  C164  1.405988 A    
C110  C111  1.398393 A    
C187  H99   1.082224 S    
C35   C49   1.421253 A    
C29   C129  1.497656 S    
C88   H14   1.082421 S    
C178  H91   1.083098 S    
O24   C7    1.276395 A    
C142  C143  1.398036 A    
C155  H72   1.082035 S    
C103  C104  1.405830 A    
C98   C99   1.398415 A    
C92   O34   1.221407 D    
C17   C25   1.417755 A    
Zn4   O2    1.940046 S    
C141  C142  1.406693 A    
Zn2   O2    1.938940 S    
C58   C66   1.427261 A    
C165  C170  1.404198 A    
C168  C169  1.396965 A    
C154  C155  1.397931 A    
C24   C103  1.487876 S    
C126  O44   1.221043 D    
C138  C139  1.397370 A    
C86   C87   1.398072 A    
C9    C53   1.477659 S    
C159  C160  1.404406 A    
C14   C46   1.413864 A    
C93   H19   1.083626 S    
C125  O43   1.221090 D    
C82   H9    1.082320 S    
C37   C41   1.408721 A    
C24   C38   1.427377 A    
C124  H46   1.083798 S    
C80   H7    1.083145 S    
C121  O39   1.220816 D    
C130  H51   1.082408 S    
O9    C7    1.281421 A    
C7    C20   1.457779 S    
C107  H31   1.082340 S    
C158  H75   1.082996 S    
Zn5   O22   1.932220 S    
C182  H95   1.082741 S    
C173  H87   1.081956 S    
C36   C38   1.417598 A    
C78   H6    1.082846 S    
C10   C54   1.496778 S    
