data_mof_unit_67007.cif
_audit_creation_date              2012-12-11T17:41:04-0500
_audit_creation_method            fapswitch 2.2
_symmetry_space_group_name_H-M    P1
_symmetry_Int_Tables_number       1
_space_group_crystal_system       triclinic
_cell_length_a                    8.15784
_cell_length_b                    12.742436
_cell_length_c                    14.189405
_cell_angle_alpha                 92.762176
_cell_angle_beta                  90.646541
_cell_angle_gamma                 98.209725
_cell_volume                      1457.94123878

loop_
_atom_site_label
_atom_site_type_symbol
_atom_type_description
_atom_site_fract_x
_atom_site_fract_y
_atom_site_fract_z
_atom_type_partial_charge
Ba1   Ba    Ba6+2 0.855630 0.555280 0.454520 1.636560
Ba2   Ba    Ba6+2 0.334200 0.444810 0.545490 1.647447
C1    C     C_3   0.606776 0.943441 0.168427 -0.418824
C2    C     C_3   0.650342 0.855960 0.229234 0.350828
C3    C     C_3   0.475244 0.315014 0.257962 0.318593
C4    C     C_3   0.456435 0.294477 0.151596 -0.388528
C5    C     C_3   0.046423 0.195620 0.804938 0.358202
C6    C     C_3   0.061256 0.159077 0.904792 -0.363386
C7    C     C_3   0.541474 0.143535 0.764296 0.343394
C8    C     C_3   0.587746 0.052951 0.820300 -0.408394
C9    C     C_R   0.985655 0.443133 0.061115 -0.035326
C10   C     C_R   0.182931 0.498777 0.195941 0.040557
C11   C     C_R   0.337536 0.551483 0.226227 -0.294298
C12   C     C_3   0.143142 0.800247 0.191881 0.357163
C13   C     C_R   0.450252 0.598652 0.162514 0.017155
C14   C     C_R   0.405388 0.601387 0.067596 -0.150431
C15   C     C_R   0.248491 0.552461 0.034736 -0.003038
C16   C     C_R   0.137353 0.497159 0.098043 -0.022987
C17   C     C_R   0.052474 0.502597 0.901907 -0.022437
C18   C     C_R   0.941394 0.447230 0.965202 -0.003553
C19   C     C_R   0.007090 0.500713 0.803968 0.043283
C20   C     C_R   0.853389 0.446661 0.773485 -0.293427
C21   C     C_R   0.740136 0.400204 0.837275 0.016058
C22   C     C_R   0.784627 0.398106 0.932308 -0.148197
C23   C     C_3   0.129489 0.837724 0.092289 -0.365526
C24   C     C_R   0.204151 0.556667 0.938838 -0.036179
C25   C     C_R   0.760923 0.174934 0.534989 -0.302798
C26   C     C_R   0.429443 0.811994 0.458769 -0.332079
C27   C     C_R   0.409961 0.990906 0.415926 0.325964
C28   C     C_R   0.343157 0.884253 0.416115 -0.049681
C29   C     C_R   0.575811 0.845801 0.510490 0.069224
C30   C     C_R   0.639910 0.956262 0.518561 -0.110504
C31   C     C_R   0.555056 0.029958 0.470893 -0.070902
C32   C     C_R   0.618467 0.140024 0.480763 0.070404
C33   C     C_R   0.851031 0.103718 0.575126 -0.005792
C34   C     C_3   0.224703 0.760935 0.654535 0.283442
C35   C     C_R   0.787952 0.995342 0.570597 -0.076992
C36   C     C_3   0.242370 0.880117 0.674837 -0.354456
C37   C     C_3   0.967755 0.238188 0.343289 0.305755
C38   C     C_3   0.925248 0.120223 0.317549 -0.359855
C39   C     C_3   0.713884 0.673718 0.738351 0.308237
C40   C     C_3   0.730067 0.697181 0.844520 -0.394346
H1    H     H_    0.740349 0.891101 0.285403 0.078820
H2    H     H_    0.334410 0.903546 0.732625 0.111269
H3    H     H_    0.284407 0.922613 0.611278 0.076589
H4    H     H_    0.121391 0.903102 0.696181 0.143594
H5    H     H_    0.858495 0.268541 0.373207 -0.010830
H6    H     H_    0.069705 0.249936 0.396363 0.089965
H7    H     H_    0.809204 0.106125 0.274720 0.097627
H8    H     H_    0.908136 0.074455 0.381881 0.094716
H9    H     H_    0.026397 0.091833 0.276180 0.164784
H10   H     H_    0.831477 0.651251 0.711891 0.009591
H11   H     H_    0.611973 0.607071 0.724183 0.065302
H12   H     H_    0.550809 0.002930 0.212287 0.094853
H13   H     H_    0.837645 0.759488 0.861045 0.127394
H14   H     H_    0.748374 0.624625 0.880932 0.064440
H15   H     H_    0.615701 0.725267 0.871351 0.118451
H16   H     H_    0.535560 0.820691 0.263848 -0.066472
H17   H     H_    0.516574 0.909124 0.112092 0.114506
H18   H     H_    0.356284 0.334121 0.286090 0.010380
H19   H     H_    0.574227 0.383453 0.272505 0.048926
H20   H     H_    0.351976 0.230024 0.134833 0.127732
H21   H     H_    0.431497 0.367293 0.117646 0.062938
H22   H     H_    0.572193 0.270564 0.122545 0.116741
H23   H     H_    0.719974 0.983386 0.135135 0.133227
H24   H     H_    0.177666 0.781358 0.041204 0.068331
H25   H     H_    0.129595 0.271998 0.799788 0.095151
H26   H     H_    0.916489 0.208275 0.792221 -0.068248
H27   H     H_    0.021620 0.218680 0.956084 0.068213
H28   H     H_    0.981568 0.081728 0.912105 0.109656
H29   H     H_    0.191619 0.149740 0.921201 0.153181
H30   H     H_    0.655046 0.180231 0.729156 -0.053802
H31   H     H_    0.448798 0.111020 0.708603 0.080483
H32   H     H_    0.683442 0.084301 0.874640 0.114172
H33   H     H_    0.637644 0.994129 0.772391 0.092515
H34   H     H_    0.067856 0.720774 0.195197 0.091485
H35   H     H_    0.477349 0.013271 0.856296 0.129426
H36   H     H_    0.373903 0.551336 0.299790 0.070590
H37   H     H_    0.493554 0.640508 0.019482 0.069953
H38   H     H_    0.696300 0.359266 0.980463 0.070281
H39   H     H_    0.817708 0.445752 0.699740 0.069762
H40   H     H_    0.899637 0.397683 0.106221 0.098885
H41   H     H_    0.290221 0.602052 0.893718 0.096012
H42   H     H_    0.857788 0.943157 0.606552 0.104390
H43   H     H_    0.808156 0.258833 0.541235 0.060164
H44   H     H_    0.274909 0.793666 0.206465 -0.080196
H45   H     H_    0.377114 0.728951 0.456097 0.083848
H46   H     H_    0.998204 0.842095 0.073690 0.155299
H47   H     H_    0.202984 0.917560 0.087174 0.105946
H48   H     H_    0.345605 0.738795 0.634185 0.007425
H49   H     H_    0.133856 0.739991 0.595562 0.080244
O1    O     O_2   0.887370 0.460630 0.272300 -0.465365
O2    O     O_3   0.680122 0.765250 0.695885 -0.641143
O3    O     O_3   0.084399 0.873111 0.256031 -0.602682
O4    O     O_2   0.302330 0.539400 0.727760 -0.469664
O5    O     O_3   0.060300 0.548700 0.611500 -0.498023
O6    O     O_3   0.519500 0.346920 0.670840 -0.477150
O7    O     O_3   0.172949 0.710359 0.736580 -0.639471
O8    O     O_3   0.614310 0.373510 0.452640 -0.497048
O9    O     O_3   0.100780 0.295230 0.623970 -0.491980
O10   O     O_2   0.194046 0.111251 0.567665 -0.459445
O11   O     O_3   0.092373 0.118207 0.740517 -0.605591
O12   O     O_3   0.129410 0.451380 0.388510 -0.499217
O13   O     O_3   0.575400 0.626570 0.547370 -0.492985
O14   O     O_2   0.344320 0.238700 0.455090 -0.414023
O15   O     O_3   0.517026 0.223611 0.297660 -0.612110
O16   O     O_2   0.399804 0.407556 0.835476 -0.494171
O17   O     O_3   0.471100 0.214232 0.825713 -0.594465
O18   O     O_3   0.670210 0.653170 0.329170 -0.476623
O19   O     O_2   0.788624 0.589000 0.165102 -0.492607
O20   O     O_3   0.014642 0.290250 0.261472 -0.642475
O21   O     O_3   0.723688 0.782959 0.171992 -0.589051
O22   O     O_2   0.845380 0.761330 0.544970 -0.473697
O23   O     O_3   0.088930 0.704860 0.376040 -0.490218
O24   O     O_2   0.002990 0.887511 0.433715 -0.469266
P1    P     P_3+3 0.054400 0.427280 0.286870 0.967320
P2    P     P_3+3 0.668300 0.742890 0.573060 0.972947
P3    P     P_3+3 0.130620 0.840383 0.370917 0.974492
P4    P     P_3+3 0.135310 0.572810 0.713130 0.967463
P5    P     P_3+3 0.058340 0.156275 0.625766 0.953881
P6    P     P_3+3 0.658102 0.653995 0.206304 0.962477
P7    P     P_3+3 0.527646 0.243191 0.420757 1.012611
P8    P     P_3+3 0.532325 0.344550 0.793472 0.955468
O25   O     O_3   0.328681 0.056688 0.364416 -0.698117
H50   H     H_    0.300318 0.021383 0.301535 0.291888

loop_
_geom_bond_atom_site_label_1
_geom_bond_atom_site_label_2
_ccdc_geom_bond_type
C9    C16   A    
C24   H41   S    
O3    P3    S    
C39   C40   S    
O5    P4    S    
C17   C18   A    
C7    H30   S    
O16   P8    D    
Ba1   O8    S    
O7    P4    S    
C7    O17   S    
C6    H27   S    
Ba1   O22   S    
C15   C24   A    
Ba2   O4    S    
C17   C19   A    
O19   P6    D    
C3    C4    S    
C1    H12   S    
C13   C14   A    
C27   O25   S    
C27   C31   A    
Ba1   Ba2   S    
C4    H22   S    
C25   H43   S    
C17   C24   A    
C29   P2    S    
C36   H3    S    
Ba1   O18   S    
C5    H26   S    
C22   H38   S    
C39   O2    S    
C18   C22   A    
Ba2   O6    S    
C14   C15   A    
C5    O11   S    
C21   C22   A    
C35   H42   S    
O20   P1    S    
O9    P5    S    
Ba1   P1    S    
C7    C8    S    
Ba1   O12   S    
C39   H10   S    
C40   H14   S    
C37   O20   S    
C2    O21   S    
Ba2   O9    S    
C32   P7    S    
C19   C20   A    
C33   P5    S    
C1    H23   S    
O2    P2    S    
C40   H15   S    
C25   C32   A    
C8    H35   S    
C31   C32   A    
C3    O15   S    
C9    H40   S    
C9    C18   A    
C20   H39   S    
C5    C6    S    
C12   H44   S    
C37   C38   S    
C21   P8    S    
C28   P3    S    
C25   C33   A    
C23   H46   S    
C12   H34   S    
C4    H21   S    
C36   H2    S    
C27   C28   A    
C40   H13   S    
C8    H33   S    
C29   C30   A    
Ba2   O13   S    
O24   P3    D    
O15   P7    S    
C26   H45   S    
C15   C16   A    
C3    H19   S    
Ba1   P2    S    
C30   C35   A    
O1    P1    D    
Ba1   O13   S    
C39   H11   S    
O23   P3    S    
O8    P7    S    
O22   P2    D    
C34   H49   S    
Ba2   O8    S    
Ba1   O1    S    
C11   C13   A    
Ba1   O23   S    
O17   P8    S    
C2    H16   S    
C1    C2    S    
O11   P5    S    
C37   H5    S    
O13   P2    S    
C34   H48   S    
C11   H36   S    
C6    H29   S    
C13   P6    S    
C3    H18   S    
C33   C35   A    
O10   P5    D    
C23   H47   S    
C7    H31   S    
C26   C29   A    
C23   H24   S    
Ba2   P4    S    
C2    H1    S    
C38   H9    S    
Ba2   O14   S    
C6    H28   S    
C14   H37   S    
O4    P4    D    
C30   C31   A    
C4    H20   S    
Ba2   O5    S    
O12   P1    S    
O21   P6    S    
C19   P4    S    
C8    H32   S    
O18   P6    S    
Ba2   O12   S    
Ba1   O5    S    
C38   H8    S    
C34   C36   S    
C26   C28   A    
O14   P7    D    
C12   C23   S    
C36   H4    S    
C5    H25   S    
C10   C11   A    
O6    P8    S    
C10   C16   A    
C20   C21   A    
O25   H50   S    
C34   O7    S    
C12   O3    S    
C38   H7    S    
C37   H6    S    
C10   P1    S    
C1    H17   S    
