data_mof_unit_62264.cif
_audit_creation_date              2012-12-10T20:15:09-0500
_audit_creation_method            fapswitch 2.2
_symmetry_space_group_name_H-M    P1
_symmetry_Int_Tables_number       1
_space_group_crystal_system       triclinic
_cell_length_a                    15.720078
_cell_length_b                    19.332741
_cell_length_c                    18.476867
_cell_angle_alpha                 89.463542
_cell_angle_beta                  89.226955
_cell_angle_gamma                 90.855191
_cell_volume                      5613.95181809

loop_
_atom_site_label
_atom_site_type_symbol
_atom_type_description
_atom_site_fract_x
_atom_site_fract_y
_atom_site_fract_z
_atom_type_partial_charge
C1    C     C_R   0.499890 0.365666 0.500293 0.872083
C2    C     C_R   0.493248 0.254838 0.435212 -0.188797
C3    C     C_R   0.500254 0.709450 0.499339 -0.035522
C4    C     C_R   0.499745 0.290550 0.500660 -0.035524
C5    C     C_R   0.447497 0.962892 0.548726 -0.178812
C6    C     C_R   0.552503 0.037107 0.451273 -0.178812
C7    C     C_R   0.447708 0.034527 0.549292 -0.175843
C8    C     C_R   0.552292 0.965473 0.450707 -0.175843
C9    C     C_R   0.500190 0.071748 0.500550 0.103979
C10   C     C_R   0.499809 0.928252 0.499448 0.103979
C11   C     C_R   0.554490 0.544135 0.723640 -0.014110
C12   C     C_R   0.500109 0.634334 0.499707 0.872082
C13   C     C_R   0.445510 0.455865 0.276359 -0.014111
C14   C     C_R   0.557409 0.546200 0.799771 -0.226746
C15   C     C_R   0.442591 0.453800 0.200229 -0.226746
C16   C     C_R   0.337701 0.499923 0.500428 0.924257
C17   C     C_R   0.662299 0.500077 0.499572 0.924256
C18   C     C_R   0.504172 0.502108 0.841719 0.117847
C19   C     C_R   0.495829 0.497892 0.158281 0.117847
C20   C     C_R   0.448240 0.457920 0.805502 -0.274301
C21   C     C_R   0.551760 0.542080 0.194498 -0.274302
C22   C     C_R   0.446854 0.457171 0.729677 0.302258
C23   C     C_R   0.493730 0.817687 0.433814 -0.169843
C24   C     C_R   0.553146 0.542829 0.270323 0.302258
C25   C     C_R   0.427339 0.514527 0.960620 -0.240539
C26   C     C_R   0.572662 0.485473 0.039380 -0.240538
C27   C     C_R   0.422917 0.512651 0.036693 0.182928
C28   C     C_R   0.577083 0.487349 0.963307 0.182928
C29   C     C_R   0.496038 0.497586 0.077185 0.030130
C30   C     C_R   0.503962 0.502414 0.922816 0.030130
C31   C     C_3   0.969773 0.441940 0.532308 -0.159075
C32   C     C_3   0.030227 0.558060 0.467692 -0.159075
C33   C     C_3   0.028081 0.444431 0.464202 -0.162051
C34   C     C_R   0.506267 0.182313 0.566185 -0.169840
C35   C     C_3   0.971919 0.555569 0.535798 -0.162052
C36   C     C_1   0.248729 0.499858 0.501332 -0.159425
C37   C     C_1   0.751271 0.500141 0.498668 -0.159425
C38   C     C_3   0.026025 0.497417 0.568974 -0.147712
C39   C     C_3   0.973975 0.502583 0.431026 -0.147711
C40   C     C_3   0.082531 0.499908 0.500865 0.191109
C41   C     C_3   0.917469 0.500091 0.499135 0.191109
C42   C     C_1   0.173399 0.499846 0.501461 -0.058248
C43   C     C_1   0.826601 0.500154 0.498539 -0.058248
C44   C     C_R   0.493764 0.746014 0.433816 -0.160548
C45   C     C_R   0.500048 0.853142 0.499277 0.110295
C46   C     C_R   0.506234 0.253985 0.566183 -0.160551
C47   C     C_R   0.499951 0.146857 0.500722 0.110295
C48   C     C_R   0.506649 0.816754 0.564713 -0.170951
C49   C     C_R   0.493352 0.183245 0.435285 -0.170952
C50   C     C_R   0.506753 0.745161 0.564787 -0.188801
H1    H     H_    0.053246 0.398996 0.435005 0.145308
H2    H     H_    0.629478 0.473683 0.069352 0.178854
H3    H     H_    0.942856 0.394478 0.558661 0.146935
H4    H     H_    0.057144 0.605522 0.441339 0.146935
H5    H     H_    0.950500 0.504703 0.374660 0.153208
H6    H     H_    0.049500 0.495297 0.625340 0.153208
H7    H     H_    0.488227 0.719391 0.382746 0.178039
H8    H     H_    0.511769 0.280608 0.617253 0.178040
H9    H     H_    0.487775 0.845447 0.382970 0.140516
H10   H     H_    0.512221 0.154553 0.617029 0.140515
H11   H     H_    0.512565 0.843769 0.615553 0.137121
H12   H     H_    0.946754 0.601003 0.564994 0.145308
H13   H     H_    0.487437 0.156231 0.384446 0.137121
H14   H     H_    0.512212 0.717929 0.615979 0.157978
H15   H     H_    0.487791 0.282071 0.384020 0.157977
H16   H     H_    0.405948 0.934508 0.586065 0.138764
H17   H     H_    0.594051 0.065491 0.413934 0.138764
H18   H     H_    0.406239 0.060889 0.586972 0.141521
H19   H     H_    0.593760 0.939110 0.413027 0.141521
H20   H     H_    0.595849 0.578125 0.691809 0.139439
H21   H     H_    0.404151 0.421875 0.308191 0.139439
H22   H     H_    0.600523 0.582166 0.825639 0.165616
H23   H     H_    0.399477 0.417833 0.174361 0.165616
H24   H     H_    0.405964 0.423568 0.836182 0.171382
H25   H     H_    0.594035 0.576433 0.163818 0.171382
H26   H     H_    0.370522 0.526317 0.930648 0.178854
I1    I     I_    0.358971 0.387281 0.683024 -0.360555
I2    I     I_    0.641028 0.612719 0.316976 -0.360555
I3    I     I_    0.305054 0.538259 0.086154 -0.370371
I4    I     I_    0.694946 0.461741 0.913846 -0.370371
N1    N     N_R   0.500010 0.499980 0.689440 -0.110212
N2    N     N_R   0.499990 0.500020 0.310560 -0.110212
O1    O     O_R   0.500000 0.398180 0.560840 -0.600711
O2    O     O_R   0.500000 0.601820 0.439160 -0.600711
O3    O     O_R   0.499960 0.398180 0.439210 -0.635390
O4    O     O_R   0.500040 0.601820 0.560790 -0.635391
O5    O     O_R   0.376800 0.500000 0.560800 -0.588025
O6    O     O_R   0.623200 0.500000 0.439200 -0.588025
O7    O     O_R   0.376760 0.499990 0.439180 -0.622490
O8    O     O_R   0.623240 0.500010 0.560820 -0.622489
Zn1   Zn    Zn3+2 0.500030 0.500000 0.581210 0.980717
Zn2   Zn    Zn3+2 0.499970 0.500000 0.418790 0.980717

loop_
_geom_bond_atom_site_label_1
_geom_bond_atom_site_label_2
_ccdc_geom_bond_type
C49   H13   S    
O5    Zn1   S    
C27   C29   A    
C17   O6    A    
C50   H14   S    
C14   C18   A    
C36   C42   T    
C2    H15   S    
C6    C9    A    
C48   H11   S    
C11   H20   S    
C39   C41   S    
C4    C46   A    
C11   N1    A    
C15   C19   A    
C8    H19   S    
C33   C39   S    
C23   C45   A    
C1    O1    A    
C19   C21   A    
C27   I3    S    
O4    Zn1   S    
C11   C14   A    
N2    Zn2   S    
C12   O2    A    
C32   C39   S    
C24   N2    A    
C3    C12   S    
C7    H18   S    
C3    C50   A    
C39   H5    S    
O6    Zn2   S    
C16   O5    A    
C31   C33   S    
C34   C46   A    
C40   C42   S    
C16   O7    A    
C46   H8    S    
C34   H10   S    
C41   C43   S    
C35   C41   S    
C32   H4    S    
O3    Zn2   S    
C1    O3    A    
C3    C44   A    
C33   C40   S    
C32   C35   S    
C35   C38   S    
C47   C49   A    
C5    C7    A    
C6    C8    A    
C13   H21   S    
C13   N2    A    
C23   C44   A    
C37   C43   T    
C23   H9    S    
C22   N1    A    
C2    C49   A    
C26   H2    S    
C44   H7    S    
C10   C45   S    
C20   H24   S    
C17   C37   S    
C31   H3    S    
O7    Zn2   S    
C18   C30   S    
C24   I2    S    
C6    H17   S    
C15   H23   S    
C20   C22   A    
C9    C47   S    
C13   C15   A    
C25   C27   A    
C19   C29   S    
C45   C48   A    
C25   C30   A    
C7    C9    A    
C31   C41   S    
C14   H22   S    
C17   O8    A    
C22   I1    S    
C5    H16   S    
C33   H1    S    
O1    Zn1   S    
C21   H25   S    
C26   C28   A    
C31   C38   S    
C12   O4    A    
C1    C4    S    
C25   H26   S    
C28   C30   A    
C5    C10   A    
C16   C36   S    
C38   C40   S    
O8    Zn1   S    
C2    C4    A    
C48   C50   A    
C35   H12   S    
C18   C20   A    
C32   C40   S    
C28   I4    S    
N1    Zn1   S    
C38   H6    S    
C26   C29   A    
C8    C10   A    
C21   C24   A    
C34   C47   A    
O2    Zn2   S    
