data_mof_unit_55997.cif
_audit_creation_date              2013-03-05T16:02:01-0500
_audit_creation_method            fapswitch 2.2
_symmetry_space_group_name_H-M    P1
_symmetry_Int_Tables_number       1
_space_group_crystal_system       triclinic
_cell_length_a                    6.940463
_cell_length_b                    17.640158
_cell_length_c                    19.342297
_cell_angle_alpha                 108.460353
_cell_angle_beta                  89.91407
_cell_angle_gamma                 90.778912
_cell_volume                      2246.02171255

loop_
_atom_site_label
_atom_site_type_symbol
_atom_site_description
_atom_site_fract_x
_atom_site_fract_y
_atom_site_fract_z
_atom_type_partial_charge
O1    O     O_R   0.494330 0.415720 0.413720 -0.596159
O2    O     O_R   0.819330 0.430070 0.560210 -0.576315
O3    O     O_R   0.994320 0.584280 0.586280 -0.580609
C1    C     C_R   0.649961 0.415119 0.581792 0.964095
O4    O     O_R   0.823730 0.406300 0.412670 -0.593350
O5    O     O_R   0.998760 0.560340 0.437690 -0.605346
C2    C     C_R   0.654296 0.383560 0.385017 0.931561
O6    O     O_R   0.489890 0.439660 0.562310 -0.572019
O7    O     O_3   0.662340 0.550560 0.508380 -0.277964
V1    V     V_3+5 0.935370 0.490620 0.498450 1.184928
O8    O     O_R   0.328750 0.569930 0.439790 -0.602260
C3    C     C_R   0.160571 0.584940 0.418260 0.938838
O9    O     O_R   0.324340 0.593700 0.587330 -0.586109
C4    C     C_R   0.156987 0.614077 0.616860 0.995172
V2    V     V_3+5 0.435940 0.509380 0.501550 1.178447
O10   O     O_3   0.159100 0.449440 0.491620 -0.255862
H1    H     H_    0.283637 0.859092 0.560959 0.146033
C5    C     C_R   0.110140 0.591360 0.764686 0.117322
C6    C     C_R   0.071204 0.583818 0.833137 -0.155731
C7    C     C_R   0.042391 0.650159 0.893228 -0.106332
C8    C     C_R   0.056153 0.725812 0.886611 -0.115162
C9    C     C_R   0.095422 0.737264 0.818696 0.102650
C10   C     C_R   0.117871 0.668945 0.755036 0.059843
C11   C     C_R   0.112972 0.816052 0.814747 -0.279392
C12   C     C_R   0.143661 0.828042 0.746109 -0.029820
C13   C     C_R   0.175038 0.760612 0.683145 0.107413
C14   C     C_R   0.152083 0.681548 0.686396 -0.279990
C15   C     C_R   0.141897 0.905590 0.737433 0.316693
C16   C     C_R   0.198764 0.915774 0.671565 -0.206415
C17   C     C_R   0.243877 0.850504 0.612149 -0.160056
C18   C     C_R   0.226453 0.773816 0.616849 -0.160624
H2    H     H_    0.067175 0.525522 0.840532 0.141860
H3    H     H_    0.013171 0.643005 0.945844 0.137914
H4    H     H_    0.035805 0.775226 0.936009 0.110660
H5    H     H_    0.196023 0.974456 0.665019 0.151810
H6    H     H_    0.254698 0.725255 0.567569 0.113427
C19   C     C_R   0.302293 0.628722 0.318173 -0.255885
C20   C     C_R   0.153120 0.633316 0.368396 -0.149948
C21   C     C_R   0.995878 0.683139 0.369800 -0.234475
C22   C     C_R   0.988438 0.728859 0.322188 0.110275
C23   C     C_R   0.136710 0.722870 0.270851 0.054736
C24   C     C_R   0.293498 0.672118 0.268789 0.174952
C25   C     C_R   0.835945 0.780975 0.325655 -0.263680
C26   C     C_R   0.829325 0.827644 0.279207 0.205515
C27   C     C_R   0.974406 0.820705 0.226137 0.068633
C28   C     C_R   0.128517 0.767695 0.221756 -0.015472
C29   C     C_R   0.274966 0.759415 0.168723 0.126127
C30   C     C_R   0.429277 0.707705 0.167572 -0.149651
C31   C     C_R   0.438973 0.665325 0.217269 -0.227328
C32   C     C_R   0.970753 0.866136 0.178253 -0.206701
C33   C     C_R   0.114677 0.859185 0.125586 -0.220073
C34   C     C_R   0.264993 0.803539 0.119031 0.126587
H7    H     H_    0.423222 0.589843 0.316393 0.135455
H8    H     H_    0.880972 0.687352 0.408842 0.142187
H9    H     H_    0.722472 0.786417 0.365425 0.167973
H10   H     H_    0.856691 0.908347 0.181900 0.180649
H11   H     H_    0.547026 0.700400 0.129627 0.165461
H12   H     H_    0.560956 0.626954 0.215255 0.135740
C35   C     C_R   0.683308 0.214418 0.894527 -0.260447
C36   C     C_R   0.624305 0.133821 0.868737 -0.092938
C37   C     C_R   0.568807 0.099923 0.795394 -0.070815
C38   C     C_R   0.572982 0.145728 0.747648 0.121781
C39   C     C_R   0.629613 0.227013 0.774034 0.019456
C40   C     C_R   0.684432 0.261525 0.847812 0.180922
C41   C     C_R   0.521174 0.111854 0.674000 -0.176401
C42   C     C_R   0.523452 0.158119 0.626989 -0.197847
C43   C     C_R   0.578046 0.239177 0.652661 0.170168
C44   C     C_R   0.631353 0.273857 0.726582 0.027726
C45   C     C_R   0.686221 0.355335 0.753131 0.163858
C46   C     C_R   0.737588 0.389253 0.826813 -0.193721
C47   C     C_R   0.737844 0.342717 0.873591 -0.203372
C48   C     C_R   0.581877 0.285978 0.605697 -0.232926
C49   C     C_R   0.639533 0.366720 0.631646 -0.099543
C50   C     C_R   0.689384 0.401256 0.705480 -0.181132
H13   H     H_    0.724857 0.240690 0.951170 0.105042
H14   H     H_    0.523347 0.037704 0.775525 0.141376
H15   H     H_    0.479880 0.049366 0.652564 0.132299
H16   H     H_    0.482867 0.130391 0.570413 0.139441
H17   H     H_    0.542640 0.259465 0.548833 0.106069
H18   H     H_    0.730467 0.463953 0.725700 0.134465
H19   H     H_    0.777554 0.451879 0.848355 0.134441
H20   H     H_    0.779087 0.370376 0.930106 0.130778
H21   H     H_    0.294104 0.159836 0.425232 0.122836
C51   C     C_R   0.821936 0.393757 0.250947 -0.172342
C52   C     C_R   0.904575 0.400577 0.187485 -0.119624
C53   C     C_R   0.894727 0.336845 0.123177 -0.113650
C54   C     C_R   0.802135 0.265846 0.121869 -0.158007
C55   C     C_R   0.718625 0.256651 0.185655 0.118916
C56   C     C_R   0.729043 0.321956 0.251658 0.120181
C57   C     C_R   0.621076 0.184816 0.183962 -0.309253
C58   C     C_R   0.532324 0.178668 0.248233 0.108656
C59   C     C_R   0.543749 0.243821 0.314326 0.120404
C60   C     C_R   0.642776 0.315356 0.316146 -0.313839
C61   C     C_R   0.434377 0.107753 0.248553 -0.153133
C62   C     C_R   0.346970 0.101896 0.311566 -0.065826
C63   C     C_R   0.359680 0.165138 0.376115 -0.109285
C64   C     C_R   0.458085 0.235059 0.377936 -0.162107
H22   H     H_    0.829995 0.445878 0.298945 0.121450
H23   H     H_    0.975080 0.455933 0.188111 0.119637
H24   H     H_    0.957533 0.342657 0.073799 0.115113
H25   H     H_    0.795173 0.218873 0.070036 0.105619
H26   H     H_    0.424827 0.055728 0.200534 0.138331
H27   H     H_    0.270869 0.047542 0.310474 0.150286
H28   H     H_    0.466566 0.281731 0.429925 0.112684
O11   O     O_R   0.775200 0.060470 0.937800 -0.545335
O12   O     O_R   0.441110 0.093720 0.087350 -0.602513
O13   O     O_R   0.266330 0.939630 0.062280 -0.579559
C65   C     C_R   0.610359 0.116451 0.115132 0.925130
O14   O     O_R   0.445750 0.069950 0.939820 -0.585060
O15   O     O_R   0.271000 0.915700 0.913700 -0.584510
C66   C     C_R   0.614973 0.085295 0.918543 0.984223
O16   O     O_R   0.770530 0.084400 0.086380 -0.601311
O17   O     O_3   0.602830 0.949510 0.991680 -0.249237
V3    V     V_3+5 0.329710 0.009370 0.001550 1.224041
O18   O     O_R   0.940990 0.906170 0.912570 -0.563226
C67   C     C_R   0.108465 0.885079 0.883572 1.011713
O19   O     O_R   0.936350 0.929940 0.060100 -0.594253
C68   C     C_R   0.105331 0.911892 0.079067 0.963502
V4    V     V_3+5 0.829160 0.990450 0.998310 1.241421
O20   O     O_3   0.105910 0.050480 0.008320 -0.269951
I1    I     I_    0.596800 0.908528 0.295316 -0.497662
I2    I     I_    0.465321 0.779719 0.029932 -0.422503
I3    I     I_    0.172699 0.477935 0.688330 -0.405134
N1    N     N_R   0.049614 0.971509 0.788981 0.212357
O21   O     O_R   0.133758 0.041450 0.810085 -0.429111
O22   O     O_R   0.864756 0.966568 0.797845 -0.438973

loop_
_geom_bond_atom_site_label_1
_geom_bond_atom_site_label_2
_geom_bond_distance
_ccdc_geom_bond_type
C35   C36   1.404821 A    
C54   C55   1.416491 A    
C35   H13   1.083537 S    
C23   C24   1.411030 A    
C62   C63   1.388060 A    
C1    O6    1.296649 A    
C30   H11   1.079030 S    
C52   C53   1.388655 A    
C12   C15   1.430203 A    
C35   C40   1.407959 A    
C16   C17   1.383903 A    
O12   V3    1.993662 S    
C15   C16   1.397405 A    
C5    C6    1.397581 A    
C48   H17   1.083643 S    
C45   C46   1.404260 A    
O19   V4    1.988314 S    
O5    C3    1.295974 A    
C17   C18   1.387920 A    
C21   H8    1.084463 S    
O18   C67   1.296814 A    
C26   I1    2.125288 S    
C33   C68   1.486564 S    
C43   C48   1.407737 A    
C49   C50   1.405399 A    
C40   C47   1.404006 A    
C19   C24   1.402384 A    
C46   H19   1.082347 S    
O17   V4    1.707815 S    
C34   I2    2.151703 S    
C22   C25   1.398940 A    
C6    C7    1.380116 A    
C44   C45   1.411669 A    
C23   C28   1.416723 A    
C46   C47   1.401055 A    
O1    V2    2.004638 S    
C10   C14   1.432845 A    
C4    C14   1.487917 S    
C53   H24   1.082714 S    
O7    V1    2.161135 S    
O15   V3    1.997327 S    
O13   C68   1.295420 A    
C5    I3    2.126826 S    
C47   H20   1.083641 S    
C19   H7    1.084706 S    
C55   C56   1.424363 A    
C42   C43   1.403877 A    
O11   C66   1.298050 A    
C13   C18   1.418263 A    
C54   H25   1.080296 S    
C8    C9    1.416409 A    
C56   C60   1.419777 A    
H1    C17   1.082816 S    
C61   C62   1.392857 A    
O8    V2    1.988382 S    
C2    C60   1.486998 S    
C6    H2    1.082170 S    
C62   H27   1.082668 S    
C59   C64   1.416655 A    
C18   H6    1.080604 S    
C37   H14   1.084295 S    
C42   H16   1.083657 S    
C41   H15   1.082337 S    
C43   C44   1.413132 A    
C11   C12   1.424228 A    
C21   C22   1.404577 A    
O4    C2    1.297315 A    
C53   C54   1.392938 A    
C8    H4    1.080807 S    
C12   C13   1.426289 A    
C27   C28   1.415057 A    
C32   H10   1.081065 S    
C31   H12   1.084067 S    
C5    C10   1.438941 A    
C36   C37   1.405910 A    
O2    C1    1.298249 A    
C25   C26   1.398758 A    
O13   V3    1.996416 S    
C19   C20   1.404128 A    
C52   H23   1.082891 S    
C29   C30   1.411812 A    
V4    O20   2.159672 S    
C63   C64   1.392365 A    
C38   C39   1.411662 A    
C32   C33   1.404194 A    
C13   C14   1.422662 A    
C45   C50   1.406562 A    
C51   C52   1.392743 A    
C1    C49   1.477674 S    
O3    C4    1.299896 A    
O14   V3    1.999508 S    
C7    H3    1.082970 S    
C25   H9    1.083812 S    
C30   C31   1.394312 A    
C55   C57   1.419735 A    
C11   C67   1.493379 S    
O6    V2    1.990773 S    
O18   V4    2.007268 S    
O9    V2    2.007434 S    
C9    C11   1.419480 A    
C51   C56   1.417347 A    
O2    V1    1.999570 S    
O15   C67   1.299981 A    
C58   C59   1.424367 A    
C26   C27   1.415371 A    
N1    O22   1.299560 A    
O17   V3    2.161098 S    
C16   H5    1.082352 S    
C28   C29   1.418703 A    
C22   C23   1.410546 A    
C38   C41   1.404364 A    
O1    C2    1.295573 A    
C48   C49   1.404657 A    
O5    V1    1.996603 S    
O16   V4    2.010568 S    
O8    C3    1.298339 A    
C15   N1    1.428487 S    
C29   C34   1.417708 A    
C39   C44   1.416124 A    
C51   H22   1.081011 S    
O14   C66   1.297117 A    
O7    V2    1.709679 S    
C57   C65   1.487753 S    
C33   C34   1.420087 A    
O3    V1    1.997325 S    
V1    O10   1.710431 S    
O19   C68   1.302627 A    
C58   C61   1.417326 A    
C57   C58   1.420529 A    
C20   C21   1.405372 A    
O12   C65   1.296928 A    
C27   C32   1.404067 A    
H21   C63   1.082705 S    
C59   C60   1.419269 A    
C3    C20   1.477730 S    
C37   C38   1.406578 A    
C64   H28   1.080296 S    
C24   C31   1.396954 A    
C39   C40   1.413128 A    
C65   O16   1.296468 A    
O4    V1    1.993809 S    
C7    C8    1.382444 A    
C61   H26   1.080754 S    
C41   C42   1.400969 A    
C36   C66   1.478360 S    
C9    C10   1.434433 A    
O11   V4    1.991265 S    
C50   H18   1.084109 S    
O9    C4    1.297644 A    
V3    O20   1.710435 S    
V2    O10   2.159608 S    
N1    O21   1.300786 A    
