data_mof_unit_6210.cif
_audit_creation_date              2012-12-10T16:52:37-0500
_audit_creation_method            fapswitch 2.2
_symmetry_space_group_name_H-M    P1
_symmetry_Int_Tables_number       1
_space_group_crystal_system       triclinic
_cell_length_a                    7.85194
_cell_length_b                    8.551469
_cell_length_c                    13.946152
_cell_angle_alpha                 93.183561
_cell_angle_beta                  94.650525
_cell_angle_gamma                 94.057442
_cell_volume                      929.231116368

loop_
_atom_site_label
_atom_site_type_symbol
_atom_type_description
_atom_site_fract_x
_atom_site_fract_y
_atom_site_fract_z
_atom_type_partial_charge
C1    C     C_R   0.044923 0.794464 0.497513 0.952021
C2    C     C_R   0.933073 0.481476 0.318807 0.913386
C3    C     C_R   0.102923 0.518801 0.786557 -0.208939
C4    C     C_R   0.888048 0.430911 0.218206 -0.202074
C5    C     C_R   0.019971 0.575306 0.947573 -0.169209
C6    C     C_R   0.895959 0.236388 0.085494 -0.173761
C7    C     C_R   0.980816 0.565538 0.848174 -0.266472
C8    C     C_R   0.960103 0.300621 0.176443 -0.280446
C9    C     C_R   0.262964 0.477646 0.825881 0.556018
C10   C     C_R   0.747222 0.492112 0.170649 0.517298
C11   C     C_R   0.287654 0.456507 0.924479 -0.037179
C12   C     C_R   0.955021 0.205518 0.502280 0.945933
C13   C     C_R   0.659990 0.404458 0.091280 -0.033994
C14   C     C_R   0.174829 0.523864 0.986199 0.012143
C15   C     C_R   0.744768 0.288065 0.042195 0.030514
C16   C     C_R   0.433229 0.387359 0.963618 -0.134373
C17   C     C_R   0.490635 0.429950 0.059820 -0.155964
C18   C     C_3   0.740889 0.753706 0.151866 -0.354821
C19   C     C_3   0.490944 0.623221 0.779544 -0.316229
C20   C     C_3   0.405489 0.309132 0.241547 -0.286309
C21   C     C_3   0.331184 0.071025 0.848226 -0.352581
C22   C     C_R   0.371715 0.484309 0.123284 0.627779
C23   C     C_R   0.518182 0.270827 0.912747 0.629376
C24   C     C_R   0.218498 0.537577 0.085259 -0.285498
C25   C     C_R   0.672091 0.220590 0.953549 -0.317524
C26   C     C_2   0.068241 0.958241 0.495982 -0.377772
C27   C     C_2   0.931629 0.041718 0.503490 -0.366006
C28   C     C_R   0.066596 0.513587 0.681837 0.886912
H1    H     H_    0.133084 0.587831 0.133456 0.163219
H2    H     H_    0.513721 0.633907 0.565130 0.182843
H3    H     H_    0.696139 0.864358 0.182753 0.204030
H4    H     H_    0.883183 0.768871 0.154176 0.140816
H5    H     H_    0.683571 0.735966 0.076056 0.148787
H6    H     H_    0.547572 0.651952 0.854771 0.139103
H7    H     H_    0.407659 0.716484 0.755930 0.140167
H8    H     H_    0.597545 0.622441 0.732296 0.192500
H9    H     H_    0.539968 0.289235 0.265401 0.168525
H10   H     H_    0.359480 0.223220 0.180102 0.115948
H11   H     H_    0.326154 0.280791 0.301202 0.175235
H12   H     H_    0.733986 0.129086 0.915800 0.157885
H13   H     H_    0.224369 0.114143 0.887761 0.157375
H14   H     H_    0.398321 0.982857 0.889950 0.146299
H15   H     H_    0.273966 0.010712 0.779422 0.195945
H16   H     H_    0.062258 0.246164 0.214937 0.172167
H17   H     H_    0.859031 0.601875 0.819615 0.175728
H18   H     H_    0.928769 0.620921 0.993967 0.138849
H19   H     H_    0.957874 0.140654 0.052083 0.139042
H20   H     H_    0.197022 0.009510 0.488789 0.182063
H21   H     H_    0.802836 0.990450 0.510641 0.184097
H22   H     H_    0.487490 0.364716 0.436987 0.182171
N1    N     N_2   0.440860 0.456490 0.474790 -0.132051
N2    N     N_2   0.559140 0.543510 0.525210 -0.147914
O1    O     O_R   0.891570 0.738930 0.506190 -0.611961
O2    O     O_3   0.400895 0.473561 0.770078 -0.538915
O3    O     O_3   0.392334 0.469232 0.221986 -0.548427
O4    O     O_3   0.446288 0.196060 0.826969 -0.554905
O5    O     O_R   0.108430 0.261070 0.493810 -0.620411
O6    O     O_R   0.174650 0.711050 0.490030 -0.626889
O7    O     O_R   0.825350 0.288950 0.509970 -0.629319
O8    O     O_R   0.909850 0.521900 0.644940 -0.623560
O9    O     O_R   0.090150 0.478100 0.355060 -0.598701
O10   O     O_R   0.192930 0.494020 0.628780 -0.558554
O11   O     O_R   0.807070 0.505980 0.371220 -0.570292
O12   O     O_3   0.687280 0.629731 0.207577 -0.553030
Zn1   Zn    Zn3+2 0.810990 0.518620 0.510790 0.973895
Zn2   Zn    Zn3+2 0.189010 0.481380 0.489210 0.986013

loop_
_geom_bond_atom_site_label_1
_geom_bond_atom_site_label_2
_ccdc_geom_bond_type
C10   C13   A    
C21   O4    S    
C2    C4    S    
O11   Zn1   S    
C22   O3    S    
C3    C9    A    
C26   H20   S    
O1    Zn1   S    
C5    H18   S    
C17   C22   A    
C2    O9    A    
C13   C17   A    
O5    Zn2   S    
C4    C8    A    
C13   C15   A    
H22   N1    S    
C5    C14   A    
C23   O4    S    
C19   H7    S    
C1    O6    A    
O7    Zn1   S    
C20   H9    S    
C9    C11   A    
C18   O12   S    
C26   C27   D    
C28   O8    A    
C20   O3    S    
C21   H13   S    
C12   O5    A    
C7    H17   S    
C19   O2    S    
C3    C28   S    
C18   H5    S    
C8    H16   S    
O8    Zn1   S    
C6    C8    A    
C16   C23   A    
C3    C7    A    
C19   H8    S    
C23   C25   A    
C25   H12   S    
C1    C26   S    
C11   C14   A    
C22   C24   A    
C15   C25   A    
C18   H4    S    
C6    H19   S    
O10   Zn2   S    
C12   C27   S    
C4    C10   A    
C21   H14   S    
C27   H21   S    
C20   H10   S    
C2    O11   A    
C11   C16   A    
C14   C24   A    
C5    C7    A    
C20   H11   S    
C1    O1    A    
C24   H1    S    
H2    N2    S    
C9    O2    S    
C19   H6    S    
C6    C15   A    
C21   H15   S    
C12   O7    A    
O9    Zn2   S    
O6    Zn2   S    
C10   O12   S    
N2    Zn1   S    
N1    N2    D    
C18   H3    S    
C16   C17   A    
N1    Zn2   S    
C28   O10   A    
