data_mof_unit_59568.cif
_audit_creation_date              2012-12-11T15:55:52-0500
_audit_creation_method            fapswitch 2.2
_symmetry_space_group_name_H-M    P1
_symmetry_Int_Tables_number       1
_space_group_crystal_system       triclinic
_cell_length_a                    11.197827
_cell_length_b                    11.212701
_cell_length_c                    18.762863
_cell_angle_alpha                 89.700048
_cell_angle_beta                  89.705312
_cell_angle_gamma                 58.711384
_cell_volume                      2013.1632716

loop_
_atom_site_label
_atom_site_type_symbol
_atom_type_description
_atom_site_fract_x
_atom_site_fract_y
_atom_site_fract_z
_atom_type_partial_charge
Br1   Br    Br    0.645165 0.273445 0.130879 -0.534946
Br2   Br    Br    0.892039 0.041314 0.337543 -0.638779
C1    C     C_R   0.358185 0.773201 0.398597 0.550163
C2    C     C_R   0.250389 0.434104 0.204336 -0.150203
C3    C     C_R   0.228867 0.451098 0.278503 -0.014848
C4    C     C_R   0.378461 0.353430 0.391166 0.535873
C5    C     C_R   0.800253 0.733318 0.350454 -0.073353
C6    C     C_R   0.828938 0.665548 0.285344 -0.099499
C7    C     C_R   0.966123 0.585951 0.260486 -0.110323
C8    C     C_R   0.081100 0.562930 0.302248 0.016763
C9    C     C_R   0.328336 0.336209 0.322314 -0.004601
C10   C     C_R   0.945101 0.300034 0.193929 -0.022488
C11   C     C_R   0.826456 0.302302 0.214582 0.050552
C12   C     C_R   0.568398 0.055527 0.196974 0.050051
C13   C     C_R   0.788464 0.312370 0.284944 -0.003893
C14   C     C_R   0.987240 0.321537 0.320634 -0.130923
C15   C     C_R   0.032444 0.299136 0.248265 -0.193075
C16   C     C_R   0.787331 0.373153 0.407057 0.544491
C17   C     C_3   0.793792 0.193356 0.200742 0.050589
C18   C     C_3   0.755718 0.202637 0.279546 0.000578
C19   C     C_R   0.861270 0.329360 0.338723 0.047174
C20   C     C_R   0.325909 0.873923 0.181245 0.010075
C21   C     C_R   0.452758 0.774718 0.209516 -0.041599
C22   C     C_R   0.463282 0.752478 0.282201 0.002397
C23   C     C_R   0.347405 0.304952 0.173777 0.039362
C24   C     C_R   0.230698 0.942830 0.301691 -0.137129
C25   C     C_R   0.216267 0.962008 0.228059 -0.133425
C26   C     C_3   0.535300 0.622881 0.193797 -0.262065
C27   C     C_3   0.545904 0.599954 0.273648 -0.245023
C28   C     C_R   0.346799 0.764240 0.605063 0.549672
C29   C     C_R   0.351669 0.829486 0.328483 0.024504
C30   C     C_R   0.329532 0.324034 0.818289 -0.004843
C31   C     C_R   0.432913 0.214285 0.777548 -0.054484
C32   C     C_R   0.437262 0.225837 0.706341 0.052099
C33   C     C_R   0.260436 0.468444 0.712930 -0.096691
C34   C     C_R   0.418702 0.206902 0.292276 -0.175549
C35   C     C_R   0.254887 0.458007 0.787538 0.233448
C36   C     C_3   0.482032 0.062004 0.771406 -0.212752
C37   C     C_3   0.485715 0.077695 0.691196 0.152584
C38   C     C_R   0.344087 0.347088 0.671525 -0.070491
C39   C     C_R   0.828242 0.335141 0.833198 0.031354
C40   C     C_R   0.373097 0.354312 0.597687 0.531613
C41   C     C_R   0.863375 0.413345 0.789230 -0.007541
C42   C     C_R   0.843852 0.422531 0.717674 0.067411
C43   C     C_R   0.740245 0.281372 0.728139 -0.166412
C44   C     C_R   0.756725 0.276007 0.802837 -0.161881
C45   C     C_R   0.442046 0.191552 0.220039 -0.016243
C46   C     C_3   0.997058 0.410978 0.781992 -0.185339
C47   C     C_3   0.974094 0.423640 0.702155 0.144672
C48   C     C_R   0.793571 0.347638 0.685008 -0.023569
C49   C     C_R   0.297500 0.851081 0.825275 0.026382
C50   C     C_R   0.184289 0.923945 0.779045 -0.037451
C51   C     C_R   0.199612 0.906139 0.706364 -0.027845
C52   C     C_R   0.757543 0.378669 0.610939 0.534095
C53   C     C_R   0.447517 0.747651 0.723277 -0.146203
C54   C     C_R   0.432449 0.767770 0.797195 0.218834
C55   C     C_3   0.048088 0.929680 0.777957 -0.249736
C56   C     C_R   0.046413 0.647224 0.363667 -0.066794
C57   C     C_3   0.062879 0.914752 0.697785 -0.238890
C58   C     C_R   0.329916 0.813122 0.677621 -0.029441
C59   C     C_R   0.977808 0.286772 0.117468 0.542361
C60   C     C_R   0.323486 0.283588 0.097863 0.558810
C61   C     C_R   0.304605 0.901402 0.105552 0.521716
C62   C     C_R   0.882690 0.310948 0.905387 0.573323
C63   C     C_R   0.298287 0.288509 0.886798 0.549817
C64   C     C_R   0.798529 0.821712 0.134715 -0.120897
C65   C     C_R   0.275692 0.894678 0.898621 0.565636
C66   C     C_R   0.817522 0.887345 0.192929 -0.086845
C67   C     C_R   0.908998 0.727150 0.388764 -0.105526
C68   C     C_R   0.698807 0.992439 0.228657 -0.081174
C69   C     C_3   0.243170 0.596638 0.879211 -0.108286
C70   C     C_3   0.650211 0.889925 0.625605 -0.077204
C71   C     C_3   0.985861 0.550404 0.605714 -0.105979
C72   C     C_3   0.638131 0.730468 0.842102 -0.103804
C73   C     C_R   0.551844 0.968544 0.155132 -0.016195
C74   C     C_R   0.662822 0.855014 0.119353 -0.085581
Cr1   Cr    Cr6+3 0.601740 0.606840 0.505840 0.973502
Cr2   Cr    Cr6+3 0.291500 0.601560 0.495070 0.978221
Cr3   Cr    Cr6+3 0.606780 0.291630 0.499130 1.063862
Cr4   Cr    Cr6+3 0.062440 0.063060 0.008240 1.033537
Cr5   Cr    Cr6+3 0.062950 0.375000 0.998920 1.002520
Cr6   Cr    Cr6+3 0.374550 0.061770 0.992470 1.005271
H1    H     H_    0.483558 0.118401 0.326635 0.131065
H2    H     H_    0.644756 0.791639 0.082896 0.132449
H3    H     H_    0.117292 0.040450 0.207097 0.144033
H4    H     H_    0.636894 0.591203 0.167791 0.162852
H5    H     H_    0.472240 0.585622 0.167089 0.188264
H6    H     H_    0.492114 0.546438 0.293976 0.154207
H7    H     H_    0.649136 0.565355 0.295872 0.154102
H8    H     H_    0.200480 0.569874 0.688016 0.166809
H9    H     H_    0.401767 0.038061 0.788829 0.110025
H10   H     H_    0.587484 0.996469 0.795093 0.154823
H11   H     H_    0.886542 0.788403 0.436820 0.114617
H12   H     H_    0.693442 0.797197 0.368898 0.121498
H13   H     H_    0.406516 0.066196 0.661005 0.083845
H14   H     H_    0.687785 0.233260 0.704344 0.182961
H15   H     H_    0.722556 0.219134 0.835374 0.136921
H16   H     H_    0.088206 0.308508 0.798076 0.088730
H17   H     H_    0.988240 0.504450 0.807267 0.219397
H18   H     H_    0.055240 0.329281 0.673031 0.077208
H19   H     H_    0.549408 0.670677 0.702665 0.160092
H20   H     H_    0.961637 0.031377 0.795841 0.154176
H21   H     H_    0.887342 0.735460 0.108278 0.113107
H22   H     H_    0.051683 0.839489 0.804489 0.192324
H23   H     H_    0.744658 0.680731 0.251641 0.122516
H24   H     H_    0.072478 0.816767 0.678427 0.169390
H25   H     H_    0.985514 0.010706 0.668747 0.151745
H26   H     H_    0.921081 0.848028 0.214213 0.161039
H27   H     H_    0.702992 0.015806 0.282825 0.164382
H28   H     H_    0.118855 0.663808 0.390504 0.208264
H29   H     H_    0.447941 0.996996 0.159232 0.142086
H30   H     H_    0.180097 0.518975 0.169440 0.125392
H31   H     H_    0.332712 0.599276 0.855269 0.146596
H32   H     H_    0.281745 0.517313 0.922192 0.142780
H33   H     H_    0.172681 0.697277 0.905603 0.160529
H34   H     H_    0.980502 0.539791 0.208437 0.126437
H35   H     H_    0.577394 0.918043 0.579846 0.115248
H36   H     H_    0.644863 0.813342 0.661134 0.140649
H37   H     H_    0.757467 0.839631 0.603446 0.138884
H38   H     H_    0.079442 0.449458 0.590003 0.107604
H39   H     H_    0.011864 0.632364 0.597314 0.127850
H40   H     H_    0.898474 0.575257 0.569374 0.150912
H41   H     H_    0.592370 0.833089 0.868712 0.135198
H42   H     H_    0.675906 0.733465 0.787563 0.125489
H43   H     H_    0.730337 0.656696 0.874129 0.167261
H44   H     H_    0.049831 0.331144 0.361349 0.124596
H45   H     H_    0.132850 0.283568 0.234510 0.117795
H46   H     H_    0.886357 0.091770 0.185059 0.170914
H47   H     H_    0.643407 0.245164 0.290631 0.171196
H48   H     H_    0.146582 0.009992 0.337137 0.181668
O1    O     O_R   0.748670 0.497520 0.427970 -0.535471
O2    O     O_R   0.417470 0.174910 0.067830 -0.483539
O3    O     O_R   0.375160 0.946380 0.070880 -0.540691
O4    O     O_R   0.476470 0.723930 0.429450 -0.510134
O5    O     O_R   0.160500 0.919670 0.926690 -0.539915
O6    O     O_R   0.933140 0.190380 0.936050 -0.487307
O7    O     O_R   0.909010 0.403210 0.925030 -0.522146
O8    O     O_R   0.179590 0.361290 0.918480 -0.488115
O9    O     O_R   0.391360 0.170840 0.907510 -0.525889
O10   O     O_R   0.350950 0.942600 0.922260 -0.496989
O11   O     O_3   0.166650 0.166610 0.999880 -0.294939
O12   O     O_R   0.300170 0.471020 0.567120 -0.536514
O13   O     O_R   0.264730 0.744140 0.416740 -0.518981
O14   O     O_R   0.309440 0.472410 0.418220 -0.537427
O15   O     O_R   0.501630 0.260530 0.414310 -0.512466
O16   O     O_R   0.727920 0.305730 0.428950 -0.454339
O17   O     O_R   0.738670 0.496020 0.588600 -0.528236
O18   O     O_R   0.467190 0.722540 0.578350 -0.526419
O19   O     O_R   0.254720 0.742640 0.577370 -0.523338
O20   O     O_3   0.165820 0.575341 0.826946 -0.592937
O21   O     O_3   0.623417 0.009069 0.663803 -0.549995
O22   O     O_3   0.944522 0.555983 0.677536 -0.565838
O23   O     O_R   0.491630 0.259030 0.574940 -0.472263
O24   O     O_3   0.542692 0.684380 0.842286 -0.567947
O25   O     O_R   0.718640 0.304340 0.577850 -0.499890
O26   O     O_3   0.500010 0.500010 0.500020 -0.260601
O27   O     O_R   0.186620 0.923750 0.087000 -0.522937
O28   O     O_R   0.957350 0.194160 0.084660 -0.467540
O29   O     O_R   0.935120 0.407280 0.085350 -0.514459
O30   O     O_R   0.203800 0.365060 0.067090 -0.536157

loop_
_geom_bond_atom_site_label_1
_geom_bond_atom_site_label_2
_ccdc_geom_bond_type
C42   C47   S    
C64   C66   A    
C53   C54   A    
C62   O6    A    
C14   C19   A    
Cr5   O29   S    
C37   O21   S    
C16   C19   S    
C12   C68   A    
C72   H42   S    
C17   C18   S    
C18   H47   S    
C41   C42   A    
C6    H23   S    
C74   H2    S    
C27   H7    S    
C2    C23   A    
C51   C57   S    
C5    C6    A    
Cr3   O15   S    
C43   C44   A    
Cr5   O7    S    
C55   H20   S    
C72   O24   S    
C24   C25   A    
C48   C52   S    
Cr4   O5    S    
C32   C38   A    
C61   O3    A    
C9    C34   A    
C8    C56   A    
C3    C9    A    
C67   H11   S    
Cr2   O12   S    
Cr1   O26   S    
C36   C37   S    
C55   C57   S    
C69   O20   S    
C34   H1    S    
C36   H10   S    
C17   H46   S    
C69   H31   S    
C34   C45   A    
C49   C54   A    
Cr1   O1    S    
C25   H3    S    
C22   C27   S    
C27   H6    S    
Cr6   O10   S    
Cr3   O26   S    
C20   C61   S    
C6    C7    A    
C28   C58   S    
C70   H35   S    
C40   O12   A    
C21   C22   A    
C41   C46   S    
Cr1   O17   S    
C24   H48   S    
C38   C40   S    
C72   H41   S    
C2    H30   S    
C24   C29   A    
C71   H38   S    
C53   C58   A    
C39   C41   A    
C16   O1    A    
Cr5   O8    S    
Cr6   O11   S    
C51   C58   A    
Cr3   O16   S    
C62   O7    A    
C13   C18   S    
Cr6   O2    S    
Br1   C17   S    
C57   H24   S    
C11   C17   S    
Br2   C18   S    
C32   C37   S    
C60   O2    A    
C40   O23   A    
C1    O13   A    
C55   H22   S    
C54   O24   S    
C4    C9    S    
C4    O15   A    
C15   H45   S    
C28   O19   A    
C21   C26   S    
C36   H9    S    
C57   H25   S    
C49   C50   A    
C69   H32   S    
C63   O9    A    
C10   C15   A    
C65   O5    A    
C73   C74   A    
Cr6   O9    S    
C68   H27   S    
Cr2   O14   S    
Cr3   O23   S    
Cr4   O28   S    
C39   C44   A    
C70   O21   S    
C64   C74   A    
C26   H5    S    
C31   C32   A    
C69   H33   S    
C5    H12   S    
C49   C65   S    
C30   C35   A    
C1    C29   S    
C65   O10   A    
Cr1   O18   S    
C37   H13   S    
C63   O8    A    
C46   C47   S    
C44   H15   S    
C71   H40   S    
C71   H39   S    
C20   C25   A    
C11   C13   A    
C71   O22   S    
C26   H4    S    
C60   O30   A    
Cr1   O4    S    
C61   O27   A    
C4    O14   A    
C52   O25   A    
C50   C51   A    
C7    C8    A    
C42   C48   A    
C46   H17   S    
C23   C45   A    
C26   C27   S    
C47   O22   S    
C33   C35   A    
C56   H28   S    
C7    H34   S    
C64   H21   S    
C2    C3    A    
C16   O16   A    
C5    C67   A    
C56   C67   A    
C28   O18   A    
C12   C45   S    
C46   H16   S    
C53   H19   S    
C73   H29   S    
C31   C36   S    
Cr4   O6    S    
C1    O4    A    
C12   C73   A    
Cr6   O3    S    
C59   O29   A    
C33   C38   A    
C22   C29   A    
C3    C8    S    
C35   O20   S    
Cr2   O13   S    
C30   C31   A    
C47   H18   S    
C10   C59   S    
Cr2   O26   S    
Cr4   O27   S    
C14   C15   A    
C43   C48   A    
C70   H37   S    
Cr5   O11   S    
C23   C60   S    
C50   C55   S    
Cr3   O25   S    
C72   H43   S    
C33   H8    S    
C13   C19   A    
C10   C11   A    
C66   C68   A    
Cr4   O11   S    
C70   H36   S    
Cr5   O30   S    
C20   C21   A    
C52   O17   A    
C66   H26   S    
C39   C62   S    
C59   O28   A    
C43   H14   S    
C14   H44   S    
Cr2   O19   S    
C30   C63   S    
