data_mof_unit_17342.cif
_audit_creation_date              2012-12-11T15:34:16-0500
_audit_creation_method            fapswitch 2.2
_symmetry_space_group_name_H-M    P1
_symmetry_Int_Tables_number       1
_space_group_crystal_system       triclinic
_cell_length_a                    15.061574
_cell_length_b                    15.053783
_cell_length_c                    34.921859
_cell_angle_alpha                 90.53432
_cell_angle_beta                  89.872328
_cell_angle_gamma                 60.053767
_cell_volume                      6860.35278785

loop_
_atom_site_label
_atom_site_type_symbol
_atom_type_description
_atom_site_fract_x
_atom_site_fract_y
_atom_site_fract_z
_atom_type_partial_charge
C1    C     C_R   0.299668 0.609656 0.555368 0.573017
C2    C     C_R   0.645941 0.651219 0.671837 0.029467
C3    C     C_R   0.236750 0.655280 0.270385 -0.159227
C4    C     C_R   0.158778 0.658977 0.293410 -0.032753
C5    C     C_R   0.072116 0.661753 0.276663 0.072026
C6    C     C_R   0.063194 0.666131 0.236161 0.245593
C7    C     C_R   0.144017 0.660061 0.213517 0.038460
C8    C     C_R   0.195506 0.566455 0.354911 -0.085953
C9    C     C_R   0.229092 0.555005 0.392615 -0.120361
C10   C     C_R   0.212598 0.723819 0.391095 -0.120578
C11   C     C_R   0.179335 0.734966 0.353423 -0.093652
C12   C     C_R   0.173874 0.655051 0.334895 0.071181
C13   C     C_R   0.560512 0.723091 0.651239 -0.107137
C14   C     C_R   0.241935 0.631933 0.410455 0.022627
C15   C     C_R   0.735918 0.025882 0.943449 0.548452
C16   C     C_R   0.745857 0.722619 0.945132 0.558001
C17   C     C_R   0.038585 0.733801 0.948346 0.538456
C18   C     C_R   0.722752 0.038958 0.052785 0.544290
C19   C     C_R   0.732637 0.733952 0.054321 0.576179
C20   C     C_R   0.029008 0.743819 0.057579 0.536995
C21   C     C_R   0.552040 0.707225 0.612238 -0.118781
C22   C     C_R   0.651708 0.666144 0.791525 0.326086
C23   C     C_R   0.648570 0.657645 0.713874 0.340219
C24   C     C_R   0.754765 0.598198 0.850277 -0.151978
C25   C     C_R   0.778651 0.611267 0.887591 -0.141397
C26   C     C_R   0.615956 0.768658 0.893451 -0.060319
C27   C     C_R   0.589534 0.754692 0.856403 0.244727
C28   C     C_R   0.662714 0.671816 0.833458 0.020845
C29   C     C_R   0.610291 0.588028 0.555525 0.543748
C30   C     C_R   0.711529 0.698883 0.908911 -0.023499
C31   C     C_R   0.722467 0.075843 0.906153 -0.009871
C32   C     C_R   0.633258 0.104363 0.885042 -0.133301
C33   C     C_R   0.628893 0.129714 0.846679 -0.166283
C34   C     C_R   0.713031 0.128060 0.828794 0.060794
C35   C     C_R   0.800277 0.107056 0.850164 0.252751
C36   C     C_R   0.804285 0.081100 0.888991 -0.120109
C37   C     C_R   0.717765 0.221990 0.771176 0.008529
C38   C     C_R   0.706189 0.239482 0.731782 0.252169
C39   C     C_R   0.691920 0.170673 0.707796 0.014077
C40   C     C_R   0.590163 0.300597 0.553560 0.542472
C41   C     C_R   0.688568 0.087584 0.724043 -0.127722
C42   C     C_R   0.697394 0.073049 0.763378 -0.120187
C43   C     C_R   0.711059 0.140612 0.787118 0.014731
C44   C     C_R   0.582577 0.200767 0.650893 -0.122085
C45   C     C_R   0.558513 0.229921 0.612903 -0.114686
C46   C     C_R   0.721692 0.223367 0.604728 -0.121858
C47   C     C_R   0.745938 0.193511 0.642709 -0.109196
C48   C     C_R   0.674444 0.186645 0.666383 0.010927
C49   C     C_R   0.625983 0.245764 0.589959 0.017760
C50   C     C_R   0.093674 0.696253 0.911471 0.020683
C51   C     C_R   0.299710 0.610503 0.446263 0.552989
C52   C     C_R   0.120405 0.758978 0.890597 -0.116661
C53   C     C_R   0.145850 0.739228 0.851900 -0.113166
C54   C     C_R   0.146567 0.655679 0.833556 0.024900
C55   C     C_R   0.129975 0.587062 0.855070 -0.112705
C56   C     C_R   0.103295 0.607394 0.893827 -0.124173
C57   C     C_R   0.223857 0.558072 0.772682 -0.124518
C58   C     C_R   0.230274 0.554639 0.732757 -0.133107
C59   C     C_R   0.163618 0.640558 0.711107 0.022035
C60   C     C_R   0.085913 0.729363 0.730095 0.258574
C61   C     C_R   0.082734 0.732747 0.770019 -0.037931
C62   C     C_R   0.608037 0.589825 0.445340 0.541670
C63   C     C_R   0.151985 0.648206 0.791489 -0.023814
C64   C     C_R   0.196072 0.718017 0.654128 -0.119272
C65   C     C_R   0.219402 0.717379 0.615351 0.029046
C66   C     C_R   0.215360 0.557761 0.606796 0.029844
C67   C     C_R   0.191016 0.561430 0.645819 -0.135206
C68   C     C_R   0.183662 0.639784 0.669646 -0.043957
C69   C     C_R   0.238566 0.631686 0.591685 -0.020456
C70   C     C_R   0.691016 0.720184 0.090642 0.000163
C71   C     C_R   0.637727 0.807127 0.114474 -0.141624
C72   C     C_R   0.617899 0.797114 0.152542 -0.102598
C73   C     C_R   0.587426 0.304177 0.443379 0.544569
C74   C     C_R   0.650168 0.700150 0.167533 0.047236
C75   C     C_R   0.697000 0.613358 0.143552 -0.063662
C76   C     C_R   0.716351 0.622150 0.104787 0.047241
C77   C     C_R   0.586405 0.647636 0.225521 0.065793
C78   C     C_R   0.587850 0.636968 0.265460 -0.102943
C79   C     C_R   0.644340 0.667024 0.288634 -0.000020
C80   C     C_R   0.700835 0.707367 0.272176 -0.095624
C81   C     C_R   0.699950 0.718901 0.232703 -0.122908
C82   C     C_R   0.643570 0.689295 0.209083 0.002762
C83   C     C_R   0.548335 0.718357 0.349859 -0.125698
C84   C     C_R   0.629358 0.619756 0.593291 0.014957
C85   C     C_R   0.540349 0.701812 0.388521 -0.125540
C86   C     C_R   0.719149 0.568207 0.388623 -0.116499
C87   C     C_R   0.727429 0.586177 0.349972 -0.091994
C88   C     C_R   0.640990 0.658793 0.330253 0.024533
C89   C     C_R   0.624544 0.623761 0.407909 0.016898
C90   C     C_R   0.697066 0.103866 0.087394 0.017010
C91   C     C_R   0.769202 0.126276 0.103421 -0.116431
C92   C     C_R   0.753250 0.169554 0.140011 -0.108270
C93   C     C_R   0.665086 0.190936 0.160997 0.070788
C94   C     C_R   0.589397 0.176068 0.143825 -0.079215
C95   C     C_R   0.718636 0.553061 0.613314 -0.122356
C96   C     C_R   0.604983 0.133368 0.107207 -0.134759
C97   C     C_R   0.569911 0.291203 0.219811 0.279452
C98   C     C_R   0.564576 0.300261 0.259985 -0.071466
C99   C     C_R   0.647452 0.231741 0.282333 0.030560
C100  C     C_R   0.736497 0.154576 0.264781 -0.086888
C101  C     C_R   0.742687 0.145144 0.225143 -0.155441
C102  C     C_R   0.659627 0.212214 0.202414 0.065865
C103  C     C_R   0.708409 0.260615 0.345848 0.061568
C104  C     C_R   0.697506 0.268269 0.385769 -0.124208
C105  C     C_R   0.553542 0.238836 0.382495 -0.128559
C106  C     C_R   0.726477 0.568261 0.652240 -0.111542
C107  C     C_R   0.565756 0.227296 0.342913 -0.148877
C108  C     C_R   0.640848 0.240549 0.324252 0.005153
C109  C     C_R   0.617238 0.262666 0.404145 -0.003986
C110  C     C_R   0.084995 0.706255 0.093920 0.003664
C111  C     C_R   0.079739 0.626526 0.112611 -0.158751
C112  C     C_R   0.105417 0.606942 0.150969 -0.073509
C113  C     C_R   0.135293 0.667616 0.171551 0.016605
C114  C     C_R   0.151203 0.739839 0.152258 -0.058435
C115  C     C_R   0.129565 0.757569 0.113319 0.240455
C116  C     C_R   0.230086 0.654492 0.230880 -0.167382
Cr1   Cr    Cr6+3 0.421670 0.426920 0.499620 1.060654
Cr2   Cr    Cr6+3 0.427030 0.651190 0.500980 1.056299
Cr3   Cr    Cr6+3 0.651280 0.421870 0.499380 1.031278
Cr4   Cr    Cr6+3 0.910810 0.908010 0.001130 1.034664
Cr5   Cr    Cr6+3 0.682800 0.909890 0.998370 1.032215
Cr6   Cr    Cr6+3 0.908370 0.682300 0.002180 1.048838
H1    H     H_    0.779952 0.485295 0.599545 0.143592
H2    H     H_    0.873447 0.059471 0.905062 0.116818
H3    H     H_    0.818028 0.180889 0.654202 0.151474
H4    H     H_    0.727048 0.275027 0.789633 0.168760
H5    H     H_    0.561053 0.146925 0.830424 0.126320
H6    H     H_    0.677445 0.034705 0.706199 0.138334
H7    H     H_    0.692680 0.009448 0.775433 0.140311
H8    H     H_    0.527044 0.194697 0.668797 0.122916
H9    H     H_    0.484326 0.246390 0.602338 0.167405
H10   H     H_    0.482420 0.760066 0.597548 0.159387
H11   H     H_    0.775512 0.234207 0.587606 0.137993
H12   H     H_    0.114457 0.827627 0.903343 0.136884
H13   H     H_    0.083397 0.557498 0.909176 0.128721
H14   H     H_    0.176076 0.503831 0.657702 0.151352
H15   H     H_    0.290016 0.486141 0.718768 0.127607
H16   H     H_    0.277219 0.491879 0.788916 0.124760
H17   H     H_    0.159731 0.792265 0.835743 0.128140
H18   H     H_    0.024565 0.801531 0.784425 0.152941
H19   H     H_    0.186825 0.780587 0.672520 0.183790
H20   H     H_    0.852691 0.555740 0.898811 0.147524
H21   H     H_    0.130351 0.522097 0.841301 0.117011
H22   H     H_    0.617448 0.882812 0.104451 0.136445
H23   H     H_    0.799451 0.539746 0.334958 0.160947
H24   H     H_    0.543697 0.606532 0.278807 0.147652
H25   H     H_    0.581424 0.864718 0.170845 0.117866
H26   H     H_    0.744169 0.731325 0.289935 0.148334
H27   H     H_    0.794097 0.512752 0.667307 0.148388
H28   H     H_    0.743972 0.750633 0.220348 0.131105
H29   H     H_    0.481225 0.774969 0.334828 0.114096
H30   H     H_    0.466301 0.745641 0.402465 0.134687
H31   H     H_    0.719744 0.538795 0.155432 0.167097
H32   H     H_    0.785135 0.507464 0.402815 0.148661
H33   H     H_    0.840436 0.105220 0.088640 0.146420
H34   H     H_    0.547818 0.117318 0.095545 0.133977
H35   H     H_    0.514446 0.210865 0.326570 0.117359
H36   H     H_    0.496213 0.360455 0.273881 0.102928
H37   H     H_    0.497601 0.788120 0.665675 0.157762
H38   H     H_    0.812254 0.181079 0.152803 0.132986
H39   H     H_    0.800653 0.100961 0.281863 0.132906
H40   H     H_    0.811305 0.082862 0.212207 0.120318
H41   H     H_    0.746271 0.288109 0.402178 0.165904
H42   H     H_    0.521562 0.190492 0.159726 0.144804
H43   H     H_    0.490913 0.234419 0.395852 0.138583
H44   H     H_    0.049216 0.583355 0.098404 0.150422
H45   H     H_    0.162718 0.803718 0.338060 0.121627
H46   H     H_    0.811758 0.533179 0.833838 0.151451
H47   H     H_    0.304151 0.651292 0.283182 0.137753
H48   H     H_    0.291922 0.650600 0.213713 0.163106
H49   H     H_    0.096487 0.548120 0.165138 0.170244
H50   H     H_    0.192049 0.504033 0.340658 0.122594
H51   H     H_    0.251006 0.483451 0.406874 0.132227
H52   H     H_    0.177759 0.784856 0.167685 0.143601
H53   H     H_    0.221324 0.784529 0.404154 0.137623
H54   H     H_    0.561820 0.835334 0.909942 0.155009
H55   H     H_    0.568808 0.101559 0.897509 0.151513
N1    N     N_R   0.708974 0.576106 0.772383 -0.216562
N2    N     N_R   0.707233 0.571899 0.734376 -0.194251
N3    N     N_R   0.590886 0.747807 0.732891 -0.227027
N4    N     N_R   0.593316 0.752091 0.770959 -0.201391
O1    O     O_R   0.502070 0.323090 0.541280 -0.504351
O2    O     O_R   0.520720 0.641670 0.461580 -0.504805
O3    O     O_R   0.674120 0.502090 0.457500 -0.513251
O4    O     O_R   0.640110 0.338380 0.459630 -0.502985
O5    O     O_3   0.499990 0.499990 0.499990 -0.256957
O6    O     O_R   0.017640 0.822070 0.960410 -0.520595
O7    O     O_R   0.822000 0.989470 0.960340 -0.502202
O8    O     O_R   0.666920 0.007430 0.955290 -0.513621
O9    O     O_R   0.694410 0.812480 0.959650 -0.503127
O10   O     O_R   0.831550 0.656950 0.958960 -0.501453
O11   O     O_R   0.998590 0.685540 0.963930 -0.504541
O12   O     O_R   0.338340 0.520690 0.539540 -0.466497
O13   O     O_R   0.008220 0.831200 0.045060 -0.492911
O14   O     O_R   0.813270 0.997930 0.038810 -0.495104
O15   O     O_R   0.657500 0.016560 0.039940 -0.520974
O16   O     O_R   0.685680 0.820940 0.038120 -0.504588
O17   O     O_R   0.822130 0.666070 0.043610 -0.477192
O18   O     O_R   0.989860 0.694000 0.042400 -0.508322
O19   O     O_3   0.833990 0.833400 0.000560 -0.249379
O20   O     O_R   0.324760 0.674070 0.543580 -0.474314
O21   O     O_R   0.522400 0.640310 0.540110 -0.500768
O22   O     O_R   0.675940 0.500630 0.542210 -0.515043
O23   O     O_R   0.641790 0.337020 0.538150 -0.502039
O24   O     O_R   0.500260 0.324550 0.456580 -0.515394
O25   O     O_R   0.336660 0.522040 0.461020 -0.496605
O26   O     O_R   0.322940 0.675540 0.458880 -0.514083
O27   O     O_3   0.705124 0.326260 0.718615 -0.686125
H56   H     H_    0.673867 0.343439 0.692948 0.332381
O28   O     O_3   0.882351 0.106281 0.832105 -0.693837
H57   H     H_    0.937442 0.089031 0.851034 0.322026
O29   O     O_3   0.012161 0.813964 0.711009 -0.694799
H58   H     H_    0.008062 0.794129 0.684251 0.334399
C117  C     C_2   0.220685 0.809199 0.601140 0.596703
O30   O     O_2   0.177018 0.849444 0.571389 -0.484704
O31   O     O_R   0.267494 0.852724 0.622848 -0.717458
H59   H     H_    0.262490 0.915675 0.610446 0.339662
C118  C     C_2   0.211591 0.478175 0.582583 0.594292
O32   O     O_2   0.240696 0.392619 0.595315 -0.535040
O33   O     O_R   0.171013 0.502238 0.545682 -0.675936
H60   H     H_    0.171929 0.441944 0.532118 0.334002
C119  C     C_2   0.761460 0.528361 0.080194 0.587072
O34   O     O_2   0.746066 0.534770 0.045693 -0.496617
O35   O     O_R   0.818708 0.431844 0.096772 -0.704238
H61   H     H_    0.844136 0.373831 0.077247 0.343616
C120  C     C_2   0.522396 0.617920 0.202336 0.558021
O36   O     O_2   0.503454 0.552971 0.214249 -0.523840
O37   O     O_R   0.481462 0.665397 0.167443 -0.690824
H62   H     H_    0.438567 0.638870 0.154773 0.347974
O38   O     O_3   0.489322 0.357982 0.197197 -0.678809
H63   H     H_    0.432452 0.407618 0.213924 0.336685
C121  C     C_2   0.784657 0.282880 0.327739 0.560612
O39   O     O_2   0.863199 0.263179 0.344753 -0.526698
O40   O     O_R   0.765403 0.329799 0.291973 -0.684310
H64   H     H_    0.822344 0.342355 0.283155 0.347561
O41   O     O_3   0.149808 0.827382 0.095890 -0.678291
H65   H     H_    0.166957 0.806548 0.068673 0.340410
C122  C     C_2   0.992914 0.658486 0.301141 0.535058
O42   O     O_2   0.959364 0.602043 0.292351 -0.530027
O43   O     O_R   0.957449 0.719045 0.334378 -0.695788
H66   H     H_    0.904017 0.709601 0.348593 0.337023
O44   O     O_3   0.975339 0.681424 0.217898 -0.700319
H67   H     H_    0.916523 0.715026 0.235846 0.335444
O45   O     O_3   0.492787 0.824074 0.843773 -0.684057
H68   H     H_    0.472162 0.789374 0.824463 0.342214

loop_
_geom_bond_atom_site_label_1
_geom_bond_atom_site_label_2
_ccdc_geom_bond_type
C55   C56   A    
C78   C79   A    
C101  C102  A    
C29   O22   A    
C83   C88   A    
C52   H12   S    
C41   C42   A    
C25   H20   S    
C22   N1    A    
C10   H53   S    
C1    O20   A    
C27   O45   S    
C104  H41   S    
C97   C98   A    
Cr2   O5    S    
C51   O25   A    
C118  O32   D    
Cr6   O10   S    
C39   C41   A    
C77   C78   A    
C44   C45   A    
C91   H33   S    
C99   C108  S    
C105  C107  A    
C46   C49   A    
C26   C27   A    
C93   C94   A    
C38   O27   S    
C64   C68   A    
C92   C93   A    
C101  H40   S    
C36   H2    S    
C35   O28   S    
C37   H4    S    
C22   N4    A    
Cr1   O24   S    
Cr1   O5    S    
C31   C36   A    
Cr5   O8    S    
C5    C6    A    
C95   C106  A    
C51   O26   A    
Cr1   O1    S    
C112  H49   S    
C64   H19   S    
C44   H8    S    
C40   C49   S    
C98   C99   A    
C62   C89   S    
C33   H5    S    
O45   H68   S    
C34   C35   A    
Cr5   O9    S    
C61   C63   A    
C2    C13   A    
C75   H31   S    
C110  C111  A    
C115  O41   S    
C73   O24   A    
C103  C104  A    
C62   O2    A    
C54   C55   A    
C20   O18   A    
C98   H36   S    
C100  H39   S    
C8    C9    A    
C50   C52   A    
C107  C108  A    
C84   C95   A    
C47   H3    S    
C70   C71   A    
C45   C49   A    
Cr6   O18   S    
C4    C12   S    
C50   C56   A    
C42   C43   A    
Cr5   O15   S    
C83   H29   S    
C97   C102  A    
C94   C96   A    
C66   C67   A    
C15   O8    A    
C77   C82   A    
C8    H50   S    
C77   C120  S    
C106  H27   S    
C22   C28   S    
O35   H61   S    
C11   H45   S    
C112  C113  A    
C41   H6    S    
Cr2   O21   S    
C66   C69   A    
C74   C82   S    
Cr4   O7    S    
C20   O13   A    
O33   H60   S    
C107  H35   S    
C57   C63   A    
C114  H52   S    
C40   O1    A    
C17   O11   A    
C38   C39   A    
C122  O43   S    
C19   O16   A    
Cr4   O14   S    
C55   H21   S    
C74   C75   A    
C34   C43   S    
C18   O15   A    
C67   C68   A    
C18   C90   S    
C47   C48   A    
N1    N2    A    
Cr3   O22   S    
C24   C25   A    
C24   H46   S    
C29   C84   S    
C72   C74   A    
Cr1   O25   S    
C10   C14   A    
C114  C115  A    
C91   C92   A    
C9    C14   A    
C85   C89   A    
C117  O30   D    
O27   H56   S    
C81   C82   A    
C76   C119  S    
C58   C59   A    
C53   C54   A    
C62   O3    A    
C2    C106  A    
Cr4   O13   S    
C103  C121  S    
C60   C61   A    
C35   C36   A    
C7    C116  A    
C37   C43   A    
C80   H26   S    
C1    O12   A    
C75   C76   A    
Cr3   O4    S    
C21   H10   S    
C40   O23   A    
C37   C38   A    
C16   O10   A    
C59   C68   S    
O40   H64   S    
O41   H65   S    
C118  O33   S    
C14   C51   S    
C21   C84   A    
C26   H54   S    
C8    C12   A    
C121  O40   S    
C33   C34   A    
Cr5   O19   S    
C13   C21   A    
C111  H44   S    
O31   H59   S    
C15   C31   S    
C9    H51   S    
C60   O29   S    
Cr5   O16   S    
C23   N3    A    
C103  C108  A    
C79   C88   S    
C110  C115  A    
C20   C110  S    
C58   H15   S    
C83   C85   A    
C45   H9    S    
C120  O37   S    
Cr3   O3    S    
C70   C76   A    
C32   H55   S    
Cr2   O20   S    
C81   H28   S    
C3    C4    A    
Cr4   O6    S    
C94   H42   S    
C27   C28   A    
C56   H13   S    
C52   C53   A    
C86   C87   A    
C113  C114  A    
C95   H1    S    
C25   C30   A    
C105  C109  A    
C46   C47   A    
C119  O35   S    
C19   O17   A    
C29   O21   A    
C87   H23   S    
C111  C112  A    
O44   H67   S    
C18   O14   A    
C53   H17   S    
C23   N2    A    
C31   C32   A    
C3    H47   S    
Cr3   O23   S    
C24   C28   A    
C80   C81   A    
C39   C48   S    
C86   C89   A    
C93   C102  S    
C73   O4    A    
C11   C12   A    
C61   H18   S    
C90   C96   A    
C6    C7    A    
C17   C50   S    
C72   H25   S    
C15   O7    A    
C99   C100  A    
C92   H38   S    
C3    C116  A    
C64   C65   A    
C7    C113  S    
Cr2   O26   S    
C86   H32   S    
C85   H30   S    
C65   C117  S    
C66   C118  S    
C32   C33   A    
C46   H11   S    
O43   H66   S    
Cr6   O17   S    
C90   C91   A    
C96   H34   S    
Cr6   O11   S    
C17   O6    A    
C65   C69   A    
C4    C5    A    
C16   O9    A    
C122  O42   D    
C100  C101  A    
Cr4   O19   S    
C105  H43   S    
C57   H16   S    
C67   H14   S    
C42   H7    S    
C117  O31   S    
C73   C109  S    
O28   H57   S    
O38   H63   S    
C1    C69   S    
Cr3   O5    S    
Cr1   O12   S    
C10   C11   A    
C78   H24   S    
O37   H62   S    
C79   C80   A    
Cr2   O2    S    
C44   C48   A    
C59   C60   A    
C71   C72   A    
O29   H58   S    
C87   C88   A    
C120  O36   D    
C54   C63   S    
C2    C23   S    
C104  C109  A    
C6    O44   S    
C19   C70   S    
C5    C122  S    
Cr6   O19   S    
C57   C58   A    
C16   C30   S    
C119  O34   D    
C13   H37   S    
C97   O38   S    
N3    N4    A    
C116  H48   S    
C121  O39   D    
C71   H22   S    
C26   C30   A    
