data_mof_unit_62549.cif
_audit_creation_date              2013-03-05T16:15:42-0500
_audit_creation_method            fapswitch 2.2
_symmetry_space_group_name_H-M    P1
_symmetry_Int_Tables_number       1
_space_group_crystal_system       triclinic
_cell_length_a                    34.390293
_cell_length_b                    24.291073
_cell_length_c                    24.636643
_cell_angle_alpha                 89.931046
_cell_angle_beta                  89.866637
_cell_angle_gamma                 89.786703
_cell_volume                      20580.674766

loop_
_atom_site_label
_atom_site_type_symbol
_atom_site_description
_atom_site_fract_x
_atom_site_fract_y
_atom_site_fract_z
_atom_type_partial_charge
Zn1   Zn    Zn3+2 0.782760 0.500000 0.564970 1.043571
Zn2   Zn    Zn3+2 0.217240 0.500000 0.435030 1.047033
Zn3   Zn    Zn3+2 0.782760 0.500000 0.435030 1.050651
Zn4   Zn    Zn3+2 0.217240 0.500000 0.564970 1.047565
Zn5   Zn    Zn3+2 0.282760 0.000000 0.064970 1.045395
Zn6   Zn    Zn3+2 0.717240 0.000000 0.935030 1.045964
Zn7   Zn    Zn3+2 0.282760 0.000000 0.935030 1.045560
Zn8   Zn    Zn3+2 0.717240 0.000000 0.064970 1.054525
Zn9   Zn    Zn3+2 0.717260 0.564980 0.500000 1.037530
Zn10  Zn    Zn3+2 0.282740 0.435020 0.500000 1.038626
Zn11  Zn    Zn3+2 0.717260 0.435020 0.500000 1.049209
Zn12  Zn    Zn3+2 0.282740 0.564980 0.500000 1.038470
Zn13  Zn    Zn3+2 0.217260 0.064980 0.000000 1.039178
Zn14  Zn    Zn3+2 0.782740 0.935020 0.000000 1.037685
Zn15  Zn    Zn3+2 0.217260 0.935020 0.000000 1.039049
Zn16  Zn    Zn3+2 0.782740 0.064980 0.000000 1.040194
O1    O     O_3   0.750010 0.500000 0.500000 -0.526698
O2    O     O_3   0.249990 0.500000 0.500000 -0.523421
O3    O     O_3   0.250010 0.000000 0.000000 -0.523028
O4    O     O_3   0.749990 0.000000 0.000000 -0.524563
O5    O     O_R   0.772930 0.563990 0.390540 -0.624793
O6    O     O_R   0.227070 0.436010 0.609460 -0.624315
O7    O     O_R   0.772930 0.436010 0.609460 -0.624038
O8    O     O_R   0.227070 0.563990 0.390540 -0.624116
O9    O     O_R   0.227070 0.436010 0.390540 -0.624289
O10   O     O_R   0.772930 0.563990 0.609460 -0.629201
O11   O     O_R   0.227070 0.563990 0.609460 -0.624598
O12   O     O_R   0.772930 0.436010 0.390540 -0.627463
O13   O     O_R   0.272930 0.063990 0.890540 -0.624490
O14   O     O_R   0.727070 0.936010 0.109460 -0.626526
O15   O     O_R   0.272930 0.936010 0.109460 -0.624026
O16   O     O_R   0.727070 0.063990 0.890540 -0.626315
O17   O     O_R   0.727070 0.936010 0.890540 -0.624955
O18   O     O_R   0.272930 0.063990 0.109460 -0.627023
O19   O     O_R   0.727070 0.063990 0.109460 -0.619616
O20   O     O_R   0.272930 0.936010 0.890540 -0.627657
O21   O     O_R   0.727090 0.609470 0.563990 -0.637738
O22   O     O_R   0.272910 0.390530 0.436010 -0.639972
O23   O     O_R   0.727090 0.390530 0.436010 -0.619358
O24   O     O_R   0.272910 0.609470 0.563990 -0.639018
O25   O     O_R   0.272910 0.390530 0.563990 -0.638440
O26   O     O_R   0.727090 0.609470 0.436010 -0.640414
O27   O     O_R   0.272910 0.609470 0.436010 -0.637842
O28   O     O_R   0.727090 0.390530 0.563990 -0.638970
O29   O     O_R   0.227090 0.109470 0.063990 -0.637675
O30   O     O_R   0.772910 0.890530 0.936010 -0.643756
O31   O     O_R   0.227090 0.890530 0.936010 -0.636949
O32   O     O_R   0.772910 0.109470 0.063990 -0.636016
O33   O     O_R   0.772910 0.890530 0.063990 -0.638791
O34   O     O_R   0.227090 0.109470 0.936010 -0.639704
O35   O     O_R   0.772910 0.109470 0.936010 -0.639166
O36   O     O_R   0.227090 0.890530 0.063990 -0.639055
O37   O     O_R   0.662570 0.545500 0.500000 -0.609960
O38   O     O_R   0.337430 0.454500 0.500000 -0.618472
O39   O     O_R   0.662570 0.454500 0.500000 -0.604233
O40   O     O_R   0.337430 0.545500 0.500000 -0.617739
O41   O     O_R   0.162570 0.045500 0.000000 -0.614719
O42   O     O_R   0.837430 0.954500 0.000000 -0.617744
O43   O     O_R   0.162570 0.954500 0.000000 -0.613897
O44   O     O_R   0.837430 0.045500 0.000000 -0.614026
O45   O     O_R   0.837440 0.500000 0.454520 -0.608474
O46   O     O_R   0.162560 0.500000 0.545480 -0.614217
O47   O     O_R   0.837440 0.500000 0.545480 -0.615368
O48   O     O_R   0.162560 0.500000 0.454520 -0.614236
O49   O     O_R   0.337440 0.000000 0.954520 -0.615107
O50   O     O_R   0.662560 0.000000 0.045480 -0.604198
O51   O     O_R   0.337440 0.000000 0.045480 -0.614787
O52   O     O_R   0.662560 0.000000 0.954520 -0.611274
C1    C     C_R   0.749524 0.605126 0.394940 0.814046
C2    C     C_R   0.250283 0.394651 0.604920 0.823159
C3    C     C_R   0.749544 0.394936 0.605016 0.811109
C4    C     C_R   0.250263 0.605277 0.395110 0.820243
C5    C     C_R   0.250456 0.394758 0.394962 0.819041
C6    C     C_R   0.750165 0.605962 0.604527 0.827822
C7    C     C_R   0.250438 0.605095 0.605128 0.817985
C8    C     C_R   0.749758 0.395292 0.394651 0.830882
C9    C     C_R   0.249591 0.105215 0.894948 0.818879
C10   C     C_R   0.750248 0.894579 0.104906 0.822852
C11   C     C_R   0.249586 0.894885 0.105037 0.815733
C12   C     C_R   0.750215 0.105378 0.895144 0.819653
C13   C     C_R   0.750228 0.894414 0.895046 0.825671
C14   C     C_R   0.249899 0.105643 0.104730 0.824554
C15   C     C_R   0.750226 0.104724 0.105340 0.826982
C16   C     C_R   0.249949 0.894452 0.895194 0.824406
C17   C     C_R   0.644264 0.500073 0.499982 0.926286
C18   C     C_R   0.355614 0.499905 0.499992 0.947762
C19   C     C_R   0.144338 0.000093 0.999990 0.939474
C20   C     C_R   0.855637 0.999901 0.999995 0.945966
C21   C     C_R   0.855611 0.500025 0.499935 0.955089
C22   C     C_R   0.144380 0.499994 0.500061 0.952821
C23   C     C_R   0.355512 0.000076 0.999941 0.959942
C24   C     C_R   0.644415 0.000084 0.000127 0.948173
C25   C     C_R   0.081735 0.548009 0.513922 0.355208
C26   C     C_R   0.918157 0.452402 0.484214 0.354333
C27   C     C_R   0.082071 0.451827 0.486557 0.354855
C28   C     C_R   0.917887 0.547619 0.515112 0.354367
C29   C     C_R   0.581935 0.047286 0.016327 0.345541
C30   C     C_R   0.417688 0.950002 0.996321 0.346938
C31   C     C_R   0.582318 0.951657 0.986360 0.350326
C32   C     C_R   0.417506 0.050035 0.003350 0.346174
C33   C     C_R   0.101972 0.499943 0.500201 -0.221679
C34   C     C_R   0.898015 0.500003 0.499767 -0.225320
C35   C     C_R   0.602027 0.999762 0.000624 -0.223204
C36   C     C_R   0.397778 0.000046 0.999819 -0.217817
C37   C     C_R   0.041344 0.453855 0.479192 -0.088062
C38   C     C_R   0.958690 0.545646 0.521735 -0.088878
C39   C     C_R   0.040977 0.545942 0.521125 -0.089192
C40   C     C_R   0.959031 0.454257 0.477912 -0.092730
C41   C     C_R   0.541277 0.949628 0.991015 -0.093576
C42   C     C_R   0.458448 0.050036 0.008986 -0.092026
C43   C     C_R   0.541020 0.049482 0.010898 -0.096318
C44   C     C_R   0.458655 0.949846 0.991104 -0.092018
C45   C     C_R   0.020551 0.499902 0.500087 -0.092891
C46   C     C_R   0.979431 0.499920 0.499932 -0.091561
C47   C     C_R   0.520507 0.999665 0.000621 -0.089750
C48   C     C_R   0.479213 0.999853 0.000231 -0.091617
C49   C     C_R   0.020925 0.412781 0.450314 0.371935
C50   C     C_R   0.979336 0.586655 0.550512 0.374082
C51   C     C_R   0.020157 0.587017 0.549884 0.373854
C52   C     C_R   0.980104 0.413214 0.449313 0.371814
C53   C     C_R   0.520159 0.900064 0.984535 0.373796
C54   C     C_R   0.479407 0.098462 0.021325 0.375656
C55   C     C_R   0.519854 0.099218 0.016915 0.372843
C56   C     C_R   0.479807 0.901330 0.978978 0.375803
C57   C     C_R   0.783489 0.280089 0.697477 -0.012263
C58   C     C_R   0.213065 0.718401 0.302733 -0.013328
C59   C     C_R   0.783698 0.719301 0.302063 -0.012548
C60   C     C_R   0.213157 0.282144 0.697847 -0.013212
C61   C     C_R   0.216154 0.716595 0.701581 -0.013695
C62   C     C_R   0.760190 0.327742 0.257340 -0.018492
C63   C     C_R   0.215864 0.283853 0.298623 -0.014720
C64   C     C_R   0.789381 0.710412 0.705170 -0.020190
C65   C     C_R   0.284612 0.781600 0.198680 -0.014302
C66   C     C_R   0.712249 0.218261 0.802925 -0.016394
C67   C     C_R   0.284945 0.217720 0.800807 -0.014662
C68   C     C_R   0.712332 0.782218 0.197504 -0.016262
C69   C     C_R   0.739536 0.172491 0.242524 -0.018801
C70   C     C_R   0.289079 0.784435 0.800172 -0.018099
C71   C     C_R   0.714421 0.790352 0.791687 -0.020095
C72   C     C_R   0.288793 0.215416 0.199486 -0.018299
C73   C     C_R   0.784459 0.324817 0.661147 -0.080719
C74   C     C_R   0.213399 0.673226 0.338548 -0.085346
C75   C     C_R   0.784581 0.674546 0.338354 -0.081905
C76   C     C_R   0.213458 0.327231 0.661937 -0.085321
C77   C     C_R   0.215355 0.671824 0.665461 -0.095067
C78   C     C_R   0.754660 0.368268 0.297180 -0.073854
C79   C     C_R   0.215208 0.328585 0.334797 -0.095595
C80   C     C_R   0.788005 0.665954 0.668681 -0.095645
C81   C     C_R   0.285131 0.826714 0.162895 -0.089908
C82   C     C_R   0.712913 0.173036 0.838696 -0.081961
C83   C     C_R   0.285330 0.172629 0.836620 -0.090088
C84   C     C_R   0.712974 0.827415 0.161722 -0.083401
C85   C     C_R   0.745093 0.131892 0.202763 -0.076286
C86   C     C_R   0.287908 0.829560 0.835959 -0.091381
C87   C     C_R   0.714741 0.835102 0.827709 -0.096731
C88   C     C_R   0.287726 0.170422 0.163562 -0.090920
C89   C     C_R   0.749306 0.350203 0.645382 -0.144976
C90   C     C_R   0.249335 0.650923 0.355646 -0.148602
C91   C     C_R   0.749350 0.649942 0.354673 -0.145563
C92   C     C_R   0.249386 0.348963 0.644318 -0.149893
C93   C     C_R   0.250666 0.649755 0.645692 -0.149045
C94   C     C_R   0.751478 0.352661 0.352311 -0.136539
C95   C     C_R   0.250583 0.349806 0.354671 -0.150134
C96   C     C_R   0.752433 0.652914 0.642779 -0.155463
C97   C     C_R   0.249664 0.849982 0.145329 -0.149037
C98   C     C_R   0.749004 0.151334 0.855921 -0.148816
C99   C     C_R   0.249779 0.150284 0.854832 -0.150713
C100  C     C_R   0.749060 0.848620 0.144092 -0.149251
C101  C     C_R   0.748436 0.147416 0.147623 -0.143043
C102  C     C_R   0.251677 0.848138 0.856323 -0.152359
C103  C     C_R   0.749538 0.848717 0.855172 -0.157719
C104  C     C_R   0.251529 0.152060 0.143450 -0.152547
C105  C     C_R   0.713741 0.325429 0.660536 -0.114864
C106  C     C_R   0.283922 0.679398 0.342455 -0.128667
C107  C     C_R   0.713859 0.675491 0.340054 -0.115451
C108  C     C_R   0.283957 0.319951 0.657025 -0.128425
C109  C     C_R   0.285782 0.677418 0.657739 -0.115794
C110  C     C_R   0.758213 0.297279 0.366672 -0.112238
C111  C     C_R   0.285549 0.321266 0.342705 -0.116463
C112  C     C_R   0.721065 0.690828 0.647632 -0.132811
C113  C     C_R   0.214501 0.823237 0.159099 -0.117001
C114  C     C_R   0.783314 0.180674 0.843039 -0.132019
C115  C     C_R   0.214749 0.178006 0.841754 -0.117477
C116  C     C_R   0.783364 0.818845 0.156604 -0.132548
C117  C     C_R   0.741789 0.202797 0.133163 -0.112596
C118  C     C_R   0.218299 0.815567 0.846546 -0.134225
C119  C     C_R   0.782007 0.812761 0.849723 -0.117511
C120  C     C_R   0.218078 0.184782 0.153516 -0.133821
C121  C     C_R   0.713880 0.279878 0.695320 0.324151
C122  C     C_R   0.282349 0.724870 0.307660 0.323331
C123  C     C_R   0.714108 0.721000 0.305229 0.324190
C124  C     C_R   0.282399 0.274525 0.691857 0.323321
C125  C     C_R   0.285337 0.722747 0.692707 0.321640
C126  C     C_R   0.763445 0.257744 0.325732 0.332276
C127  C     C_R   0.284961 0.276131 0.307477 0.322147
C128  C     C_R   0.724126 0.735348 0.683222 0.319461
C129  C     C_R   0.215147 0.777937 0.194233 0.325314
C130  C     C_R   0.781453 0.225766 0.807721 0.324666
C131  C     C_R   0.215551 0.223247 0.806568 0.325376
C132  C     C_R   0.781515 0.773767 0.191915 0.324817
C133  C     C_R   0.736496 0.242395 0.174032 0.332356
C134  C     C_R   0.220805 0.770534 0.811365 0.321595
C135  C     C_R   0.780315 0.768402 0.813645 0.320574
C136  C     C_R   0.220481 0.229722 0.188795 0.321919
C137  C     C_R   0.748138 0.266324 0.723961 -0.007264
C138  C     C_R   0.248175 0.735224 0.277581 -0.010009
C139  C     C_R   0.748322 0.733780 0.276084 -0.006939
C140  C     C_R   0.248337 0.264803 0.722480 -0.009583
C141  C     C_R   0.251975 0.733349 0.724564 -0.004893
C142  C     C_R   0.755154 0.271636 0.271010 -0.009865
C143  C     C_R   0.251644 0.266429 0.275544 -0.005578
C144  C     C_R   0.754336 0.736023 0.721761 -0.005649
C145  C     C_R   0.249244 0.766089 0.223981 -0.008997
C146  C     C_R   0.747208 0.235464 0.777603 -0.012080
C147  C     C_R   0.249544 0.234100 0.776145 -0.009312
C148  C     C_R   0.747328 0.764556 0.222421 -0.011128
C149  C     C_R   0.744675 0.228562 0.228797 -0.011314
C150  C     C_R   0.253970 0.764082 0.778105 -0.011415
C151  C     C_R   0.749963 0.765957 0.775367 -0.005529
C152  C     C_R   0.253642 0.235885 0.221864 -0.010936
C153  C     C_R   0.541086 0.528960 0.539852 -0.169763
C154  C     C_R   0.458190 0.489941 0.548177 -0.164409
C155  C     C_R   0.541485 0.470946 0.459717 -0.171430
C156  C     C_R   0.458231 0.509415 0.451426 -0.163796
C157  C     C_R   0.041427 0.020861 0.044616 -0.167320
C158  C     C_R   0.958296 0.984140 0.046657 -0.166174
C159  C     C_R   0.041771 0.979409 0.955011 -0.167322
C160  C     C_R   0.958302 0.015320 0.952986 -0.166504
H1    H     H_    0.525345 0.551620 0.570812 0.195943
H2    H     H_    0.473732 0.481928 0.585598 0.195315
H3    H     H_    0.526051 0.448079 0.428823 0.196435
H4    H     H_    0.473801 0.517448 0.413965 0.195596
H5    H     H_    0.025826 0.037391 0.079237 0.194919
H6    H     H_    0.973756 0.971516 0.082886 0.194373
H7    H     H_    0.026447 0.962786 0.920369 0.194404
H8    H     H_    0.973757 0.027995 0.916725 0.193949
C161  C     C_R   0.581483 0.529234 0.540135 0.347497
C162  C     C_R   0.417787 0.489873 0.548446 0.336537
C163  C     C_R   0.581889 0.470816 0.459559 0.345586
C164  C     C_R   0.417828 0.509436 0.451271 0.336624
C165  C     C_R   0.081823 0.020830 0.044957 0.341280
C166  C     C_R   0.917898 0.984266 0.046980 0.339018
C167  C     C_R   0.082161 0.979707 0.954704 0.341403
C168  C     C_R   0.917911 0.015024 0.952724 0.337513
C169  C     C_R   0.602066 0.500154 0.499827 -0.196413
C170  C     C_R   0.397600 0.499695 0.499897 -0.181042
C171  C     C_R   0.102267 0.000277 0.999863 -0.186305
C172  C     C_R   0.897665 0.999682 0.999889 -0.184754
C173  C     C_R   0.520993 0.499917 0.499756 0.004757
C174  C     C_R   0.478516 0.499739 0.499782 0.005440
C175  C     C_R   0.021231 0.000029 0.999820 0.006976
C176  C     C_R   0.978670 0.999826 0.999822 0.007638
Cl1   Cl    Cl    0.107880 0.610844 0.513380 -0.525540
Cl2   Cl    Cl    0.891362 0.390139 0.480702 -0.498318
Cl3   Cl    Cl    0.108556 0.389004 0.487438 -0.526211
Cl4   Cl    Cl    0.891020 0.610149 0.517393 -0.525494
Cl5   Cl    Cl    0.609245 0.100088 0.048331 -0.482859
Cl6   Cl    Cl    0.389920 0.889156 0.005717 -0.522725
Cl7   Cl    Cl    0.610709 0.896970 0.959247 -0.518376
Cl8   Cl    Cl    0.389547 0.110913 0.993663 -0.523517
Cl9   Cl    Cl    0.045368 0.366000 0.406540 -0.385542
Cl10  Cl    Cl    0.955486 0.632383 0.595966 -0.388484
Cl11  Cl    Cl    0.044040 0.633699 0.593933 -0.385743
Cl12  Cl    Cl    0.956888 0.367490 0.403623 -0.365077
Cl13  Cl    Cl    0.541357 0.833737 0.991781 -0.376864
Cl14  Cl    Cl    0.457506 0.157409 0.051187 -0.376961
Cl15  Cl    Cl    0.541508 0.165085 0.010012 -0.368676
Cl16  Cl    Cl    0.458350 0.843036 0.947817 -0.381308
C177  C     C_1   0.816316 0.242362 0.698684 0.282632
N1    N     N_1   0.842461 0.212218 0.699354 -0.112805
C178  C     C_1   0.179274 0.754364 0.302406 0.281939
N2    N     N_1   0.152351 0.783117 0.302517 -0.115635
C179  C     C_1   0.816684 0.756397 0.300471 0.280631
N3    N     N_1   0.842955 0.786041 0.299494 -0.112763
C180  C     C_1   0.179203 0.246845 0.698966 0.281550
N4    N     N_1   0.152145 0.218626 0.699499 -0.115948
C181  C     C_1   0.181877 0.751391 0.706147 0.282210
N5    N     N_1   0.154563 0.779187 0.709497 -0.103448
C182  C     C_1   0.779496 0.343148 0.207149 0.291011
N6    N     N_1   0.795105 0.355553 0.167312 -0.110752
C183  C     C_1   0.181467 0.249668 0.294222 0.283257
N7    N     N_1   0.154057 0.222356 0.291013 -0.101319
C184  C     C_1   0.826446 0.736898 0.715167 0.289810
N8    N     N_1   0.856030 0.758091 0.722781 -0.098161
C185  C     C_1   0.318016 0.744888 0.199737 0.281966
N9    N     N_1   0.344621 0.715557 0.200257 -0.110074
C186  C     C_1   0.678483 0.254253 0.803521 0.288874
N10   N     N_1   0.651582 0.283032 0.804408 -0.108235
C187  C     C_1   0.318609 0.253590 0.799136 0.282312
N11   N     N_1   0.345428 0.282247 0.798126 -0.109792
C188  C     C_1   0.678482 0.746734 0.197415 0.286833
N12   N     N_1   0.651512 0.718360 0.196940 -0.108442
C189  C     C_1   0.720188 0.157209 0.292723 0.293890
N13   N     N_1   0.704550 0.144908 0.332568 -0.109589
C190  C     C_1   0.324340 0.751534 0.797636 0.290241
N14   N     N_1   0.352455 0.725221 0.796030 -0.100512
C191  C     C_1   0.677752 0.763088 0.780736 0.283177
N15   N     N_1   0.648505 0.741293 0.772315 -0.103172
C192  C     C_1   0.324021 0.247996 0.202103 0.290267
N16   N     N_1   0.352109 0.274054 0.203786 -0.099101
C193  C     C_1   0.821166 0.341947 0.637445 0.263140
N17   N     N_1   0.850426 0.355603 0.618534 -0.100323
C194  C     C_1   0.177016 0.652798 0.360607 0.265319
N18   N     N_1   0.148002 0.636528 0.378177 -0.098223
C195  C     C_1   0.821314 0.656593 0.361422 0.261549
N19   N     N_1   0.850598 0.642280 0.379817 -0.100399
C196  C     C_1   0.177032 0.348190 0.640383 0.266540
N20   N     N_1   0.147983 0.364884 0.623218 -0.097971
C197  C     C_1   0.178258 0.650818 0.646935 0.281025
N21   N     N_1   0.148606 0.634053 0.632425 -0.044264
C198  C     C_1   0.752665 0.425721 0.281012 0.274630
N22   N     N_1   0.751056 0.471504 0.268107 -0.139315
C199  C     C_1   0.178154 0.350449 0.353199 0.284053
N23   N     N_1   0.148536 0.367910 0.367589 -0.044008
C200  C     C_1   0.823689 0.636566 0.655871 0.302015
N24   N     N_1   0.852193 0.613182 0.645842 -0.055551
C201  C     C_1   0.322002 0.846669 0.142168 0.274380
N25   N     N_1   0.351478 0.862586 0.125885 -0.078718
C202  C     C_1   0.676689 0.152263 0.860974 0.264856
N26   N     N_1   0.647815 0.135734 0.878765 -0.112610
C203  C     C_1   0.322180 0.151755 0.856689 0.276003
N27   N     N_1   0.351636 0.135099 0.872446 -0.079615
C204  C     C_1   0.676715 0.848700 0.139905 0.264671
N28   N     N_1   0.647813 0.865637 0.122484 -0.108669
C205  C     C_1   0.746971 0.074459 0.219026 0.271939
N29   N     N_1   0.748486 0.028693 0.232010 -0.136189
C206  C     C_1   0.324081 0.853457 0.854789 0.279479
N30   N     N_1   0.352944 0.872452 0.869765 -0.075979
C207  C     C_1   0.678931 0.865536 0.836514 0.313079
N31   N     N_1   0.650304 0.889883 0.842851 -0.066326
C208  C     C_1   0.323953 0.146366 0.144426 0.280554
N32   N     N_1   0.352860 0.127242 0.129214 -0.075641
C209  C     C_1   0.676816 0.345527 0.640150 0.335670
N33   N     N_1   0.647319 0.361590 0.623917 -0.123457
C210  C     C_1   0.321260 0.663203 0.364590 0.359929
N34   N     N_1   0.351119 0.650395 0.382235 -0.076981
C211  C     C_1   0.676905 0.656208 0.360972 0.337077
N35   N     N_1   0.647385 0.640796 0.377631 -0.123402
C212  C     C_1   0.321262 0.335557 0.634392 0.359803
N36   N     N_1   0.351092 0.347906 0.616351 -0.078007
C213  C     C_1   0.322637 0.660317 0.634456 0.348085
N37   N     N_1   0.352089 0.646650 0.615940 -0.107682
C214  C     C_1   0.763231 0.281547 0.422987 0.344369
N38   N     N_1   0.767236 0.269034 0.467981 -0.129180
C215  C     C_1   0.322392 0.337324 0.366226 0.348849
N39   N     N_1   0.351838 0.350155 0.384932 -0.107477
C216  C     C_1   0.685615 0.685869 0.616391 0.383049
N40   N     N_1   0.657252 0.682219 0.591473 -0.063144
C217  C     C_1   0.177452 0.841344 0.137406 0.340977
N41   N     N_1   0.147850 0.855816 0.120141 -0.117970
C218  C     C_1   0.820611 0.166019 0.866223 0.364602
N42   N     N_1   0.850463 0.154603 0.884752 -0.070731
C219  C     C_1   0.177677 0.160956 0.864141 0.341690
N43   N     N_1   0.148053 0.147337 0.881960 -0.118040
C220  C     C_1   0.820640 0.833061 0.133069 0.366639
N44   N     N_1   0.850469 0.844142 0.114262 -0.069507
C221  C     C_1   0.736909 0.218472 0.076808 0.342036
N45   N     N_1   0.733017 0.230940 0.031782 -0.132475
C222  C     C_1   0.181320 0.826700 0.872646 0.374696
N46   N     N_1   0.151728 0.835253 0.893502 -0.064182
C223  C     C_1   0.817626 0.820396 0.880086 0.356950
N47   N     N_1   0.846135 0.826417 0.904219 -0.111950
C224  C     C_1   0.181129 0.173841 0.127655 0.372903
N48   N     N_1   0.151561 0.165411 0.106998 -0.064443
Cl17  Cl    Cl    0.676592 0.230384 0.686495 -0.543289
Cl18  Cl    Cl    0.318016 0.776900 0.315730 -0.547083
Cl19  Cl    Cl    0.677068 0.771242 0.314386 -0.543134
Cl20  Cl    Cl    0.317783 0.221803 0.683125 -0.547331
Cl21  Cl    Cl    0.320078 0.775252 0.680683 -0.545069
Cl22  Cl    Cl    0.792635 0.199368 0.341196 -0.533596
Cl23  Cl    Cl    0.319531 0.222942 0.318883 -0.544929
Cl24  Cl    Cl    0.697652 0.796383 0.668029 -0.551585
Cl25  Cl    Cl    0.178641 0.727206 0.185743 -0.542829
Cl26  Cl    Cl    0.817276 0.277847 0.814105 -0.548087
Cl27  Cl    Cl    0.179466 0.274933 0.815511 -0.542971
Cl28  Cl    Cl    0.817185 0.721140 0.185013 -0.546505
Cl29  Cl    Cl    0.707270 0.300689 0.158413 -0.528080
Cl30  Cl    Cl    0.187983 0.715064 0.821180 -0.542663
Cl31  Cl    Cl    0.808271 0.708837 0.829142 -0.544431
Cl32  Cl    Cl    0.187634 0.285486 0.179127 -0.542662
Cl33  Cl    Cl    0.605218 0.564356 0.593052 -0.562158
Cl34  Cl    Cl    0.393278 0.478261 0.610292 -0.574001
Cl35  Cl    Cl    0.606159 0.434945 0.407228 -0.534639
Cl36  Cl    Cl    0.393377 0.520950 0.389479 -0.573133
Cl37  Cl    Cl    0.105890 0.045002 0.103250 -0.570099
Cl38  Cl    Cl    0.893510 0.966422 0.107413 -0.567016
Cl39  Cl    Cl    0.106643 0.955801 0.896383 -0.572179
Cl40  Cl    Cl    0.893556 0.032594 0.892276 -0.574503

loop_
_geom_bond_atom_site_label_1
_geom_bond_atom_site_label_2
_geom_bond_distance
_ccdc_geom_bond_type
C31   C35   1.398707 A    
C74   C194  1.451886 S    
Zn7   O13   1.930158 S    
C28   C34   1.398543 A    
C62   C78   1.403120 A    
C92   C108  1.415314 A    
C40   C52   1.417576 A    
Zn6   O16   1.931291 S    
C188  N12   1.157687 T    
C131  Cl27  1.775584 S    
Zn5   O51   1.939718 S    
C10   C100  1.475663 S    
C211  N35   1.157488 T    
C129  C145  1.412775 A    
C111  C127  1.399363 A    
C209  N33   1.157486 T    
C73   C193  1.451747 S    
C143  C152  1.518490 S    
C221  N45   1.157468 T    
C109  C125  1.398889 A    
Zn3   O12   1.934307 S    
C44   C56   1.414465 A    
C26   Cl2   1.776250 S    
C123  Cl19  1.775034 S    
C178  N2    1.157696 T    
C32   C36   1.396061 A    
O33   C10   1.276404 A    
C118  C134  1.398748 A    
C59   C139  1.418937 A    
O35   C12   1.279508 A    
C39   C45   1.421897 A    
C112  C216  1.448763 S    
C118  C222  1.448431 S    
C87   C207  1.450032 S    
C88   C208  1.452038 S    
C72   C152  1.416178 A    
Zn2   O48   1.939718 S    
C76   C92   1.412632 A    
C61   C77   1.406431 A    
C168  Cl40  1.761574 S    
Zn4   O2    1.955037 S    
C30   Cl6   1.777265 S    
C157  C175  1.401414 A    
C38   C50   1.417159 A    
Zn10  O25   1.940026 S    
C74   C90   1.412487 A    
O11   C7    1.288232 A    
C12   C98   1.476139 S    
C68   C84   1.407395 A    
C3    C89   1.472142 S    
C124  Cl20  1.776233 S    
C204  N28   1.157533 T    
C53   Cl13  1.774919 S    
C193  N17   1.157407 T    
C56   Cl16  1.775408 S    
C153  C161  1.389322 A    
Zn8   O19   1.934305 S    
Zn12  O24   1.940737 S    
Zn15  O3    1.942475 S    
O16   C12   1.289894 A    
C110  C126  1.404349 A    
O40   C18   1.269874 A    
C220  N44   1.157183 T    
C160  C168  1.389134 A    
Zn16  O4    1.942471 S    
C69   C85   1.403118 A    
C59   C75   1.407037 A    
C86   C206  1.452046 S    
C60   C76   1.407128 A    
C29   C35   1.397744 A    
C72   C88   1.407832 A    
C73   C89   1.410200 A    
C137  C146  1.518896 S    
Zn7   O3    1.955039 S    
C61   C141  1.418195 A    
C130  C146  1.412333 A    
O34   C9    1.276264 A    
C42   C48   1.426835 A    
C159  C175  1.401294 A    
O49   C23   1.281303 A    
C165  C171  1.404625 A    
C68   C188  1.451084 S    
O42   C20   1.270220 A    
C19   C171  1.446818 S    
Zn6   O17   1.931390 S    
Zn10  O22   1.943418 S    
C132  Cl28  1.776470 S    
Zn8   O14   1.930160 S    
C5    C95   1.476556 S    
C155  C163  1.389501 A    
Zn13  O29   1.943417 S    
C41   C53   1.417711 A    
C114  C218  1.448363 S    
C77   C93   1.411486 A    
C128  Cl24  1.776912 S    
C83   C99   1.411556 A    
C15   C101  1.471815 S    
C57   C137  1.419253 A    
C139  C148  1.518417 S    
O52   C24   1.283982 A    
C120  C136  1.399013 A    
Zn3   O1    1.955039 S    
C133  Cl29  1.775751 S    
C13   C103  1.483469 S    
O43   C19   1.270641 A    
C85   C205  1.452270 S    
C210  N34   1.157414 T    
C128  C144  1.409225 A    
C64   C184  1.451673 S    
C26   C34   1.399096 A    
C203  N27   1.157128 T    
C69   C149  1.414618 A    
C222  N46   1.157194 T    
O37   C17   1.272448 A    
C60   C140  1.417212 A    
C125  Cl21  1.774999 S    
C6    C96   1.482766 S    
C217  N41   1.157527 T    
C119  C135  1.399106 A    
C218  N42   1.157137 T    
C98   C114  1.415917 A    
Zn16  O35   1.939906 S    
C113  C129  1.399374 A    
O44   C20   1.270351 A    
C66   C146  1.417329 A    
C166  Cl38  1.761658 S    
C86   C102  1.414698 A    
C173  C174  1.460828 S    
C130  Cl26  1.776498 S    
C131  C147  1.412681 A    
C37   C45   1.421667 A    
C122  C138  1.412445 A    
C16   C102  1.479229 S    
C75   C195  1.451773 S    
C158  C166  1.389282 A    
C63   C183  1.452145 S    
C126  C142  1.418696 A    
C117  C133  1.404382 A    
C47   C48   1.420182 A    
C82   C98   1.412642 A    
Zn16  O44   1.937711 S    
C62   C182  1.451478 S    
C113  C217  1.449465 S    
C105  C209  1.449453 S    
C57   C73   1.407318 A    
C116  C132  1.399233 A    
C63   C79   1.406232 A    
C71   C87   1.404207 A    
O36   C11   1.279412 A    
C76   C196  1.451958 S    
C156  C174  1.401123 A    
C181  N5    1.157623 T    
C79   C199  1.450634 S    
C17   C169  1.451203 S    
C59   C179  1.451780 S    
C90   C106  1.415148 A    
C30   C44   1.414402 A    
C80   C96   1.418133 A    
C81   C97   1.411111 A    
C28   Cl4   1.775823 S    
O38   C18   1.269913 A    
O50   C24   1.281034 A    
C84   C204  1.452158 S    
C82   C202  1.452104 S    
C88   C104  1.414756 A    
C166  C172  1.403973 A    
O41   C19   1.270775 A    
O5    C1    1.285303 A    
C60   C180  1.451479 S    
C189  N13   1.157658 T    
C55   Cl15  1.775121 S    
C20   C172  1.445317 S    
Zn4   O6    1.930160 S    
C81   C201  1.450685 S    
C31   Cl7   1.775853 S    
C182  N6    1.157663 T    
O47   C21   1.283082 A    
C187  N11   1.157796 T    
Zn11  O28   1.939903 S    
C123  C139  1.412315 A    
C11   C97   1.473941 S    
C156  C164  1.389480 A    
C154  C174  1.401266 A    
C140  C147  1.517763 S    
C63   C143  1.417727 A    
Zn1   O10   1.931388 S    
C85   C101  1.413929 A    
C136  Cl32  1.776702 S    
C44   C48   1.426077 A    
Zn4   O11   1.934305 S    
C54   Cl14  1.775026 S    
C70   C190  1.451093 S    
C112  C128  1.397473 A    
C9    C99   1.474040 S    
Zn1   O1    1.959325 S    
C158  H6    1.083377 S    
O32   C15   1.287001 A    
C7    C93   1.475926 S    
C134  C150  1.411219 A    
C49   Cl9   1.775560 S    
C167  Cl39  1.761620 S    
C95   C111  1.416387 A    
C70   C86   1.407950 A    
C110  C214  1.449183 S    
C162  Cl34  1.762484 S    
C1    C91   1.471989 S    
C2    C92   1.473884 S    
C94   C110  1.409083 A    
Zn3   O5    1.930158 S    
Zn13  O34   1.940029 S    
C71   C151  1.414112 A    
O13   C9    1.285580 A    
C154  H2    1.083794 S    
C184  N8    1.157709 T    
O18   C14   1.287963 A    
O6    C2    1.285682 A    
C27   C33   1.398368 A    
O21   C6    1.279599 A    
C32   C42   1.415163 A    
C109  C213  1.449588 S    
C117  C221  1.449191 S    
Zn7   O20   1.934307 S    
C180  N4    1.157816 T    
C108  C212  1.449240 S    
O48   C22   1.283146 A    
C198  N22   1.157462 T    
C83   C203  1.450903 S    
C219  N43   1.157637 T    
C175  C176  1.463698 S    
Zn14  O30   1.943418 S    
C158  C176  1.401664 A    
C78   C94   1.413833 A    
O8    C4    1.288944 A    
C142  C149  1.520981 S    
C136  C152  1.411586 A    
Zn10  O2    1.935649 S    
C29   C43   1.414507 A    
C25   Cl1   1.774376 S    
C164  Cl36  1.762397 S    
C157  C165  1.389263 A    
C31   C41   1.416833 A    
Zn4   O46   1.941884 S    
C191  N15   1.157689 T    
C40   C46   1.423316 A    
C116  C220  1.448480 S    
O17   C13   1.289068 A    
C121  C137  1.412357 A    
C64   C144  1.413989 A    
C224  N48   1.157220 T    
C96   C112  1.420713 A    
C121  Cl17  1.774955 S    
C200  N24   1.157421 T    
C177  N1    1.157604 T    
C164  C170  1.404186 A    
C37   C49   1.415619 A    
C119  C223  1.449391 S    
C39   C51   1.415700 A    
C84   C100  1.412745 A    
C155  H3    1.083812 S    
C72   C192  1.451147 S    
Zn14  O42   1.941128 S    
C14   C104  1.479105 S    
Zn13  O3    1.935645 S    
C43   C55   1.415920 A    
C196  N20   1.157505 T    
Zn14  O4    1.935649 S    
C58   C178  1.451267 S    
C49   C52   1.404124 A    
C216  N40   1.157464 T    
O19   C15   1.276225 A    
C197  N21   1.156984 T    
C58   C74   1.407295 A    
C168  C172  1.403939 A    
O39   C17   1.271476 A    
C192  N16   1.157693 T    
C185  N9    1.157670 T    
O7    C3    1.288767 A    
Zn7   O49   1.941884 S    
C212  N36   1.157504 T    
C102  C118  1.417775 A    
O51   C23   1.281301 A    
C66   C186  1.451007 S    
O31   C16   1.278635 A    
C106  C122  1.398335 A    
C138  C145  1.518173 S    
C153  C173  1.399830 A    
C167  C171  1.404645 A    
Zn9   O37   1.941128 S    
C25   C33   1.398470 A    
O12   C8    1.276247 A    
C190  N14   1.157695 T    
Zn11  O39   1.937711 S    
C45   C46   1.414145 A    
Zn11  O1    1.942475 S    
Zn15  O43   1.937711 S    
C75   C91   1.410424 A    
Zn5   O3    1.959325 S    
C144  C151  1.515281 S    
C103  C119  1.421289 A    
Zn6   O4    1.959327 S    
C122  Cl18  1.776156 S    
O24   C7    1.277665 A    
C163  C169  1.407895 A    
C157  H5    1.083369 S    
C107  C211  1.449449 S    
C65   C145  1.417452 A    
C206  N30   1.157489 T    
C42   C54   1.415598 A    
C159  C167  1.389076 A    
C115  C219  1.449567 S    
C199  N23   1.156962 T    
C58   C138  1.417195 A    
C67   C83   1.405689 A    
C134  Cl30  1.776877 S    
Zn2   O9    1.931390 S    
C163  Cl35  1.763620 S    
C205  N29   1.157462 T    
C101  C117  1.409195 A    
C202  N26   1.157514 T    
C77   C197  1.450668 S    
Zn13  O41   1.941128 S    
C195  N19   1.157414 T    
C153  H1    1.083823 S    
C79   C95   1.411915 A    
C126  Cl22  1.775796 S    
C89   C105  1.414318 A    
O25   C2    1.276086 A    
C160  C176  1.401606 A    
C214  N38   1.157461 T    
C32   Cl8   1.777060 S    
Zn8   O50   1.941884 S    
O27   C4    1.279363 A    
C21   C34   1.458297 S    
Zn2   O2    1.959327 S    
C207  N31   1.156937 T    
C8    C94   1.471658 S    
O29   C14   1.278363 A    
C114  C130  1.399414 A    
Zn15  O31   1.940739 S    
C23   C36   1.453523 S    
C208  N32   1.157487 T    
Zn16  O32   1.940739 S    
C29   Cl5   1.778709 S    
C213  N37   1.157546 T    
C111  C215  1.449459 S    
C26   C40   1.414756 A    
Zn9   O26   1.940028 S    
Zn8   O4    1.955037 S    
C38   C46   1.422950 A    
C141  C150  1.518277 S    
C78   C198  1.452274 S    
C129  Cl25  1.775341 S    
O20   C16   1.289195 A    
C71   C191  1.452552 S    
Zn12  O27   1.939905 S    
C156  H4    1.083789 S    
C107  C123  1.398587 A    
C108  C124  1.398145 A    
Zn14  O33   1.940026 S    
C66   C82   1.407687 A    
C4    C90   1.474106 S    
O28   C3    1.278221 A    
C105  C121  1.398728 A    
C50   C51   1.403942 A    
C53   C56   1.394995 A    
C27   C37   1.413419 A    
C24   C35   1.457815 S    
C132  C148  1.412296 A    
C67   C147  1.417341 A    
C194  N18   1.157454 T    
C52   Cl12  1.775368 S    
C61   C181  1.452180 S    
O9    C5    1.287222 A    
C155  C173  1.399870 A    
Zn6   O52   1.939718 S    
C18   C170  1.443880 S    
C91   C107  1.414362 A    
C124  C140  1.412329 A    
C162  C170  1.404100 A    
C135  Cl31  1.775844 S    
Zn1   O47   1.939718 S    
O45   C21   1.282808 A    
Zn3   O45   1.941884 S    
C106  C210  1.449104 S    
C51   Cl11  1.775443 S    
C161  C169  1.407445 A    
C64   C80   1.406959 A    
C65   C81   1.405793 A    
C127  Cl23  1.775067 S    
C100  C116  1.415862 A    
C183  N7    1.157632 T    
Zn15  O36   1.939903 S    
C154  C162  1.389478 A    
O26   C1    1.275207 A    
C115  C131  1.399192 A    
C57   C177  1.451752 S    
C22   C33   1.458404 S    
C127  C143  1.412079 A    
O30   C13   1.280124 A    
C67   C187  1.452037 S    
C125  C141  1.411681 A    
C50   Cl10  1.775551 S    
Zn5   O18   1.931388 S    
Zn9   O21   1.943416 S    
C179  N3    1.157614 T    
O23   C8    1.286883 A    
Zn11  O23   1.940739 S    
Zn12  O40   1.937711 S    
Zn9   O1    1.935647 S    
Zn1   O7    1.931293 S    
C186  N10   1.157682 T    
Zn2   O8    1.931291 S    
C62   C142  1.414653 A    
C27   Cl3   1.774397 S    
C28   C38   1.413698 A    
C99   C115  1.415554 A    
O15   C11   1.288768 A    
C159  H7    1.083366 S    
C223  N47   1.157664 T    
C65   C185  1.451908 S    
C135  C151  1.409796 A    
C97   C113  1.415211 A    
C69   C189  1.451532 S    
C54   C55   1.395155 A    
C133  C149  1.418600 A    
C25   C39   1.413522 A    
C80   C200  1.451708 S    
C120  C224  1.448411 S    
C165  Cl37  1.761658 S    
C104  C120  1.417390 A    
C30   C36   1.395647 A    
O46   C22   1.283074 A    
C161  Cl33  1.762563 S    
O10   C6    1.288929 A    
C201  N25   1.157001 T    
Zn10  O38   1.941128 S    
C160  H8    1.083367 S    
C41   C47   1.427228 A    
O14   C10   1.286336 A    
C87   C103  1.416495 A    
C70   C150  1.416294 A    
Zn12  O2    1.942473 S    
C43   C47   1.426185 A    
C68   C148  1.417143 A    
C215  N39   1.157548 T    
C93   C109  1.416402 A    
Zn5   O15   1.931293 S    
O22   C5    1.277633 A    
