data_mof_unit_26397.cif
_audit_creation_date              2012-12-11T16:26:32-0500
_audit_creation_method            fapswitch 2.2
_symmetry_space_group_name_H-M    P1
_symmetry_Int_Tables_number       1
_space_group_crystal_system       triclinic
_cell_length_a                    6.920006
_cell_length_b                    17.668479
_cell_length_c                    19.497203
_cell_angle_alpha                 108.105616
_cell_angle_beta                  89.595844
_cell_angle_gamma                 89.974119
_cell_volume                      2265.74409911

loop_
_atom_site_label
_atom_site_type_symbol
_atom_type_description
_atom_site_fract_x
_atom_site_fract_y
_atom_site_fract_z
_atom_type_partial_charge
O1    O     O_R   0.494330 0.415720 0.413720 -0.528625
O2    O     O_R   0.819330 0.430070 0.560210 -0.525692
O3    O     O_R   0.994320 0.584280 0.586280 -0.541660
C1    C     C_R   0.650895 0.416940 0.583565 0.788860
O4    O     O_R   0.823730 0.406300 0.412670 -0.548612
O5    O     O_R   0.998760 0.560340 0.437690 -0.538831
C2    C     C_R   0.655033 0.381323 0.386105 0.727961
O6    O     O_R   0.489890 0.439660 0.562310 -0.535333
O7    O     O_3   0.662340 0.550560 0.508380 -0.387084
V1    V     V_3+5 0.935370 0.490620 0.498450 1.499885
O8    O     O_R   0.328750 0.569930 0.439790 -0.544516
C3    C     C_R   0.159583 0.587236 0.420087 0.722216
O9    O     O_R   0.324340 0.593700 0.587330 -0.555898
C4    C     C_R   0.152239 0.617106 0.615069 0.770907
V2    V     V_3+5 0.435940 0.509380 0.501550 1.466777
O10   O     O_3   0.159100 0.449440 0.491620 -0.359018
H1    H     H_    0.563956 0.790838 0.634661 0.129702
C5    C     C_R   0.393441 0.618351 0.738973 -0.018330
C6    C     C_R   0.567086 0.634596 0.776528 -0.194483
C7    C     C_R   0.576878 0.700078 0.837752 -0.106012
C8    C     C_R   0.412975 0.748442 0.860365 -0.002541
C9    C     C_R   0.267874 0.749267 0.808476 -0.033555
C10   C     C_R   0.266434 0.683108 0.743327 0.019673
C11   C     C_R   0.130791 0.812881 0.817573 -0.156103
C12   C     C_R   0.008240 0.811351 0.759015 0.031099
C13   C     C_R   0.985311 0.739904 0.701070 0.036098
C14   C     C_R   0.131632 0.679859 0.687718 -0.161194
C15   C     C_R   0.910811 0.880677 0.754391 -0.010723
C16   C     C_R   0.743475 0.871931 0.712756 -0.136515
C17   C     C_R   0.692564 0.797516 0.667333 -0.113491
C18   C     C_R   0.817393 0.733283 0.658093 -0.087849
H2    H     H_    0.678314 0.589318 0.767978 0.164241
H3    H     H_    0.698204 0.703767 0.873482 0.157851
H4    H     H_    0.659337 0.923155 0.711414 0.169925
H5    H     H_    0.772596 0.679363 0.618494 0.161544
C19   C     C_R   0.297781 0.636148 0.323382 -0.192631
C20   C     C_R   0.148958 0.640165 0.373714 -0.144775
C21   C     C_R   0.990828 0.693078 0.378032 -0.052463
C22   C     C_R   0.978597 0.737177 0.328298 0.019496
C23   C     C_R   0.131081 0.731986 0.278167 0.039731
C24   C     C_R   0.292068 0.682486 0.276831 0.093336
C25   C     C_R   0.821101 0.788189 0.328315 -0.159509
C26   C     C_R   0.811967 0.830561 0.278669 -0.197433
C27   C     C_R   0.962370 0.825522 0.229134 0.090743
C28   C     C_R   0.124759 0.777603 0.229943 0.070604
C29   C     C_R   0.282009 0.775979 0.183041 0.080709
C30   C     C_R   0.441639 0.727000 0.182851 -0.177831
C31   C     C_R   0.445587 0.679958 0.228713 -0.171867
C32   C     C_R   0.954074 0.868343 0.179370 -0.217063
C33   C     C_R   0.111893 0.868322 0.133465 -0.078851
C34   C     C_R   0.277295 0.823524 0.137258 -0.217366
H6    H     H_    0.419060 0.596338 0.320243 0.145250
H7    H     H_    0.702257 0.795616 0.366060 0.165759
H8    H     H_    0.687343 0.868045 0.279546 0.136855
H9    H     H_    0.826704 0.903464 0.177825 0.120556
H10   H     H_    0.401988 0.824854 0.104163 0.181000
H11   H     H_    0.563366 0.724847 0.147007 0.150011
H12   H     H_    0.570366 0.642383 0.227288 0.137500
C35   C     C_R   0.775733 0.190786 0.875110 -0.223679
C36   C     C_R   0.619641 0.139271 0.872978 -0.028769
C37   C     C_R   0.466734 0.137167 0.825562 -0.188209
C38   C     C_R   0.472623 0.182153 0.777856 0.123818
C39   C     C_R   0.631310 0.232744 0.778915 0.097175
C40   C     C_R   0.784043 0.238765 0.828792 0.006198
C41   C     C_R   0.321826 0.176995 0.728781 -0.160515
C42   C     C_R   0.326129 0.221799 0.681106 -0.170155
C43   C     C_R   0.482429 0.272037 0.681013 0.070753
C44   C     C_R   0.635983 0.277301 0.729869 0.074977
C45   C     C_R   0.793636 0.327202 0.729613 0.044924
C46   C     C_R   0.943140 0.333985 0.779120 -0.154255
C47   C     C_R   0.940428 0.291517 0.829538 -0.026464
C48   C     C_R   0.486858 0.317627 0.633327 -0.159696
C49   C     C_R   0.644482 0.367670 0.632972 0.000487
C50   C     C_R   0.798356 0.370878 0.680521 -0.163017
H13   H     H_    0.890839 0.190783 0.912072 0.105721
H14   H     H_    0.344146 0.099033 0.824718 0.155813
H15   H     H_    0.199695 0.138375 0.727276 0.124641
H16   H     H_    0.206891 0.217147 0.644286 0.141612
H17   H     H_    0.367574 0.314407 0.596781 0.154381
H18   H     H_    0.920443 0.408826 0.680330 0.166014
H19   H     H_    0.061596 0.373972 0.779106 0.165063
H20   H     H_    0.936637 0.124424 0.409707 0.130673
C51   C     C_R   0.501319 0.401346 0.255860 -0.147549
C52   C     C_R   0.422231 0.414235 0.194953 -0.126324
C53   C     C_R   0.405883 0.351699 0.131292 -0.108803
C54   C     C_R   0.469850 0.275931 0.127896 -0.143928
C55   C     C_R   0.549008 0.260566 0.189096 0.072088
C56   C     C_R   0.563573 0.324500 0.255037 0.072482
C57   C     C_R   0.620950 0.183981 0.184197 -0.176056
C58   C     C_R   0.710110 0.171544 0.245223 0.075007
C59   C     C_R   0.713068 0.233438 0.313349 0.031921
C60   C     C_R   0.643155 0.311665 0.317875 -0.186285
C61   C     C_R   0.792814 0.096418 0.239785 -0.143935
C62   C     C_R   0.884232 0.082613 0.297544 -0.137131
C63   C     C_R   0.879646 0.139963 0.364182 -0.161323
C64   C     C_R   0.785587 0.212842 0.374022 -0.062639
H21   H     H_    0.515013 0.452957 0.303000 0.106665
H22   H     H_    0.375145 0.473348 0.196999 0.118590
H23   H     H_    0.345987 0.362159 0.083873 0.129869
H24   H     H_    0.459274 0.230175 0.076245 0.105861
H25   H     H_    0.788243 0.046468 0.191129 0.115570
H26   H     H_    0.949531 0.025224 0.291617 0.129419
O11   O     O_R   0.775200 0.060470 0.937800 -0.537263
O12   O     O_R   0.441110 0.093720 0.087350 -0.545097
O13   O     O_R   0.266330 0.939630 0.062280 -0.538439
C65   C     C_R   0.609701 0.117005 0.114783 0.670969
O14   O     O_R   0.445750 0.069950 0.939820 -0.544097
O15   O     O_R   0.271000 0.915700 0.913700 -0.524367
C66   C     C_R   0.614314 0.087001 0.919788 0.722132
O16   O     O_R   0.770530 0.084400 0.086380 -0.547254
O17   O     O_3   0.602830 0.949510 0.991680 -0.345195
V3    V     V_3+5 0.329710 0.009370 0.001550 1.479329
O18   O     O_R   0.940990 0.906170 0.912570 -0.540558
C67   C     C_R   0.112695 0.881337 0.886273 0.714747
O19   O     O_R   0.936350 0.929940 0.060100 -0.539740
C68   C     C_R   0.104536 0.916093 0.082819 0.695342
V4    V     V_3+5 0.829160 0.990450 0.998310 1.481009
O20   O     O_3   0.105910 0.050480 0.008320 -0.377303
C69   C     C_2   0.849206 0.707027 0.438164 0.741855
O21   O     O_2   0.905373 0.731769 0.500447 -0.573947
O22   O     O_R   0.653473 0.691046 0.423829 -0.672675
H27   H     H_    0.572196 0.703540 0.469481 0.293098
C70   C     C_2   0.319051 0.535708 0.723887 0.712845
O23   O     O_2   0.161444 0.516633 0.696263 -0.591028
O24   O     O_R   0.419916 0.482216 0.750323 -0.663783
H28   H     H_    0.342676 0.432598 0.746969 0.301514
C71   C     C_2   0.100789 0.305421 0.882743 0.376106
H29   H     H_    0.094706 0.283736 0.928780 0.033363
O25   O     O_2   0.243821 0.343248 0.876350 -0.526840
C72   C     C_2   0.735484 0.255790 0.449491 0.736120
O26   O     O_2   0.566764 0.272763 0.465712 -0.561714
O27   O     O_R   0.874361 0.269449 0.503764 -0.653568
H30   H     H_    0.010895 0.256873 0.484454 0.263063
C73   C     C_2   0.382275 0.780666 0.939153 0.429627
H31   H     H_    0.237299 0.792227 0.961258 -0.006902
O28   O     O_2   0.518668 0.790970 0.980393 -0.546382
C74   C     C_2   0.006359 0.959735 0.775589 0.722223
O29   O     O_2   0.180203 0.964986 0.786804 -0.580315
O30   O     O_R   0.902253 0.027183 0.775257 -0.670469
H32   H     H_    0.987383 0.075901 0.785417 0.280170

loop_
_geom_bond_atom_site_label_1
_geom_bond_atom_site_label_2
_ccdc_geom_bond_type
C27   C32   A    
C55   C56   A    
C11   C67   S    
C61   C62   A    
C49   C50   A    
O13   C68   A    
O2    C1    A    
C63   C64   A    
C1    O6    A    
O12   C65   A    
C70   O23   D    
C28   C29   A    
C12   C15   A    
C74   O30   S    
C35   C40   A    
C20   C21   A    
C51   C52   A    
C9    C11   A    
C15   C16   A    
C5    C6    A    
C48   H17   S    
C45   C46   A    
C25   H7    S    
O5    C3    A    
C17   C18   A    
C70   O24   S    
O19   C68   A    
C43   C48   A    
O14   V3    S    
C40   C47   A    
O15   C67   A    
C3    C20   S    
C46   H19   S    
C36   C66   S    
C59   C64   A    
C29   C30   A    
O8    V2    S    
C62   C63   A    
C56   C60   A    
O27   H30   S    
O19   V4    S    
C57   C65   S    
C46   C47   A    
O1    V2    S    
C10   C14   A    
C4    C14   S    
C54   H24   S    
O7    V1    S    
C19   H6    S    
C5    C70   S    
C42   C43   A    
C35   C36   A    
C50   H18   S    
C8    C9    A    
H1    C17   S    
O14   C66   A    
C47   C71   S    
C19   C24   A    
O11   V4    S    
C6    H2    S    
O16   V4    S    
C22   C25   A    
O4    C2    A    
C69   O22   S    
C37   H14   S    
C23   C28   A    
C42   H16   S    
C41   H15   S    
C43   C44   A    
C52   C53   A    
C61   H25   S    
C59   C60   A    
O12   V3    S    
C54   C55   A    
C44   C45   A    
C73   O28   D    
C12   C13   A    
C53   C54   A    
C29   C34   A    
C5    C10   A    
C36   C37   A    
C72   O27   S    
C26   C27   A    
C71   O25   D    
C16   C17   A    
C53   H23   S    
C30   H11   S    
C26   H8    S    
C30   C31   A    
C69   O21   D    
C38   C39   A    
C33   C34   A    
C13   C14   A    
C45   C50   A    
C11   C12   A    
C1    C49   S    
O3    C4    A    
O18   V4    S    
C21   C69   S    
C23   C24   A    
O13   V3    S    
C41   C42   A    
O6    V2    S    
O9    V2    S    
O24   H28   S    
C18   H5    S    
C25   C26   A    
C7    H3    S    
C71   H29   S    
O2    V1    S    
C35   H13   S    
C8    C73   S    
C22   C23   A    
C27   C28   A    
C58   C61   A    
C64   C72   S    
O18   C67   A    
C65   O16   A    
C38   C41   A    
C39   C44   A    
C19   C20   A    
H20   C63   S    
O17   V3    S    
O1    C2    A    
C15   C74   S    
C34   H10   S    
C48   C49   A    
O5    V1    S    
O30   H32   S    
O22   H27   S    
C31   H12   S    
C73   H31   S    
C74   O29   D    
O11   C66   A    
O17   V4    S    
C52   H22   S    
C6    C7    A    
C55   C57   A    
C72   O26   D    
O7    V2    S    
O4    V1    S    
O3    V1    S    
C32   H9    S    
V4    O20   S    
V3    O20   S    
C58   C59   A    
C21   C22   A    
C2    C60   S    
C16   H4    S    
C24   C31   A    
C51   C56   A    
C33   C68   S    
C37   C38   A    
C39   C40   A    
O15   V3    S    
C13   C18   A    
C7    C8    A    
C62   H26   S    
C32   C33   A    
C51   H21   S    
C9    C10   A    
V1    O10   S    
C57   C58   A    
O9    C4    A    
V2    O10   S    
O8    C3    A    
