data_mof_unit_9874.cif
_audit_creation_date              2012-12-10T17:12:28-0500
_audit_creation_method            fapswitch 2.2
_symmetry_space_group_name_H-M    P1
_symmetry_Int_Tables_number       1
_space_group_crystal_system       triclinic
_cell_length_a                    11.701127
_cell_length_b                    13.032241
_cell_length_c                    11.685796
_cell_angle_alpha                 100.852636
_cell_angle_beta                  93.921525
_cell_angle_gamma                 90.483765
_cell_volume                      1745.60688208

loop_
_atom_site_label
_atom_site_type_symbol
_atom_type_description
_atom_site_fract_x
_atom_site_fract_y
_atom_site_fract_z
_atom_type_partial_charge
C1    C     C_R   0.500011 0.298851 0.477350 0.834394
C2    C     C_R   0.499642 0.701374 0.522628 0.835755
C3    C     C_R   0.390112 0.403823 0.019433 -0.423467
C4    C     C_R   0.611745 0.593792 0.980436 -0.425509
C5    C     C_R   0.398199 0.413864 0.143385 0.695087
C6    C     C_R   0.604764 0.582275 0.856851 0.667965
C7    C     C_R   0.548552 0.540675 0.157853 -0.050591
C8    C     C_R   0.450423 0.460183 0.842281 -0.045869
C9    C     C_R   0.540145 0.534325 0.035048 0.015848
C10   C     C_R   0.459548 0.465617 0.965188 0.012929
C11   C     C_R   0.283855 0.499800 0.500119 0.820921
C12   C     C_R   0.716134 0.499902 0.499814 0.814251
C13   C     C_1   0.162273 0.499611 0.500316 -0.200142
C14   C     C_1   0.837693 0.499612 0.499420 -0.208096
C15   C     C_1   0.059829 0.499494 0.499990 -0.008491
C16   C     C_1   0.940119 0.499487 0.499535 -0.013937
C17   C     C_R   0.495100 0.815716 0.537139 -0.146417
C18   C     C_R   0.501922 0.184793 0.462104 -0.141085
C19   C     C_R   0.527277 0.011864 0.346091 0.209733
C20   C     C_R   0.461220 0.988419 0.650302 0.222831
C21   C     C_R   0.526988 0.120882 0.355499 0.224472
C22   C     C_R   0.470626 0.880148 0.643710 0.202827
C23   C     C_R   0.478243 0.140112 0.557472 -0.320582
C24   C     C_R   0.512599 0.860055 0.439785 -0.316937
C25   C     C_R   0.482199 0.032504 0.551630 0.030808
C26   C     C_R   0.507662 0.967685 0.445215 0.032611
Cu1   Cu    Cu3+1 0.508350 0.507730 0.615930 0.977017
Cu2   Cu    Cu3+1 0.491650 0.492270 0.384070 0.977967
H1    H     H_    0.531386 0.809164 0.359403 0.183691
H2    H     H_    0.456794 0.190899 0.636963 0.183364
H3    H     H_    0.387357 0.408053 0.788145 0.140690
H4    H     H_    0.610948 0.593523 0.212016 0.141308
H5    H     H_    0.331221 0.348281 0.964564 0.139840
H6    H     H_    0.673946 0.647714 0.033251 0.145463
N1    N     N_R   0.520920 0.519350 0.790130 -0.206533
N2    N     N_R   0.479080 0.480650 0.209870 -0.210098
O1    O     O_R   0.505930 0.354460 0.582000 -0.610373
O2    O     O_R   0.494070 0.645540 0.418000 -0.609393
O3    O     O_R   0.491820 0.341410 0.386200 -0.506769
O4    O     O_R   0.508180 0.658590 0.613800 -0.511515
O5    O     O_R   0.344250 0.506540 0.597900 -0.586477
O6    O     O_R   0.655750 0.493460 0.402100 -0.586029
O7    O     O_R   0.330140 0.493480 0.402100 -0.552162
O8    O     O_R   0.669860 0.506520 0.597900 -0.552782
N3    N     N_2   0.456377 0.836365 0.744759 -0.398627
H7    H     H_    0.380545 0.855416 0.782777 0.256901
C27   C     C_3   0.554397 0.851811 0.829052 -0.587440
H8    H     H_    0.544865 0.800429 0.893455 0.222156
H9    H     H_    0.560729 0.934119 0.876510 0.214617
H10   H     H_    0.634653 0.831976 0.785017 0.245002
N4    N     N_2   0.555299 0.166198 0.258798 -0.385445
H11   H     H_    0.522605 0.126380 0.178387 0.274640
C28   C     C_3   0.675306 0.194071 0.259452 -0.647233
H12   H     H_    0.688287 0.235372 0.186304 0.222426
H13   H     H_    0.727829 0.122682 0.248487 0.214400
H14   H     H_    0.704361 0.247128 0.342562 0.219208
N5    N     N_2   0.551267 0.948701 0.237269 -0.445653
H15   H     H_    0.614988 0.895233 0.242071 0.243497
C29   C     C_3   0.450683 0.906645 0.163968 -0.714538
H16   H     H_    0.477056 0.863026 0.079442 0.227890
H17   H     H_    0.394107 0.970776 0.146408 0.234594
H18   H     H_    0.402010 0.852353 0.206315 0.232181
N6    N     N_2   0.435138 0.051564 0.758529 -0.437907
H19   H     H_    0.489859 0.114733 0.788610 0.248068
C30   C     C_3   0.315233 0.075219 0.768402 -0.725833
H20   H     H_    0.302611 0.117678 0.858207 0.225042
H21   H     H_    0.262254 0.002108 0.751555 0.231916
H22   H     H_    0.285977 0.125101 0.705301 0.225198
O9    O     O_3   0.677128 0.639396 0.802166 -0.598047
C31   C     C_3   0.794227 0.625282 0.834675 0.039219
H23   H     H_    0.838021 0.597017 0.753670 0.179813
H24   H     H_    0.809727 0.565395 0.890605 0.121495
C32   C     C_3   0.849801 0.730096 0.894534 -0.374812
H25   H     H_    0.843348 0.785815 0.833240 0.220333
H26   H     H_    0.804007 0.763364 0.972792 0.212300
C33   C     C_3   0.975817 0.717842 0.931581 -0.907960
H27   H     H_    0.984289 0.664325 0.995165 0.255198
H28   H     H_    0.013935 0.795199 0.973674 0.253864
H29   H     H_    0.023799 0.686195 0.854275 0.258607
O10   O     O_3   0.331486 0.353492 0.200883 -0.583128
C34   C     C_3   0.216383 0.336726 0.153514 0.023591
H30   H     H_    0.173013 0.290684 0.209537 0.175405
H31   H     H_    0.210470 0.286432 0.065369 0.120123
C35   C     C_3   0.150448 0.438890 0.155453 -0.369113
H32   H     H_    0.159182 0.487325 0.244563 0.243087
H33   H     H_    0.185620 0.484661 0.094296 0.205598
C36   C     C_3   0.023385 0.416711 0.119988 -0.913172
H34   H     H_    0.012006 0.368864 0.030506 0.252694
H35   H     H_    0.978518 0.491582 0.120810 0.253707
H36   H     H_    0.984128 0.374558 0.182265 0.259620

loop_
_geom_bond_atom_site_label_1
_geom_bond_atom_site_label_2
_ccdc_geom_bond_type
C6    O9    S    
C36   H34   S    
N6    C30   S    
C18   C21   A    
C7    N2    A    
C35   C36   S    
C34   H30   S    
C27   H9    S    
N3    H7    S    
C19   N5    S    
C1    C18   S    
C33   H28   S    
C19   C21   A    
C24   C26   A    
N5    C29   S    
C20   C25   A    
C3    H5    S    
C15   C16   S    
C5    N2    A    
C6    N1    A    
C32   H25   S    
C19   C26   A    
C2    O2    A    
C24   H1    S    
C12   O6    A    
Cu1   O8    S    
C30   H21   S    
C33   H29   S    
C11   O7    A    
C31   H23   S    
C9    C10   A    
C1    O1    A    
N3    C27   S    
C29   H16   S    
C2    C17   S    
C32   H26   S    
C34   H31   S    
C27   H10   S    
C28   H13   S    
C4    H6    S    
C29   H17   S    
C17   C24   A    
C18   C23   A    
C23   H2    S    
C33   H27   S    
C4    C6    A    
Cu2   O3    S    
Cu1   N1    S    
C25   C26   A    
C28   H12   S    
N4    H11   S    
N4    C28   S    
C8    N1    A    
Cu1   O5    S    
C27   H8    S    
Cu2   O2    S    
Cu1   O4    S    
C30   H22   S    
C31   C32   S    
C35   H32   S    
C5    O10   S    
C20   C22   A    
C13   C15   T    
C32   C33   S    
C14   C16   T    
C21   N4    S    
C34   C35   S    
C28   H14   S    
C7    C9    A    
C29   H18   S    
C7    H4    S    
C8    H3    S    
C12   C14   S    
O10   C34   S    
C3    C5    A    
Cu2   O7    S    
C17   C22   A    
C20   N6    S    
C36   H35   S    
C12   O8    A    
C3    C10   A    
C11   C13   S    
N5    H15   S    
Cu1   O1    S    
Cu2   O6    S    
C11   O5    A    
C23   C25   A    
O9    C31   S    
C1    O3    A    
N6    H19   S    
C2    O4    A    
C22   N3    S    
Cu2   N2    S    
C8    C10   A    
C30   H20   S    
C36   H36   S    
Cu1   Cu2   S    
C35   H33   S    
C31   H24   S    
C4    C9    A    
