data_mof_unit_33397.cif
_audit_creation_date              2012-12-10T17:15:12-0500
_audit_creation_method            fapswitch 2.2
_symmetry_space_group_name_H-M    P1
_symmetry_Int_Tables_number       1
_space_group_crystal_system       triclinic
_cell_length_a                    10.160908
_cell_length_b                    10.806549
_cell_length_c                    12.925741
_cell_angle_alpha                 91.32333
_cell_angle_beta                  92.431566
_cell_angle_gamma                 94.784138
_cell_volume                      1412.57857897

loop_
_atom_site_label
_atom_site_type_symbol
_atom_type_description
_atom_site_fract_x
_atom_site_fract_y
_atom_site_fract_z
_atom_type_partial_charge
C1    C     C_R   0.444831 0.267471 0.496249 0.939626
C2    C     C_R   0.554340 0.732574 0.509847 0.935917
C3    C     C_2   0.072514 0.494623 0.511491 0.071347
C4    C     C_2   0.928686 0.515129 0.496660 0.073246
C5    C     C_R   0.474942 0.503069 0.698448 0.881455
C6    C     C_R   0.524990 0.496923 0.301563 0.888734
C7    C     C_R   0.539486 0.494404 0.191477 -0.083305
C8    C     C_R   0.460097 0.505463 0.808523 -0.065174
C9    C     C_R   0.332626 0.546510 0.956294 0.004786
C10   C     C_R   0.666691 0.453105 0.043645 0.002713
C11   C     C_R   0.343447 0.539972 0.849936 -0.239292
C12   C     C_R   0.656050 0.459815 0.149982 -0.221196
C13   C     C_R   0.565785 0.475152 0.872297 -0.272060
C14   C     C_R   0.433494 0.524540 0.127804 -0.264733
C15   C     C_R   0.558594 0.481629 0.978727 0.114627
C16   C     C_R   0.440648 0.518003 0.021322 0.111772
C17   C     C_2   0.412491 0.135873 0.504640 -0.369828
C18   C     C_2   0.583761 0.864493 0.525001 -0.359946
C19   C     C_2   0.507672 0.066725 0.537196 -0.149524
C20   C     C_2   0.483398 0.934576 0.535716 -0.158431
H1    H     H_    0.344596 0.552612 0.161661 0.183017
H2    H     H_    0.654535 0.447018 0.838605 0.153788
H3    H     H_    0.738170 0.436731 0.200252 0.182571
H4    H     H_    0.261410 0.563112 0.799600 0.164140
H5    H     H_    0.381370 0.895144 0.535384 0.174662
H6    H     H_    0.607607 0.106445 0.557569 0.194636
H7    H     H_    0.685649 0.904491 0.525650 0.154897
H8    H     H_    0.313054 0.095412 0.483674 0.156742
H9    H     H_    0.899736 0.592096 0.450870 0.136922
H10   H     H_    0.104109 0.436567 0.573673 0.135642
N1    N     N_2   0.162330 0.550370 0.457540 0.029933
N2    N     N_2   0.837670 0.449630 0.542460 0.029327
O1    O     O_R   0.567930 0.307680 0.508550 -0.610537
O2    O     O_R   0.432070 0.692320 0.491450 -0.655104
O3    O     O_R   0.351090 0.340020 0.481290 -0.608727
O4    O     O_R   0.648910 0.659980 0.518710 -0.628688
O5    O     O_R   0.590490 0.486480 0.665020 -0.659562
O6    O     O_R   0.409510 0.513520 0.334980 -0.617377
O7    O     O_R   0.373660 0.518820 0.637760 -0.641322
O8    O     O_R   0.626340 0.481180 0.362240 -0.618845
Zn1   Zn    Zn3+2 0.644780 0.478400 0.518200 0.962808
Zn2   Zn    Zn3+2 0.355220 0.521600 0.481800 0.961009
C21   C     C_1   0.210180 0.583301 0.995758 0.151578
N3    N     N_1   0.112141 0.612768 0.027083 -0.192361
C22   C     C_1   0.789066 0.416209 0.004040 0.148660
N4    N     N_1   0.886993 0.386673 0.972538 -0.200371
O9    O     O_3   0.875277 0.342063 0.580485 -0.556203
C23   C     C_3   0.816925 0.324224 0.676172 0.213961
H11   H     H_    0.710172 0.295249 0.664796 0.177905
H12   H     H_    0.832278 0.410006 0.726214 0.135982
C24   C     C_3   0.881066 0.220788 0.731891 -0.892215
H13   H     H_    0.988193 0.247452 0.747270 0.265646
H14   H     H_    0.833771 0.203663 0.806690 0.228329
H15   H     H_    0.868569 0.133851 0.683628 0.257872
O10   O     O_3   0.116193 0.604855 0.371872 -0.554390
C25   C     C_3   0.191822 0.718434 0.361649 0.231064
H16   H     H_    0.288003 0.702858 0.328427 0.181417
H17   H     H_    0.207093 0.770217 0.437299 0.125165
C26   C     C_3   0.118209 0.799003 0.287951 -0.901732
H18   H     H_    0.021242 0.817203 0.319115 0.258953
H19   H     H_    0.177258 0.889007 0.278910 0.219026
H20   H     H_    0.101496 0.751495 0.210920 0.281050

loop_
_geom_bond_atom_site_label_1
_geom_bond_atom_site_label_2
_ccdc_geom_bond_type
C3    H10   S    
N2    Zn1   S    
C6    O6    A    
C8    C13   A    
N1    Zn2   S    
C5    O5    A    
C2    C18   S    
C19   C20   S    
C1    C17   S    
C4    H9    S    
O2    Zn2   S    
C25   C26   S    
C21   N3    T    
C24   H15   S    
O1    Zn1   S    
C2    O2    A    
C10   C22   S    
C23   H12   S    
C1    O1    A    
C26   H18   S    
C22   N4    T    
C3    N1    D    
C9    C11   A    
C12   H3    S    
O4    Zn1   S    
C4    N2    D    
C10   C12   A    
C8    C11   A    
C14   H1    S    
C23   H11   S    
C17   C19   D    
C9    C16   A    
C25   H17   S    
C13   H2    S    
O6    Zn2   S    
C6    C7    S    
C18   C20   D    
C10   C15   A    
C13   C15   A    
O5    Zn1   S    
C7    C12   A    
C23   C24   S    
N2    O9    S    
C6    O8    A    
O10   C25   S    
C9    C21   S    
C5    C8    S    
C26   H19   S    
C15   C16   A    
C3    C4    S    
C11   H4    S    
C24   H13   S    
C25   H16   S    
C1    O3    A    
C20   H5    S    
C2    O4    A    
O3    Zn2   S    
C5    O7    A    
O7    Zn2   S    
O8    Zn1   S    
C26   H20   S    
N1    O10   S    
C14   C16   A    
C17   H8    S    
C7    C14   A    
C18   H7    S    
O9    C23   S    
C24   H14   S    
C19   H6    S    
