data_mof_unit_13623.cif
_audit_creation_date              2012-12-10T21:01:00-0500
_audit_creation_method            fapswitch 2.2
_symmetry_space_group_name_H-M    P1
_symmetry_Int_Tables_number       1
_space_group_crystal_system       triclinic
_cell_length_a                    15.836338
_cell_length_b                    15.094944
_cell_length_c                    10.516007
_cell_angle_alpha                 90.161015
_cell_angle_beta                  90.491723
_cell_angle_gamma                 89.762696
_cell_volume                      2513.71330779

loop_
_atom_site_label
_atom_site_type_symbol
_atom_type_description
_atom_site_fract_x
_atom_site_fract_y
_atom_site_fract_z
_atom_type_partial_charge
C1    C     C_R   0.338909 0.500161 0.500366 0.903744
C2    C     C_R   0.661090 0.499845 0.499627 0.905137
C3    C     C_1   0.824328 0.499516 0.499164 -0.059764
C4    C     C_1   0.175670 0.500576 0.500580 -0.061351
C5    C     C_R   0.955684 0.580528 0.503335 -0.189536
C6    C     C_R   0.044311 0.419595 0.496262 -0.189691
C7    C     C_R   0.043230 0.580814 0.503986 -0.171330
C8    C     C_R   0.956768 0.419309 0.495610 -0.169169
C9    C     C_R   0.913115 0.499778 0.499164 0.153387
C10   C     C_R   0.086881 0.500341 0.500451 0.154011
C11   C     C_R   0.498581 0.499835 0.256882 0.880257
C12   C     C_R   0.501168 0.500192 0.743135 0.879420
C13   C     C_1   0.250525 0.500504 0.500552 -0.136877
C14   C     C_1   0.749473 0.499536 0.499319 -0.134906
C15   C     C_R   0.455438 0.953064 0.403706 0.326386
C16   C     C_R   0.536715 0.046844 0.602809 0.252096
C17   C     C_R   0.546360 0.952699 0.593498 0.305729
C18   C     C_R   0.464991 0.047194 0.395335 0.332460
C19   C     C_R   0.500679 0.905201 0.498727 -0.347554
C20   C     C_R   0.500650 0.094739 0.499438 -0.339025
C21   C     C_3   0.436793 0.553655 0.040779 -0.216753
C22   C     C_3   0.562722 0.446579 0.959319 -0.204461
C23   C     C_3   0.512634 0.583882 0.959862 -0.158962
C24   C     C_3   0.486826 0.416330 0.040142 -0.146572
C25   C     C_3   0.425813 0.470804 0.956357 0.021785
C26   C     C_3   0.573644 0.529479 0.043689 0.023741
C27   C     C_3   0.500807 0.500608 0.877657 -0.042944
C28   C     C_3   0.498691 0.499568 0.122373 -0.043859
C29   C     C_1   0.500264 0.807006 0.499330 0.401954
C30   C     C_1   0.500289 0.192972 0.499924 0.401226
H1    H     H_    0.386608 0.597047 0.080191 0.167389
H2    H     H_    0.612964 0.403197 0.920049 0.172320
H3    H     H_    0.523805 0.651709 0.923169 0.198370
H4    H     H_    0.475614 0.348494 0.076730 0.209085
H5    H     H_    0.076762 0.643238 0.507163 0.160924
H6    H     H_    0.923239 0.356883 0.492455 0.160245
H7    H     H_    0.921301 0.642730 0.506115 0.156584
H8    H     H_    0.078691 0.357391 0.493514 0.153732
N1    N     N_1   0.500000 0.270550 0.500000 -0.072793
N2    N     N_1   0.500000 0.729450 0.500000 -0.072895
O1    O     O_R   0.378020 0.573650 0.500040 -0.598583
O2    O     O_R   0.621980 0.426350 0.499960 -0.606378
O3    O     O_R   0.621980 0.573650 0.499960 -0.600776
O4    O     O_R   0.378020 0.426350 0.500040 -0.612315
O5    O     O_R   0.499980 0.573650 0.313960 -0.623614
O6    O     O_R   0.500020 0.426350 0.686040 -0.614422
O7    O     O_R   0.500020 0.573650 0.686040 -0.613177
O8    O     O_R   0.499980 0.426350 0.313960 -0.603851
Zn1   Zn    Zn3+2 0.500000 0.598370 0.500000 1.040903
Zn2   Zn    Zn3+2 0.500000 0.401630 0.500000 1.040961
S1    S     S_3+6 0.435071 0.106849 0.255083 0.088975
O9    O     O_2   0.347113 0.142559 0.271894 -0.274358
O10   O     O_2   0.494047 0.183101 0.233964 -0.313289
O11   O     O_3   0.438279 0.042249 0.124752 -0.448879
H9    H     H_    0.408548 0.076690 0.057850 0.379018
S2    S     S_3+6 0.617096 0.892961 0.695841 0.067255
O12   O     O_2   0.568056 0.856231 0.805370 -0.290236
O13   O     O_2   0.657133 0.817365 0.624726 -0.322527
O14   O     O_3   0.695337 0.957724 0.751392 -0.440020
H10   H     H_    0.725150 0.921255 0.815942 0.388377
S3    S     S_3+6 0.566134 0.105610 0.744225 0.090830
O15   O     O_2   0.654734 0.139206 0.730204 -0.204829
O16   O     O_2   0.508508 0.183503 0.765549 -0.360923
O17   O     O_3   0.561170 0.040845 0.873661 -0.409191
H11   H     H_    0.501761 0.020729 0.876178 0.365958
S4    S     S_3+6 0.385637 0.894112 0.299328 0.073160
O18   O     O_2   0.435135 0.860174 0.187862 -0.262394
O19   O     O_2   0.347008 0.816718 0.366781 -0.325074
O20   O     O_3   0.306183 0.959198 0.247405 -0.468224
H12   H     H_    0.277375 0.924146 0.180251 0.380990
C31   C     C_R   0.344713 0.436604 0.899169 0.082123
C32   C     C_R   0.270359 0.487589 0.902682 -0.148443
C33   C     C_R   0.196178 0.456028 0.845718 -0.124580
C34   C     C_R   0.195697 0.373533 0.785089 -0.110424
C35   C     C_R   0.269434 0.322501 0.781114 -0.109323
C36   C     C_R   0.343653 0.353815 0.838023 -0.102428
H13   H     H_    0.269672 0.552001 0.947996 0.138191
H14   H     H_    0.139131 0.495723 0.848011 0.145536
H15   H     H_    0.138290 0.349328 0.740834 0.140375
H16   H     H_    0.269153 0.258755 0.733738 0.153356
H17   H     H_    0.400387 0.313768 0.834076 0.190457
C37   C     C_R   0.654451 0.564244 0.101101 0.083809
C38   C     C_R   0.729207 0.513957 0.097108 -0.147230
C39   C     C_R   0.803116 0.545917 0.154405 -0.126509
C40   C     C_R   0.802920 0.628122 0.215849 -0.113994
C41   C     C_R   0.728787 0.678496 0.220266 -0.100182
C42   C     C_R   0.654820 0.646831 0.162990 -0.098719
H18   H     H_    0.730403 0.449768 0.051155 0.142938
H19   H     H_    0.860481 0.506744 0.151756 0.147402
H20   H     H_    0.860118 0.652613 0.260396 0.141413
H21   H     H_    0.728567 0.742004 0.268305 0.161675
H22   H     H_    0.597747 0.686468 0.167400 0.169650

loop_
_geom_bond_atom_site_label_1
_geom_bond_atom_site_label_2
_ccdc_geom_bond_type
C7    C10   A    
S4    O19   D    
C5    H7    S    
C15   C18   A    
C33   C34   A    
O7    Zn1   S    
C20   C30   S    
C40   C41   A    
C15   C19   A    
C21   H1    S    
C22   H2    S    
C39   H19   S    
C41   H21   S    
C31   C36   A    
S4    O20   S    
C37   C42   A    
S2    O12   D    
C8    H6    S    
C23   C26   S    
C4    C13   T    
S3    O16   D    
C8    C9    A    
C23   H3    S    
C33   H14   S    
C6    H8    S    
C25   C31   S    
C23   C27   S    
C35   H16   S    
O8    Zn2   S    
C38   H18   S    
O14   H10   S    
C26   C37   S    
C42   H22   S    
C11   O8    A    
S3    O15   D    
C12   O7    A    
O1    Zn1   S    
C18   S1    S    
C34   C35   A    
C12   C27   S    
S1    O9    D    
C24   C25   S    
C12   O6    A    
C5    C7    A    
C41   C42   A    
O3    Zn1   S    
C6    C8    A    
C15   S4    S    
C24   H4    S    
S1    O10   D    
S3    O17   S    
C35   C36   A    
C5    C9    A    
C32   H13   S    
C3    C9    S    
C1    O4    A    
C38   C39   A    
O5    Zn1   S    
C2    O3    A    
C16   C20   A    
C39   C40   A    
C17   S2    S    
C3    C14   T    
O2    Zn2   S    
C1    O1    A    
C21   C28   S    
C34   H15   S    
C21   C23   S    
C22   C24   S    
C11   O5    A    
C1    C13   S    
C16   S3    S    
C4    C10   S    
C19   C29   S    
O4    Zn2   S    
C21   C25   S    
O11   H9    S    
C7    H5    S    
C24   C28   S    
C32   C33   A    
C36   H17   S    
C6    C10   A    
C40   H20   S    
C25   C27   S    
O6    Zn2   S    
C26   C28   S    
S2    O14   S    
C22   C27   S    
S1    O11   S    
O17   H11   S    
C31   C32   A    
C16   C17   A    
C11   C28   S    
C2    O2    A    
C29   N2    T    
C17   C19   A    
S2    O13   D    
C30   N1    T    
S4    O18   D    
C18   C20   A    
O20   H12   S    
C2    C14   S    
N1    Zn2   S    
C37   C38   A    
C22   C26   S    
N2    Zn1   S    
