data_mof_unit_9496.cif
_audit_creation_date              2013-03-05T15:52:43-0500
_audit_creation_method            fapswitch 2.2
_symmetry_space_group_name_H-M    P1
_symmetry_Int_Tables_number       1
_space_group_crystal_system       triclinic
_cell_length_a                    10.684197
_cell_length_b                    10.761459
_cell_length_c                    17.010094
_cell_angle_alpha                 99.427272
_cell_angle_beta                  99.579301
_cell_angle_gamma                 61.6017
_cell_volume                      1688.33873348

loop_
_atom_site_label
_atom_site_type_symbol
_atom_site_description
_atom_site_fract_x
_atom_site_fract_y
_atom_site_fract_z
_atom_type_partial_charge
O1    O     O_R   0.749250 0.499990 0.439200 -0.522928
O2    O     O_R   0.477870 0.725740 0.440280 -0.503508
C1    C     C_R   0.356475 0.775904 0.400895 0.584816
O3    O     O_R   0.260770 0.742210 0.412610 -0.480662
O4    O     O_R   0.297990 0.466320 0.394220 -0.481253
C2    C     C_R   0.369346 0.346495 0.357267 0.546572
O5    O     O_R   0.487720 0.253870 0.385870 -0.535369
O6    O     O_R   0.721940 0.304340 0.422320 -0.497113
C3    C     C_R   0.775964 0.377447 0.404642 0.560006
O7    O     O_R   0.750770 0.502570 0.614050 -0.507605
O8    O     O_R   0.479280 0.728140 0.602370 -0.452876
C4    C     C_R   0.381311 0.714087 0.631559 0.549689
O9    O     O_R   0.262290 0.744790 0.587460 -0.497426
O10   O     O_R   0.299400 0.468710 0.556310 -0.523537
C5    C     C_R   0.371106 0.347437 0.584088 0.548429
O11   O     O_R   0.489240 0.256450 0.560730 -0.440491
O12   O     O_R   0.723350 0.306730 0.584410 -0.470552
C6    C     C_R   0.772819 0.381297 0.629771 0.539263
Cr1   Cr    Cr6+3 0.608020 0.610770 0.522990 1.070306
Cr2   Cr    Cr6+3 0.289390 0.599570 0.488050 1.058118
Cr3   Cr    Cr6+3 0.602610 0.289690 0.489020 1.065283
O13   O     O_3   0.500010 0.500010 0.500020 -0.288822
C7    C     C_1   0.342633 0.336057 0.273932 0.002448
C8    C     C_1   0.331513 0.325823 0.203059 0.050270
C9    C     C_2   0.846678 0.331110 0.332085 -0.114418
C10   C     C_2   0.829315 0.329818 0.159302 -0.085865
C11   C     C_2   0.856058 0.217103 0.195956 -0.154113
C12   C     C_2   0.828028 0.233342 0.278626 -0.146492
H1    H     H_    0.903112 0.110007 0.166135 0.186271
H2    H     H_    0.785152 0.167978 0.294074 0.174979
H3    H     H_    0.778436 0.436916 0.188826 0.158004
H4    H     H_    0.894466 0.392277 0.316781 0.106536
C13   C     C_2   0.340840 0.849939 0.330849 -0.098672
C14   C     C_2   0.352198 0.811738 0.156810 0.178902
C15   C     C_2   0.453325 0.832546 0.209379 0.184481
C16   C     C_2   0.456794 0.838579 0.299108 -0.025321
H5    H     H_    0.237760 0.885774 0.295435 0.124632
C17   C     C_2   0.344324 0.331483 0.661881 -0.128355
C18   C     C_2   0.337638 0.352428 0.834205 -0.123173
C19   C     C_2   0.458831 0.272163 0.799686 0.114947
C20   C     C_2   0.454095 0.242898 0.711319 0.183609
H6    H     H_    0.241679 0.430287 0.804026 0.077439
H7    H     H_    0.249358 0.419833 0.683748 0.066335
C21   C     C_1   0.816576 0.342552 0.708888 0.002425
C22   C     C_1   0.843344 0.314029 0.776563 0.013598
C23   C     C_1   0.358540 0.763968 0.713673 -0.015528
C24   C     C_1   0.325891 0.811313 0.780499 -0.017576
O14   O     O_R   0.170650 0.915100 0.051290 -0.476306
O15   O     O_R   0.941960 0.184500 0.049060 -0.502337
C25   C     C_R   0.893971 0.307697 0.086668 0.556654
O16   O     O_R   0.922640 0.402670 0.071640 -0.469340
O17   O     O_R   0.196880 0.368740 0.083740 -0.483064
C26   C     C_R   0.319025 0.299239 0.119790 0.579010
O18   O     O_R   0.411120 0.181190 0.091480 -0.466118
O19   O     O_R   0.364220 0.944920 0.062310 -0.458960
C27   C     C_R   0.295522 0.888918 0.083978 0.546334
O20   O     O_R   0.158740 0.906940 0.874970 -0.493341
O21   O     O_R   0.930920 0.176940 0.885610 -0.468758
C28   C     C_R   0.885130 0.297167 0.858742 0.561252
O22   O     O_R   0.910730 0.394510 0.895320 -0.508065
O23   O     O_R   0.185840 0.361180 0.920280 -0.500303
C29   C     C_R   0.310568 0.297359 0.897894 0.564468
O24   O     O_R   0.399210 0.173040 0.915160 -0.471151
O25   O     O_R   0.353170 0.937370 0.898860 -0.487644
C30   C     C_R   0.280530 0.880960 0.857171 0.548672
Cr4   Cr    Cr6+3 0.053780 0.052210 0.965970 1.095649
Cr5   Cr    Cr6+3 0.060060 0.372530 0.992430 1.103186
Cr6   Cr    Cr6+3 0.372600 0.061970 0.991430 1.129944
O26   O     O_3   0.162150 0.162240 0.983280 -0.300561
N1    N     N_R   0.569604 0.115928 0.678718 0.122833
O27   O     O_R   0.543974 0.015881 0.637612 -0.318918
O28   O     O_R   0.696246 0.107061 0.682590 -0.309556
N2    N     N_R   0.568589 0.833806 0.176908 0.057933
O29   O     O_R   0.658719 0.718475 0.138917 -0.331796
O30   O     O_R   0.569401 0.952995 0.172811 -0.341050
C31   C     C_3   0.593383 0.822917 0.353725 -0.237361
C32   C     C_3   0.664980 0.908474 0.337471 -0.382380
H8    H     H_    0.743381 0.848257 0.292907 0.209550
H9    H     H_    0.583644 0.012586 0.317846 0.213615
H10   H     H_    0.726790 0.928073 0.393148 0.130452
H11   H     H_    0.566759 0.864654 0.416028 0.184007
H12   H     H_    0.673179 0.709071 0.352088 0.183673
N3    N     N_R   0.295000 0.721875 0.172933 0.033420
O31   O     O_R   0.377480 0.608968 0.209861 -0.360040
O32   O     O_R   0.166876 0.742634 0.143411 -0.309656
N4    N     N_R   0.589450 0.201415 0.850981 -0.179645
O33   O     O_R   0.676396 0.067017 0.837390 -0.000004
O34   O     O_R   0.676396 0.067017 0.837391 -0.000004

loop_
_geom_bond_atom_site_label_1
_geom_bond_atom_site_label_2
_geom_bond_distance
_ccdc_geom_bond_type
O19   C27   1.273327 A    
C14   C27   1.483343 S    
O11   Cr3   2.032202 S    
C11   H1    1.086533 S    
N2    O29   1.301095 A    
C15   C16   1.512005 S    
O20   Cr4   2.053050 S    
O19   Cr6   1.920690 S    
C3    C9    1.446752 S    
O4    Cr2   1.945718 S    
C26   O18   1.257866 A    
O17   C26   1.262533 A    
C9    C12   1.341370 D    
O8    Cr1   1.928057 S    
C10   C11   1.341827 D    
O25   Cr6   1.945456 S    
C10   C25   1.446258 S    
O4    C2    1.264115 A    
N4    O34   1.300844 A    
Cr4   O26   1.976298 S    
O18   Cr6   2.065334 S    
C1    C13   1.483391 S    
C5    O11   1.254425 A    
C13   C16   1.377761 D    
C14   C15   1.363861 D    
C19   N4    1.445770 S    
C16   C31   1.545099 S    
O24   Cr6   2.036333 S    
O21   Cr4   1.929039 S    
C22   C28   1.408764 S    
O22   Cr5   2.054739 S    
Cr6   O26   1.968936 S    
C7    C8    1.183596 T    
N1    O27   1.301217 A    
C32   H8    1.109193 S    
C9    H4    1.087107 S    
C10   H3    1.086896 S    
Cr3   O13   1.982158 S    
N2    O30   1.300064 A    
C25   O16   1.270107 A    
C18   H6    1.079504 S    
C32   H9    1.105332 S    
O1    Cr1   2.043917 S    
O15   Cr4   1.933054 S    
O10   Cr2   1.921933 S    
Cr1   O13   1.977583 S    
O1    C3    1.268841 A    
C31   C32   1.527424 S    
C17   C20   1.364693 D    
C4    C23   1.428828 S    
C31   H12   1.109873 S    
C18   C19   1.338113 D    
N4    O33   1.300846 A    
O6    C3    1.268760 A    
O21   C28   1.280392 A    
O5    Cr3   2.060497 S    
C13   H5    1.084353 S    
Cr5   O26   1.982029 S    
C5    C17   1.452428 S    
C29   O24   1.266484 A    
C6    C21   1.411576 S    
O23   Cr5   1.915926 S    
N3    O31   1.301841 A    
O7    Cr1   2.048536 S    
O12   C6    1.258373 A    
O16   Cr5   2.034343 S    
O17   Cr5   1.938901 S    
C19   C20   1.481854 S    
N3    O32   1.301169 A    
Cr2   O13   1.969489 S    
C14   N3    1.445234 S    
C1    O3    1.288761 A    
C21   C22   1.193244 T    
C32   H10   1.111941 S    
O14   C27   1.270979 A    
C18   C29   1.444344 S    
C23   C24   1.202748 T    
C15   N2    1.437567 S    
O9    Cr2   2.062123 S    
O2    Cr1   1.930389 S    
O20   C30   1.272935 A    
O6    Cr3   1.915417 S    
C31   H11   1.108445 S    
O8    C4    1.308872 A    
C2    O5    1.258878 A    
O25   C30   1.263988 A    
C12   H2    1.086638 S    
O2    C1    1.259269 A    
C8    C26   1.395189 S    
C17   H7    1.078866 S    
O7    C6    1.277171 A    
C2    C7    1.395398 S    
O23   C29   1.266972 A    
O12   Cr3   1.939442 S    
O3    Cr2   2.040760 S    
C28   O22   1.249676 A    
C4    O9    1.285690 A    
O15   C25   1.270647 A    
C11   C12   1.451755 S    
O10   C5    1.282153 A    
N1    O28   1.301466 A    
O14   Cr4   2.046562 S    
C24   C30   1.429055 S    
C20   N1    1.439838 S    
