data_mof_unit_24530.cif
_audit_creation_date              2013-03-05T15:43:05-0500
_audit_creation_method            fapswitch 2.2
_symmetry_space_group_name_H-M    P1
_symmetry_Int_Tables_number       1
_space_group_crystal_system       triclinic
_cell_length_a                    10.955907
_cell_length_b                    19.0064
_cell_length_c                    18.456622
_cell_angle_alpha                 90.140904
_cell_angle_beta                  89.713244
_cell_angle_gamma                 90.288674
_cell_volume                      3843.1574892

loop_
_atom_site_label
_atom_site_type_symbol
_atom_site_description
_atom_site_fract_x
_atom_site_fract_y
_atom_site_fract_z
_atom_type_partial_charge
O1    O     O_R   0.575450 0.828820 0.667950 -0.508201
O2    O     O_R   0.575450 0.828820 0.832050 -0.509388
O3    O     O_R   0.575450 0.171180 0.332050 -0.505860
O4    O     O_R   0.575450 0.171180 0.167950 -0.506487
O5    O     O_R   0.075450 0.328820 0.667950 -0.505880
O6    O     O_R   0.075450 0.328820 0.832050 -0.504434
O7    O     O_R   0.075450 0.671180 0.332050 -0.502928
O8    O     O_R   0.075450 0.671180 0.167950 -0.511749
O9    O     O_R   0.416860 0.942890 0.674680 -0.456038
O10   O     O_R   0.416860 0.942890 0.825320 -0.456355
O11   O     O_R   0.416860 0.057110 0.325320 -0.477087
O12   O     O_R   0.416860 0.057110 0.174680 -0.456720
O13   O     O_R   0.916860 0.442890 0.674680 -0.473770
O14   O     O_R   0.916860 0.442890 0.825320 -0.466262
O15   O     O_R   0.916860 0.557110 0.325320 -0.458051
O16   O     O_R   0.916860 0.557110 0.174680 -0.461049
C1    C     C_R   0.321662 0.970590 0.646978 0.573408
C2    C     C_R   0.319126 0.969618 0.854120 0.590549
C3    C     C_R   0.318713 0.030436 0.354094 0.584642
C4    C     C_R   0.321293 0.029228 0.146888 0.575519
C5    C     C_R   0.819190 0.468653 0.645005 0.590820
C6    C     C_R   0.819359 0.469201 0.854661 0.591430
C7    C     C_R   0.820937 0.528558 0.352043 0.564727
C8    C     C_R   0.820936 0.528700 0.147531 0.573833
O17   O     O_R   0.213790 0.953680 0.668330 -0.533027
O18   O     O_R   0.213790 0.953680 0.831670 -0.538914
O19   O     O_R   0.213790 0.046320 0.331670 -0.534790
O20   O     O_R   0.213790 0.046320 0.168330 -0.529603
O21   O     O_R   0.713790 0.453680 0.668330 -0.533547
O22   O     O_R   0.713790 0.453680 0.831670 -0.535864
O23   O     O_R   0.713790 0.546320 0.331670 -0.538302
O24   O     O_R   0.713790 0.546320 0.168330 -0.527163
O25   O     O_R   0.121360 0.817890 0.672660 -0.493578
O26   O     O_R   0.121360 0.817890 0.827340 -0.517085
O27   O     O_R   0.121360 0.182110 0.327340 -0.508779
O28   O     O_R   0.121360 0.182110 0.172660 -0.494867
O29   O     O_R   0.621360 0.317890 0.672660 -0.520843
O30   O     O_R   0.621360 0.317890 0.827340 -0.520010
O31   O     O_R   0.621360 0.682110 0.327340 -0.492796
O32   O     O_R   0.621360 0.682110 0.172660 -0.504515
C9    C     C_R   0.186841 0.772438 0.636417 0.557381
C10   C     C_R   0.132100 0.757168 0.855745 0.601616
C11   C     C_R   0.133605 0.242301 0.356493 0.582163
C12   C     C_R   0.177843 0.230009 0.135300 0.553180
C13   C     C_R   0.629741 0.256217 0.645216 0.577208
C14   C     C_R   0.632849 0.257324 0.855987 0.585748
C15   C     C_R   0.687629 0.727540 0.363300 0.554855
C16   C     C_R   0.635804 0.741540 0.142863 0.596824
O33   O     O_R   0.206850 0.711370 0.665820 -0.443722
O34   O     O_R   0.206850 0.711370 0.834180 -0.457934
O35   O     O_R   0.206850 0.288630 0.334180 -0.475636
O36   O     O_R   0.206850 0.288630 0.165820 -0.448056
O37   O     O_R   0.706850 0.211370 0.665820 -0.470099
O38   O     O_R   0.706850 0.211370 0.834180 -0.474868
O39   O     O_R   0.706850 0.788630 0.334180 -0.450228
O40   O     O_R   0.706850 0.788630 0.165820 -0.465488
O41   O     O_R   0.457710 0.733190 0.672630 -0.533702
O42   O     O_R   0.457710 0.733190 0.827370 -0.519515
O43   O     O_R   0.457710 0.266810 0.327370 -0.511573
O44   O     O_R   0.457710 0.266810 0.172630 -0.528545
O45   O     O_R   0.957710 0.233190 0.672630 -0.505653
O46   O     O_R   0.957710 0.233190 0.827370 -0.505586
O47   O     O_R   0.957710 0.766810 0.327370 -0.537315
O48   O     O_R   0.957710 0.766810 0.172630 -0.518696
C17   C     C_R   0.546042 0.767828 0.646021 0.534495
C18   C     C_R   0.542288 0.769257 0.855024 0.545391
C19   C     C_R   0.495994 0.212484 0.362681 0.538903
C20   C     C_R   0.542916 0.231104 0.145066 0.539450
C21   C     C_R   0.994693 0.288367 0.637496 0.547632
C22   C     C_R   0.004497 0.284439 0.863787 0.541286
C23   C     C_R   0.042863 0.730966 0.355097 0.534333
C24   C     C_R   0.043093 0.731150 0.145104 0.539610
Cr1   Cr    Cr6+3 0.488160 0.884660 0.750000 1.119255
Cr2   Cr    Cr6+3 0.488160 0.115340 0.250000 1.107740
Cr3   Cr    Cr6+3 0.988160 0.384660 0.750000 1.101617
Cr4   Cr    Cr6+3 0.988160 0.615340 0.250000 1.120348
Cr5   Cr    Cr6+3 0.173480 0.883120 0.750000 1.035215
Cr6   Cr    Cr6+3 0.173480 0.116880 0.250000 1.033367
Cr7   Cr    Cr6+3 0.673480 0.383120 0.750000 1.015687
Cr8   Cr    Cr6+3 0.673480 0.616880 0.250000 1.041901
Cr9   Cr    Cr6+3 0.333410 0.727260 0.750000 1.085180
Cr10  Cr    Cr6+3 0.333410 0.272740 0.250000 1.085901
Cr11  Cr    Cr6+3 0.833410 0.227260 0.750000 1.086195
Cr12  Cr    Cr6+3 0.833410 0.772740 0.250000 1.081370
O49   O     O_3   0.331690 0.831680 0.750000 -0.315275
O50   O     O_3   0.331690 0.168320 0.250000 -0.326759
O51   O     O_3   0.831690 0.331680 0.750000 -0.325021
O52   O     O_3   0.831690 0.668320 0.250000 -0.315507
C25   C     C_3   0.061420 0.817226 0.470868 -0.119496
C26   C     C_3   0.983342 0.785222 0.018058 -0.127880
C27   C     C_3   0.994983 0.205934 0.520038 -0.109277
C28   C     C_3   0.031921 0.193879 0.973857 -0.112617
C29   C     C_3   0.447918 0.271685 0.491836 -0.147455
C30   C     C_3   0.486755 0.287481 0.018053 -0.126417
C31   C     C_3   0.525454 0.698481 0.519909 -0.117170
C32   C     C_3   0.545726 0.688412 0.973617 -0.115961
C33   C     C_3   0.196081 0.815011 0.496460 -0.131094
C34   C     C_3   0.099289 0.815158 0.981305 -0.131150
C35   C     C_3   0.127952 0.207451 0.492326 -0.128657
C36   C     C_3   0.168014 0.198297 0.995670 -0.144188
C37   C     C_3   0.568617 0.304648 0.518780 -0.134221
C38   C     C_3   0.605075 0.315054 0.981918 -0.127882
C39   C     C_3   0.652732 0.672770 0.494552 -0.131628
C40   C     C_3   0.670268 0.701642 0.010166 -0.121998
H1    H     H_    0.261005 0.859647 0.501478 0.122475
H2    H     H_    0.115124 0.868137 0.959087 0.162174
H3    H     H_    0.191122 0.162281 0.487130 0.121990
H4    H     H_    0.233310 0.153870 0.995801 0.115641
H5    H     H_    0.588070 0.358856 0.536325 0.159319
H6    H     H_    0.625288 0.367486 0.959752 0.160258
H7    H     H_    0.680191 0.619130 0.478969 0.138359
H8    H     H_    0.739590 0.660937 0.022288 0.120235
H9    H     H_    0.008249 0.862075 0.450139 0.116965
H10   H     H_    0.903475 0.816669 0.035582 0.130394
H11   H     H_    0.941438 0.162877 0.544032 0.126242
H12   H     H_    0.983342 0.147447 0.951456 0.121984
H13   H     H_    0.368342 0.303162 0.475235 0.121183
H14   H     H_    0.407424 0.319630 0.034680 0.119581
H15   H     H_    0.447008 0.663447 0.532324 0.116463
H16   H     H_    0.509083 0.639253 0.949993 0.121992
C41   C     C_3   0.155454 0.767918 0.559737 0.045043
C42   C     C_3   0.099629 0.751101 0.931075 0.064904
C43   C     C_3   0.086019 0.252765 0.428772 0.062354
C44   C     C_3   0.130271 0.239774 0.063105 0.060539
C45   C     C_3   0.580636 0.244453 0.572958 0.067465
C46   C     C_3   0.601581 0.251333 0.931400 0.066315
C47   C     C_3   0.656263 0.732926 0.439688 0.047813
C48   C     C_3   0.604292 0.746439 0.067551 0.062691
C49   C     C_3   0.022314 0.770666 0.535473 -0.100534
C50   C     C_3   0.984871 0.721280 0.966103 -0.135045
C51   C     C_3   0.953926 0.250495 0.454720 -0.124032
C52   C     C_3   0.995143 0.234791 0.043016 -0.099847
C53   C     C_3   0.460284 0.211393 0.547775 -0.116487
C54   C     C_3   0.484684 0.223957 0.965841 -0.137875
C55   C     C_3   0.530677 0.758346 0.463675 -0.104830
C56   C     C_3   0.481052 0.732590 0.032761 -0.132451
C57   C     C_3   0.044196 0.703613 0.490491 -0.092939
C58   C     C_3   0.067105 0.681367 0.019006 -0.100308
C59   C     C_3   0.977977 0.318927 0.498385 -0.119386
C60   C     C_3   0.008764 0.305436 0.002381 -0.117975
C61   C     C_3   0.534313 0.168159 0.491841 -0.105605
C62   C     C_3   0.563703 0.181924 0.018747 -0.100619
C63   C     C_3   0.593601 0.806726 0.518392 -0.100340
C64   C     C_3   0.500552 0.800081 0.987419 -0.099523
C65   C     C_3   0.177919 0.701285 0.514954 -0.091549
C66   C     C_3   0.182987 0.711111 0.983272 -0.102414
C67   C     C_3   0.111355 0.320657 0.471198 -0.087983
C68   C     C_3   0.144412 0.310082 0.023261 -0.089517
C69   C     C_3   0.654695 0.201380 0.517637 -0.090075
C70   C     C_3   0.681936 0.209249 0.983569 -0.100469
C71   C     C_3   0.720279 0.781662 0.493735 -0.121090
C72   C     C_3   0.624869 0.813385 0.023227 -0.093830
C73   C     C_3   0.217202 0.747599 0.450629 -0.132064
C74   C     C_3   0.181789 0.775195 0.034649 -0.156527
C75   C     C_3   0.152606 0.275412 0.535259 -0.135425
C76   C     C_3   0.181754 0.268947 0.955055 -0.126117
C77   C     C_3   0.641670 0.261715 0.462943 -0.122702
C78   C     C_3   0.684418 0.272933 0.035270 -0.154985
C79   C     C_3   0.716037 0.721815 0.550462 -0.144527
C80   C     C_3   0.689791 0.769143 0.964943 -0.150598
C81   C     C_3   0.084310 0.750169 0.426936 0.045419
C82   C     C_3   0.067243 0.745201 0.069802 0.055961
C83   C     C_3   0.020618 0.274027 0.561901 0.041963
C84   C     C_3   0.046696 0.264558 0.934756 0.050134
C85   C     C_3   0.522567 0.228140 0.437816 0.045342
C86   C     C_3   0.567538 0.245401 0.069892 0.054373
C87   C     C_3   0.589721 0.747264 0.574283 0.049619
C88   C     C_3   0.566876 0.755661 0.929892 0.057673
H17   H     H_    0.946628 0.782385 0.573504 0.139286
H18   H     H_    0.908812 0.696731 0.935760 0.150001
H19   H     H_    0.881279 0.235813 0.416187 0.126424
H20   H     H_    0.922521 0.218800 0.081767 0.138295
H21   H     H_    0.387266 0.190468 0.583732 0.146810
H22   H     H_    0.407961 0.201857 0.934342 0.148817
H23   H     H_    0.463673 0.778445 0.424642 0.162094
H24   H     H_    0.401956 0.714779 0.065555 0.121834
H25   H     H_    0.980161 0.658359 0.486267 0.122246
H26   H     H_    0.048766 0.627874 0.039195 0.145022
H27   H     H_    0.912061 0.362415 0.504329 0.112575
H28   H     H_    0.941761 0.348946 0.002639 0.114425
H29   H     H_    0.521623 0.113606 0.473683 0.127579
H30   H     H_    0.540812 0.129033 0.038694 0.142348
H31   H     H_    0.561590 0.860093 0.531649 0.139795
H32   H     H_    0.430717 0.840632 0.975751 0.117012
H33   H     H_    0.232377 0.656768 0.534400 0.127858
H34   H     H_    0.263122 0.679080 0.967258 0.131428
H35   H     H_    0.166117 0.365314 0.450628 0.153378
H36   H     H_    0.193681 0.356984 0.043851 0.149399
H37   H     H_    0.737234 0.170127 0.528977 0.128525
H38   H     H_    0.761240 0.176292 0.968297 0.123073
H39   H     H_    0.797241 0.817360 0.480200 0.115279
H40   H     H_    0.662506 0.863135 0.044718 0.159265
H41   H     H_    0.287742 0.733968 0.410096 0.135566
H42   H     H_    0.256810 0.800522 0.065393 0.123419
H43   H     H_    0.231196 0.286201 0.571325 0.138776
H44   H     H_    0.255562 0.284724 0.916969 0.142216
H45   H     H_    0.706914 0.286918 0.425073 0.125628
H46   H     H_    0.760991 0.295744 0.066596 0.122639
H47   H     H_    0.787937 0.704593 0.588431 0.158582
H48   H     H_    0.769670 0.786742 0.932625 0.125195
C89   C     C_R   0.320219 0.996033 0.426149 0.000669
C90   C     C_R   0.332518 0.990762 0.077122 0.003174
C91   C     C_R   0.333773 0.008561 0.577358 0.001237
C92   C     C_R   0.322207 0.004648 0.925976 0.000368
C93   C     C_R   0.832507 0.487985 0.419829 0.003994
C94   C     C_R   0.830879 0.488617 0.078905 0.004138
C95   C     C_R   0.821207 0.500045 0.571256 -0.004770
C96   C     C_R   0.823027 0.502529 0.927634 -0.002704
C97   C     C_R   0.536585 0.960924 0.421822 0.207002
C98   C     C_R   0.559923 0.989064 0.068000 0.198854
C99   C     C_R   0.561361 0.007084 0.566651 0.209200
C100  C     C_R   0.541501 0.034502 0.922865 0.214813
C101  C     C_R   0.059190 0.488981 0.426831 0.212759
C102  C     C_R   0.056228 0.481690 0.072175 0.203379
C103  C     C_R   0.039612 0.532652 0.572395 0.213266
C104  C     C_R   0.045055 0.530001 0.927860 0.211208
C105  C     C_R   0.650935 0.963811 0.454569 -0.170816
C106  C     C_R   0.663677 0.008474 0.028035 -0.187314
C107  C     C_R   0.663220 0.987566 0.525321 -0.180795
C108  C     C_R   0.654273 0.031657 0.957116 -0.166443
C109  C     C_R   0.162661 0.507507 0.466597 -0.176471
C110  C     C_R   0.161863 0.501986 0.034920 -0.184721
C111  C     C_R   0.152834 0.528225 0.538253 -0.168094
C112  C     C_R   0.155861 0.526950 0.964630 -0.170991
C113  C     C_R   0.442609 0.000143 0.536007 -0.072314
C114  C     C_R   0.435354 0.011930 0.961005 -0.064605
C115  C     C_R   0.432742 0.984875 0.460764 -0.076925
C116  C     C_R   0.442647 0.996290 0.036216 -0.063858
C117  C     C_R   0.934014 0.509477 0.535256 -0.068329
C118  C     C_R   0.936284 0.508135 0.963786 -0.066294
C119  C     C_R   0.941953 0.494907 0.459873 -0.058591
C120  C     C_R   0.941090 0.491947 0.038912 -0.065987
H49   H     H_    0.730402 0.944508 0.425994 0.148572
H50   H     H_    0.752541 0.007206 0.052596 0.147609
H51   H     H_    0.752913 0.989121 0.548775 0.146765
H52   H     H_    0.734481 0.051155 0.929432 0.141858
H53   H     H_    0.252134 0.505282 0.442118 0.144433
H54   H     H_    0.249345 0.500177 0.061054 0.146518
H55   H     H_    0.233888 0.544029 0.566998 0.135823
H56   H     H_    0.237257 0.547910 0.939562 0.142927
C121  C     C_R   0.223253 0.021482 0.541686 -0.014593
C122  C     C_R   0.213896 0.001098 0.968265 -0.016202
C123  C     C_R   0.212802 0.002550 0.468783 -0.006311
C124  C     C_R   0.221952 0.980366 0.040678 -0.011570
C125  C     C_R   0.712981 0.492729 0.529355 -0.021418
C126  C     C_R   0.713798 0.498968 0.969544 -0.016051
C127  C     C_R   0.722742 0.473854 0.456224 -0.021611
C128  C     C_R   0.720844 0.478749 0.042210 -0.010021
C129  C     C_R   0.118625 0.044633 0.579735 -0.067565
C130  C     C_R   0.096699 0.013390 0.939351 -0.083393
C131  C     C_R   0.094432 0.992153 0.440281 -0.069741
C132  C     C_R   0.116054 0.956374 0.077260 -0.068474
C133  C     C_R   0.594368 0.504304 0.557813 -0.083961
C134  C     C_R   0.596497 0.509944 0.940088 -0.087333
C135  C     C_R   0.618319 0.450009 0.418608 -0.069734
C136  C     C_R   0.614895 0.455070 0.078851 -0.065538
C137  C     C_R   0.003273 0.035515 0.550359 -0.122945
C138  C     C_R   0.992205 0.992969 0.977310 -0.144639
C139  C     C_R   0.991216 0.009267 0.480536 -0.137116
C140  C     C_R   0.001924 0.962865 0.045640 -0.125648
C141  C     C_R   0.491091 0.484952 0.518572 -0.148455
C142  C     C_R   0.491984 0.488772 0.977604 -0.145560
C143  C     C_R   0.503040 0.455881 0.449682 -0.123693
C144  C     C_R   0.501271 0.460221 0.046591 -0.124461
H57   H     H_    0.080560 0.968871 0.387356 0.146212
H58   H     H_    0.121804 0.933595 0.130905 0.143545
H59   H     H_    0.125772 0.065995 0.634058 0.149617
H60   H     H_    0.085419 0.037367 0.886666 0.151814
H61   H     H_    0.625929 0.429167 0.364068 0.146301
H62   H     H_    0.620351 0.433087 0.132869 0.141921
H63   H     H_    0.580459 0.528894 0.610132 0.155042
H64   H     H_    0.584786 0.533676 0.887341 0.148728
H65   H     H_    0.923656 0.049278 0.582068 0.132711
H66   H     H_    0.904655 0.997522 0.952033 0.109835
H67   H     H_    0.902406 0.003027 0.456753 0.104780
H68   H     H_    0.921970 0.943975 0.074206 0.129445
H69   H     H_    0.402575 0.489495 0.543186 0.109071
H70   H     H_    0.404948 0.491444 0.951469 0.112583
H71   H     H_    0.423719 0.437767 0.420266 0.135230
H72   H     H_    0.421568 0.441045 0.075088 0.124076
N1    N     N_R   0.526114 0.927400 0.352108 0.104417
O53   O     O_R   0.429883 0.890208 0.335985 -0.349994
O54   O     O_R   0.619797 0.925555 0.308705 -0.243926
N2    N     N_R   0.576697 0.957163 0.137896 0.099634
O55   O     O_R   0.500352 0.909616 0.161369 -0.305322
O56   O     O_R   0.678032 0.967364 0.172960 -0.318617
N3    N     N_R   0.581919 0.040189 0.635902 0.110790
O57   O     O_R   0.506038 0.086757 0.661147 -0.310180
O58   O     O_R   0.684860 0.030950 0.669360 -0.318872
N4    N     N_R   0.535478 0.067290 0.852653 0.098033
O59   O     O_R   0.441803 0.105116 0.834558 -0.356436
O60   O     O_R   0.630537 0.066920 0.810209 -0.258514
N5    N     N_R   0.076390 0.457226 0.356503 0.099467
O61   O     O_R   0.999731 0.410213 0.332484 -0.310549
O62   O     O_R   0.178205 0.467115 0.321334 -0.303462
N6    N     N_R   0.068085 0.446390 0.140842 0.106016
O63   O     O_R   0.984874 0.402043 0.162690 -0.315131
O64   O     O_R   0.171255 0.448817 0.175340 -0.290229
N7    N     N_R   0.032740 0.567894 0.641245 0.106745
O65   O     O_R   0.939627 0.607325 0.657327 -0.336009
O66   O     O_R   0.129302 0.571592 0.681592 -0.264233
N8    N     N_R   0.044681 0.563039 0.857859 0.102625
O67   O     O_R   0.952181 0.600317 0.836739 -0.333784
O68   O     O_R   0.145221 0.565477 0.820280 -0.284443

loop_
_geom_bond_atom_site_label_1
_geom_bond_atom_site_label_2
_geom_bond_distance
_ccdc_geom_bond_type
O46   Cr11  1.980791 S    
C64   H32   1.110949 S    
O26   C10   1.274999 A    
Cr7   O51   1.994341 S    
O6    Cr3   2.089717 S    
C51   H19   1.104347 S    
N2    O55   1.301782 A    
C27   C51   1.545085 S    
C25   C49   1.544260 S    
O46   C22   1.287825 A    
C89   C115  1.408576 A    
O3    Cr2   2.081022 S    
O48   Cr12  1.971726 S    
C102  C110  1.396371 A    
C122  C124  1.397642 A    
N3    O58   1.301389 A    
C23   C81   1.448936 S    
C33   H1    1.108368 S    
C63   C71   1.536068 S    
Cr8   O52   1.985760 S    
C9    O33   1.302538 A    
O38   Cr11  2.098632 S    
C25   H9    1.105074 S    
C121  C129  1.412906 A    
C105  H49   1.080928 S    
C95   C117  1.411101 A    
C4    O20   1.283708 A    
C31   H15   1.107950 S    
C125  C133  1.417211 A    
C73   C81   1.523346 S    
C36   C44   1.528020 S    
C7    O23   1.281573 A    
C8    O24   1.279196 A    
O24   Cr8   2.062777 S    
C40   C48   1.537300 S    
C90   C124  1.401413 A    
O12   C4    1.280095 A    
O13   C5    1.302778 A    
C58   C82   1.531454 S    
C118  C120  1.422337 A    
C28   H12   1.108476 S    
C45   C69   1.537951 S    
N6    O63   1.301702 A    
C62   H30   1.098800 S    
O47   C23   1.268566 A    
C136  C144  1.386620 A    
O28   C12   1.296286 A    
O29   C13   1.279338 A    
C50   C58   1.536204 S    
C91   C113  1.421999 A    
C132  C140  1.388704 A    
O31   C15   1.307250 A    
C133  C141  1.393845 A    
O32   C16   1.266393 A    
C54   H22   1.105038 S    
C98   C116  1.422525 A    
Cr12  O52   1.984645 S    
C26   C34   1.543878 S    
C93   C127  1.399678 A    
O11   Cr2   1.937937 S    
O2    C18   1.260978 A    
C68   H36   1.107244 S    
O27   Cr6   1.972554 S    
C69   H37   1.105586 S    
C34   H2    1.100793 S    
O47   Cr12  1.981971 S    
C97   C105  1.394485 A    
O31   Cr8   1.972554 S    
O25   C9    1.306526 A    
C72   H40   1.103328 S    
C111  H55   1.077741 S    
C57   C81   1.532363 S    
O10   C2    1.298316 A    
C78   H46   1.107260 S    
C79   C87   1.530382 S    
C61   H29   1.097269 S    
C80   C88   1.517251 S    
C96   C126  1.423092 A    
C59   H27   1.105230 S    
C49   C57   1.538437 S    
C46   C54   1.517167 S    
C56   C64   1.546665 S    
C52   H20   1.109004 S    
C137  C139  1.387421 A    
C53   H21   1.109660 S    
O34   Cr9   2.098632 S    
O41   C17   1.265528 A    
C20   C86   1.438421 S    
C56   H24   1.106651 S    
C138  H66   1.072699 S    
O43   Cr10  1.981971 S    
C11   O35   1.257088 A    
C38   C78   1.544551 S    
C26   H10   1.108597 S    
C26   C82   1.534599 S    
C28   C52   1.545778 S    
C133  H63   1.082185 S    
C29   C53   1.551203 S    
O8    Cr4   2.077853 S    
C97   N1    1.439234 S    
C44   C52   1.530380 S    
C134  H64   1.082441 S    
C1    C91   1.480343 S    
C33   C41   1.535949 S    
C47   C71   1.530019 S    
C48   C72   1.529531 S    
O13   Cr3   1.948016 S    
C68   C76   1.535116 S    
O1    C17   1.267559 A    
C39   C47   1.529365 S    
C131  H57   1.082485 S    
C101  C119  1.423968 A    
C19   C85   1.448262 S    
C42   C66   1.535980 S    
Cr5   O49   1.994341 S    
C7    C93   1.477598 S    
C29   H13   1.104864 S    
C95   C125  1.424885 A    
C31   C39   1.549684 S    
N8    O68   1.299435 A    
C36   H4    1.109456 S    
C123  C131  1.414686 A    
C107  H51   1.076006 S    
C77   C85   1.523568 S    
C40   H8    1.110800 S    
C28   C36   1.548173 S    
C90   C116  1.423666 A    
C75   C83   1.525159 S    
O4    C20   1.269090 A    
C65   H33   1.099734 S    
C71   C79   1.548229 S    
C94   C128  1.397294 A    
N5    O61   1.301752 A    
C62   C86   1.530588 S    
C106  C108  1.386617 A    
C29   C85   1.530518 S    
C63   C87   1.532315 S    
C32   C88   1.529343 S    
C110  C112  1.384450 A    
C112  H56   1.077589 S    
Cr1   O49   1.983758 S    
O2    Cr1   2.089717 S    
C10   O34   1.260553 A    
O22   Cr7   2.063113 S    
Cr3   O51   1.983758 S    
N6    O64   1.300645 A    
C93   C119  1.417090 A    
C11   C43   1.443524 S    
C67   C75   1.534912 S    
C132  H58   1.083856 S    
C34   C42   1.528479 S    
C41   C49   1.529195 S    
C6    O22   1.267157 A    
O16   Cr4   1.939642 S    
C74   C82   1.518975 S    
C38   C46   1.527080 S    
C31   C87   1.535743 S    
C92   C122  1.418482 A    
C15   C47   1.452946 S    
O7    Cr4   2.081022 S    
N1    O54   1.299386 A    
C99   C107  1.399681 A    
C61   C85   1.522770 S    
O14   C6    1.297188 A    
N2    O56   1.301317 A    
C130  H60   1.082791 S    
C64   C72   1.536386 S    
C46   C70   1.536662 S    
O25   Cr5   1.973075 S    
C16   C48   1.437265 S    
C58   C66   1.533843 S    
C8    C94   1.480290 S    
C113  C115  1.422568 A    
C104  N8    1.437912 S    
C41   C65   1.530887 S    
O30   C14   1.275013 A    
C51   C59   1.550514 S    
C140  H68   1.080432 S    
C141  H69   1.072635 S    
C134  C142  1.393293 A    
C24   C82   1.438880 S    
C2    C92   1.482948 S    
C27   C35   1.541704 S    
Cr9   O49   1.984835 S    
Cr11  O51   1.984835 S    
O12   Cr2   1.939642 S    
C2    O18   1.263300 A    
O19   Cr6   2.070811 S    
C102  C120  1.420184 A    
C30   C86   1.535503 S    
C34   C74   1.543602 S    
O23   Cr8   2.070811 S    
C32   C56   1.546751 S    
C44   C68   1.533646 S    
O11   C3    1.298240 A    
C57   C65   1.536090 S    
C76   H44   1.109429 S    
C47   C55   1.523844 S    
C48   C56   1.519511 S    
O26   Cr5   1.973350 S    
O10   Cr1   1.938527 S    
O30   Cr7   1.973350 S    
C37   H5    1.099385 S    
C39   H7    1.101542 S    
N4    O59   1.301445 A    
O33   Cr9   2.107789 S    
O5    C21   1.298413 A    
C131  C139  1.389481 A    
C101  C109  1.396703 A    
C35   C75   1.537168 S    
C139  H67   1.075317 S    
C33   C73   1.551249 S    
C100  C114  1.421363 A    
C36   C76   1.545792 S    
C79   H47   1.108151 S    
O15   Cr4   1.937937 S    
C15   O39   1.296467 A    
C37   C77   1.537096 S    
C27   C83   1.531156 S    
C40   C80   1.545659 S    
C25   C81   1.529972 S    
C32   H16   1.104631 S    
O40   Cr12  2.110883 S    
O8    C24   1.269085 A    
C94   C120  1.413273 A    
C122  C130  1.413686 A    
C21   C83   1.447945 S    
O45   Cr11  1.971343 S    
O42   Cr9   1.980791 S    
C126  C134  1.414541 A    
C67   H35   1.103946 S    
Cr10  O50   1.984645 S    
C136  H62   1.083973 S    
C12   C44   1.445931 S    
C103  C111  1.391349 A    
C63   H31   1.101465 S    
O5    Cr3   2.078971 S    
N7    O65   1.301550 A    
C54   C62   1.536378 S    
C100  C108  1.392018 A    
N3    O57   1.301212 A    
O21   Cr7   2.064703 S    
C14   O38   1.258686 A    
C125  C127  1.399459 A    
C38   H6    1.099264 S    
C60   C84   1.525602 S    
C29   C37   1.544402 S    
C78   C86   1.519398 S    
O6    C22   1.284591 A    
C70   C78   1.539661 S    
C43   C51   1.522544 S    
C66   H34   1.109353 S    
C129  C137  1.387569 A    
C89   C123  1.418180 A    
C52   C60   1.545774 S    
C35   H3    1.109134 S    
C17   C87   1.458707 S    
C53   C61   1.546916 S    
C18   C88   1.433502 S    
O37   Cr11  2.107789 S    
O1    Cr1   2.078971 S    
O14   Cr3   1.938527 S    
C62   C70   1.534818 S    
C117  C119  1.420260 A    
C129  H59   1.083831 S    
C5    O21   1.261784 A    
C50   H18   1.106876 S    
C143  H71   1.081329 S    
C59   C83   1.528137 S    
C27   H11   1.097409 S    
C77   H45   1.105506 S    
C75   H43   1.108966 S    
C4    C90   1.484020 S    
C26   C50   1.546304 S    
O44   C20   1.261241 A    
N5    O62   1.300847 A    
C109  H53   1.078284 S    
C97   C115  1.419007 A    
O39   Cr12  2.099543 S    
C69   C77   1.537279 S    
C127  C135  1.413313 A    
C72   C80   1.537565 S    
C30   H14   1.106661 S    
C3    C89   1.483595 S    
C39   C79   1.552645 S    
O27   C11   1.269810 A    
C60   C68   1.539225 S    
C104  C112  1.395293 A    
C61   C69   1.536639 S    
C80   H48   1.107413 S    
O29   Cr7   1.973075 S    
C59   C67   1.542866 S    
C64   C88   1.536936 S    
O17   Cr5   2.064703 S    
C49   H17   1.106876 S    
O7    C23   1.264834 A    
C70   H38   1.108558 S    
C142  H70   1.072270 S    
C9    C41   1.460320 S    
C57   H25   1.110042 S    
C30   C54   1.543081 S    
O44   Cr10  1.971726 S    
O42   C18   1.259235 A    
C108  H52   1.078777 S    
C13   C45   1.456889 S    
C66   C74   1.541841 S    
C104  C118  1.421597 A    
O32   Cr8   1.981086 S    
O20   Cr6   2.062777 S    
Cr4   O52   1.992507 S    
O4    Cr2   2.077853 S    
O43   C19   1.295084 A    
C28   C84   1.533954 S    
C71   H39   1.107547 S    
C103  N7    1.436823 S    
O16   C8    1.282699 A    
O9    Cr1   1.948016 S    
C3    O19   1.262031 A    
C126  C128  1.398656 A    
O18   Cr5   2.063113 S    
C6    C96   1.487577 S    
C99   N3    1.441450 S    
C106  H50   1.076405 S    
C141  C143  1.390938 A    
C142  C144  1.389697 A    
N1    O53   1.301681 A    
C110  H54   1.075868 S    
C25   C33   1.552158 S    
C121  C123  1.397069 A    
C55   H23   1.101491 S    
C138  C140  1.390942 A    
C37   C45   1.527957 S    
C45   C53   1.531598 S    
C31   C55   1.542617 S    
C73   H41   1.104241 S    
Cr2   O50   1.992507 S    
O36   Cr10  2.110883 S    
N7    O66   1.298293 A    
O35   Cr10  2.099543 S    
O9    C1    1.280077 A    
C43   C67   1.532617 S    
C114  C116  1.423054 A    
O41   Cr9   1.971343 S    
C58   H26   1.100890 S    
C100  N4    1.441251 S    
C10   C42   1.438183 S    
C35   C43   1.530723 S    
C135  H61   1.083820 S    
O45   C21   1.296505 A    
C65   C73   1.538118 S    
C16   O40   1.257322 A    
N8    O67   1.301350 A    
C124  C132  1.413586 A    
C103  C117  1.415503 A    
C14   C46   1.436394 S    
O3    C19   1.301335 A    
C60   H28   1.108518 S    
C135  C143  1.389381 A    
C1    O17   1.283540 A    
C22   C84   1.443092 S    
C12   O36   1.286399 A    
C128  C136  1.412678 A    
C91   C121  1.404173 A    
C105  C107  1.387613 A    
C137  H65   1.080853 S    
C98   C106  1.400365 A    
C98   N2    1.439778 S    
C5    C95   1.487546 S    
C32   C40   1.544340 S    
C101  N5    1.442021 S    
C109  C111  1.382816 A    
O28   Cr6   1.981086 S    
Cr6   O50   1.985760 S    
O15   C7    1.277719 A    
C55   C63   1.528616 S    
C144  H72   1.079410 S    
C130  C138  1.393180 A    
N4    O60   1.300102 A    
O48   C24   1.261924 A    
C13   O37   1.263696 A    
C74   H42   1.108413 S    
C102  N6    1.442205 S    
C76   C84   1.530009 S    
C99   C113  1.426615 A    
C92   C114  1.407009 A    
C42   C50   1.518680 S    
C30   C38   1.544687 S    
C96   C118  1.415216 A    
