data_mof_unit_55787.cif
_audit_creation_date              2012-12-10T17:59:45-0500
_audit_creation_method            fapswitch 2.2
_symmetry_space_group_name_H-M    P1
_symmetry_Int_Tables_number       1
_space_group_crystal_system       triclinic
_cell_length_a                    10.831534
_cell_length_b                    9.540576
_cell_length_c                    15.895677
_cell_angle_alpha                 89.707415
_cell_angle_beta                  90.091885
_cell_angle_gamma                 90.005752
_cell_volume                      1642.62099413

loop_
_atom_site_label
_atom_site_type_symbol
_atom_type_description
_atom_site_fract_x
_atom_site_fract_y
_atom_site_fract_z
_atom_type_partial_charge
C1    C     C_R   0.262133 0.499996 0.499969 0.786237
C2    C     C_3   0.651021 0.530603 0.950705 0.468887
C3    C     C_3   0.645046 0.529470 0.050420 1.033819
C4    C     C_1   0.509116 0.498635 0.824588 0.115774
C5    C     C_1   0.505779 0.501495 0.175461 0.168266
C6    C     C_1   0.502772 0.501270 0.250852 -0.070153
C7    C     C_R   0.063850 0.372622 0.500308 -0.159465
C8    C     C_R   0.063874 0.627372 0.499922 -0.155742
C9    C     C_R   0.936126 0.372626 0.500442 -0.144437
C10   C     C_R   0.936151 0.627376 0.500055 -0.140962
C11   C     C_R   0.871752 0.500003 0.500248 -0.015818
C12   C     C_R   0.128248 0.499995 0.500042 -0.022606
C13   C     C_R   0.424897 0.074769 0.446724 0.009907
C14   C     C_R   0.424901 0.926101 0.446722 0.018206
C15   C     C_R   0.500228 0.500361 0.340292 0.819555
C16   C     C_R   0.575271 0.925230 0.553241 -0.006192
C17   C     C_R   0.575260 0.073901 0.553247 -0.010207
C18   C     C_R   0.737871 0.500003 0.500138 0.812923
C19   C     C_R   0.500084 0.499642 0.659742 0.829935
C20   C     C_3   0.415691 0.610213 0.046547 0.124670
C21   C     C_3   0.462757 0.355795 0.049077 0.110620
C22   C     C_3   0.468272 0.355988 0.951033 -0.468509
C23   C     C_3   0.423889 0.613526 0.949110 -0.447256
C24   C     C_1   0.503814 0.498769 0.749201 -0.103464
C25   C     C_3   0.509926 0.500398 0.083270 -0.211161
C26   C     C_3   0.515492 0.499981 0.916724 -0.139088
Cu1   Cu    Cu3+1 0.500020 0.640660 0.500000 0.994111
Cu2   Cu    Cu3+1 0.500020 0.359340 0.500000 0.973671
H1    H     H_    0.330237 0.592274 0.922949 0.194277
H2    H     H_    0.373433 0.336760 0.926378 0.197738
H3    H     H_    0.635692 0.869016 0.595881 0.145209
H4    H     H_    0.635656 0.129427 0.595894 0.129605
H5    H     H_    0.321328 0.570695 0.061120 0.117379
H6    H     H_    0.362971 0.348007 0.065188 0.131277
H7    H     H_    0.523204 0.268738 0.925514 0.254759
H8    H     H_    0.447371 0.718507 0.924556 0.272488
H9    H     H_    0.111862 0.273024 0.500408 0.154997
H10   H     H_    0.111906 0.726970 0.499706 0.155273
H11   H     H_    0.888098 0.273026 0.500658 0.157670
H12   H     H_    0.888142 0.726977 0.499955 0.158159
H13   H     H_    0.364581 0.130975 0.404010 0.127831
H14   H     H_    0.364596 0.870586 0.404009 0.148135
N1    N     N_R   0.500030 0.852070 0.500020 -0.172688
N2    N     N_R   0.500030 0.147930 0.500020 -0.166533
O1    O     O_R   0.319660 0.618740 0.500000 -0.592569
O2    O     O_R   0.319660 0.381260 0.500000 -0.593299
O3    O     O_R   0.500020 0.618840 0.379440 -0.549365
O4    O     O_R   0.500020 0.381160 0.379440 -0.576901
O5    O     O_R   0.680370 0.618830 0.500010 -0.584898
O6    O     O_R   0.680370 0.381170 0.500010 -0.585252
O7    O     O_R   0.500010 0.618730 0.620560 -0.564746
O8    O     O_R   0.500010 0.381270 0.620560 -0.585732
S1    S     S_3+6 0.523063 0.198168 0.098800 0.138456
O9    O     O_2   0.565951 0.095484 0.033948 -0.133058
O10   O     O_2   0.627497 0.226066 0.158716 -0.180816
O11   O     O_3   0.407546 0.123721 0.153702 -0.436644
H15   H     H_    0.391998 0.188317 0.201125 0.322608
S2    S     S_3+6 0.410092 0.781800 0.094366 0.121646
O12   O     O_2   0.535047 0.836249 0.118263 -0.054230
O13   O     O_2   0.350055 0.884208 0.034862 -0.210899
O14   O     O_3   0.324316 0.771483 0.182303 -0.521679
H16   H     H_    0.238804 0.755333 0.162416 0.358117
F1    F     F_    0.687959 0.654243 0.082899 -0.551962
F2    F     F_    0.724217 0.429509 0.083143 -0.555228
S3    S     S_3+6 0.710598 0.699189 0.911902 0.108153
O15   O     O_2   0.842700 0.716459 0.939084 -0.153629
O16   O     O_2   0.705944 0.703798 0.817402 -0.298484
O17   O     O_3   0.631970 0.836802 0.949656 -0.453979
H17   H     H_    0.660985 0.918135 0.916135 0.396027
S4    S     S_3+6 0.762858 0.400266 0.913142 0.115937
O18   O     O_2   0.890596 0.440718 0.940997 -0.144072
O19   O     O_2   0.737882 0.256459 0.947982 -0.241318
O20   O     O_3   0.762746 0.393122 0.807347 -0.508538
H18   H     H_    0.716688 0.306762 0.792984 0.339260

loop_
_geom_bond_atom_site_label_1
_geom_bond_atom_site_label_2
_ccdc_geom_bond_type
C4    C26   S    
C11   C18   S    
S1    O9    D    
S4    O18   D    
C15   O3    A    
C9    C11   A    
O20   H18   S    
O14   H16   S    
C20   C23   S    
C14   H14   S    
C8    C12   A    
C2    S3    S    
C1    O1    A    
Cu1   O1    S    
S2    O14   S    
C13   H13   S    
C19   C24   S    
C7    H9    S    
C17   N2    A    
S3    O15   D    
C2    C26   S    
C6    C15   S    
C21   C22   S    
C16   H3    S    
C21   S1    S    
C22   H7    S    
Cu2   O8    S    
C16   N1    A    
Cu2   O2    S    
C7    C12   A    
C1    C12   S    
C8    H10   S    
C15   O4    A    
S4    O20   S    
C3    C25   S    
C5    C25   S    
C20   H5    S    
C23   H1    S    
C8    C10   A    
Cu1   O7    S    
C2    C3    S    
C3    F1    S    
S1    O10   D    
C3    F2    S    
C5    C6    T    
C4    C24   T    
C17   H4    S    
C1    O2    A    
C23   C26   S    
C16   C17   A    
C10   C11   A    
S2    O13   D    
C19   O7    A    
C9    H11   S    
S3    O17   S    
O11   H15   S    
C18   O6    A    
C10   H12   S    
C23   H8    S    
C22   C26   S    
S1    O11   S    
Cu1   O3    S    
Cu1   Cu2   S    
C7    C9    A    
Cu1   N1    S    
C21   C25   S    
O17   H17   S    
C20   S2    S    
S4    O19   D    
C21   H6    S    
C22   H2    S    
C13   C14   A    
S2    O12   D    
C2    S4    S    
Cu2   O6    S    
C19   O8    A    
Cu2   N2    S    
C13   N2    A    
Cu2   O4    S    
Cu1   O5    S    
C18   O5    A    
C14   N1    A    
S3    O16   D    
C20   C25   S    
