data_mof_unit_68116.cif
_audit_creation_date              2013-03-05T15:58:26-0500
_audit_creation_method            fapswitch 2.2
_symmetry_space_group_name_H-M    P1
_symmetry_Int_Tables_number       1
_space_group_crystal_system       triclinic
_cell_length_a                    7.718256
_cell_length_b                    15.363038
_cell_length_c                    16.331384
_cell_angle_alpha                 90.000084
_cell_angle_beta                  89.441458
_cell_angle_gamma                 90.001406
_cell_volume                      1936.41589218

loop_
_atom_site_label
_atom_site_type_symbol
_atom_site_description
_atom_site_fract_x
_atom_site_fract_y
_atom_site_fract_z
_atom_type_partial_charge
O1    O     O_R   0.388780 0.834790 0.412340 -0.530602
O2    O     O_R   0.111220 0.165210 0.912340 -0.520806
O3    O     O_R   0.888780 0.665210 0.587660 -0.520810
O4    O     O_R   0.611220 0.334790 0.087660 -0.530627
O5    O     O_R   0.059040 0.845930 0.587040 -0.520874
O6    O     O_R   0.440960 0.154070 0.087040 -0.534496
O7    O     O_R   0.559040 0.654070 0.412960 -0.534488
O8    O     O_R   0.940960 0.345930 0.912960 -0.520877
C1    C     C_R   0.228396 0.869970 0.611559 1.001143
C2    C     C_R   0.273453 0.131134 0.113097 0.913985
C3    C     C_R   0.726545 0.631135 0.386902 0.913995
C4    C     C_R   0.771606 0.369971 0.888441 1.001149
O9    O     O_R   0.059070 0.845930 0.412970 -0.528940
O10   O     O_R   0.440930 0.154070 0.912970 -0.534339
O11   O     O_R   0.559070 0.654070 0.587030 -0.534345
O12   O     O_R   0.940930 0.345930 0.087030 -0.528943
O13   O     O_R   0.888760 0.665210 0.412340 -0.535948
O14   O     O_R   0.611240 0.334790 0.912340 -0.531659
O15   O     O_R   0.388760 0.834790 0.587660 -0.531656
O16   O     O_R   0.111240 0.165210 0.087660 -0.535940
C5    C     C_R   0.228685 0.866868 0.385774 0.955830
C6    C     C_R   0.270569 0.136089 0.883128 0.952919
C7    C     C_R   0.729430 0.636089 0.616872 0.952956
C8    C     C_R   0.771316 0.366869 0.114226 0.955854
O17   O     O_3   0.222280 0.690700 0.500000 -0.242406
O18   O     O_3   0.277720 0.309300 0.000000 -0.247431
O19   O     O_3   0.722280 0.809300 0.500000 -0.247427
O20   O     O_3   0.777720 0.190700 0.000000 -0.242404
V1    V     V_3+5 0.947430 0.761000 0.500000 1.415358
V2    V     V_3+5 0.552570 0.239000 0.000000 1.402460
V3    V     V_3+5 0.447430 0.739000 0.500000 1.402477
V4    V     V_3+5 0.052570 0.261000 0.000000 1.415365
C9    C     C_3   0.862844 0.603050 0.769376 -0.353770
C10   C     C_3   0.594105 0.413363 0.249778 -0.319491
C11   C     C_3   0.405888 0.913360 0.250218 -0.319503
C12   C     C_3   0.137168 0.103044 0.730625 -0.353741
C13   C     C_3   0.833946 0.538396 0.846413 -0.351081
C14   C     C_3   0.615136 0.473200 0.330100 -0.356912
C15   C     C_3   0.384859 0.973199 0.169897 -0.356874
C16   C     C_3   0.166064 0.038390 0.653589 -0.351068
H1    H     H_    0.726452 0.564213 0.884488 0.206472
H2    H     H_    0.687128 0.433482 0.374442 0.202265
H3    H     H_    0.312862 0.933482 0.125554 0.202298
H4    H     H_    0.273564 0.064203 0.615514 0.206494
H5    H     H_    0.993564 0.406571 0.758864 0.265175
H6    H     H_    0.535804 0.612389 0.236122 0.287775
H7    H     H_    0.464205 0.112388 0.263872 0.287773
H8    H     H_    0.006440 0.906561 0.741136 0.265175
C17   C     C_3   0.832438 0.475512 0.663821 -0.217167
C18   C     C_3   0.721057 0.536506 0.155122 -0.216400
C19   C     C_3   0.278951 0.036506 0.344876 -0.216400
C20   C     C_3   0.167563 0.975507 0.836180 -0.217164
C21   C     C_3   0.566433 0.549763 0.731310 -0.410130
C22   C     C_3   0.922680 0.440004 0.240895 -0.372470
C23   C     C_3   0.077317 0.940001 0.259106 -0.372442
C24   C     C_3   0.433575 0.049764 0.768693 -0.410165
C25   C     C_3   0.750098 0.569138 0.692728 -0.262268
C26   C     C_3   0.753010 0.436649 0.187112 -0.269726
C27   C     C_3   0.246991 0.936648 0.312886 -0.269728
C28   C     C_3   0.249906 0.069135 0.807273 -0.262256
H9    H     H_    0.488423 0.532027 0.677800 0.171684
H10   H     H_    0.031012 0.452072 0.199631 0.211983
H11   H     H_    0.968987 0.952069 0.300370 0.211983
H12   H     H_    0.511581 0.032027 0.822204 0.171688
C29   C     C_3   0.759390 0.445608 0.820572 -0.201976
C30   C     C_3   0.731901 0.557397 0.315901 -0.187779
C31   C     C_3   0.268098 0.057396 0.184097 -0.187782
C32   C     C_3   0.240615 0.945605 0.679430 -0.201991
C33   C     C_3   0.855833 0.414320 0.742016 -0.361759
C34   C     C_3   0.674857 0.596983 0.232042 -0.373154
C35   C     C_3   0.325151 0.096982 0.267955 -0.373173
C36   C     C_3   0.144170 0.914314 0.757984 -0.361745
C37   C     C_3   0.568037 0.468420 0.792295 0.377434
C38   C     C_3   0.918947 0.519532 0.304190 0.350346
C39   C     C_3   0.081052 0.019529 0.195811 0.350336
C40   C     C_3   0.431969 0.968421 0.707707 0.377431
H13   H     H_    0.818413 0.346237 0.727851 0.232062
H14   H     H_    0.732758 0.662735 0.225498 0.197476
H15   H     H_    0.267253 0.162733 0.274498 0.197480
H16   H     H_    0.181589 0.846232 0.772149 0.232064
C41   C     C_2   0.050298 0.606116 0.744669 1.128061
O21   O     O_2   0.108710 0.665983 0.703647 -0.547489
O22   O     O_R   0.152547 0.535476 0.762210 -0.820249
H17   H     H_    0.240716 0.525244 0.718535 0.316487
C42   C     C_2   0.420303 0.424750 0.207135 0.984643
O23   O     O_2   0.351176 0.364532 0.170826 -0.560444
O24   O     O_R   0.342766 0.504662 0.204009 -0.766752
H18   H     H_    0.265058 0.508452 0.155125 0.381191
C43   C     C_2   0.579693 0.924747 0.292859 0.984612
O25   O     O_2   0.648818 0.864530 0.329165 -0.560431
O26   O     O_R   0.657232 0.004660 0.295987 -0.766753
H19   H     H_    0.734943 0.008450 0.344871 0.381187
C44   C     C_2   0.949713 0.106107 0.755331 1.128021
O27   O     O_2   0.891299 0.165971 0.796352 -0.547479
O28   O     O_R   0.847464 0.035463 0.737790 -0.820247
H20   H     H_    0.759286 0.025235 0.781462 0.316491
I1    I     I_    0.452380 0.364755 0.730398 -0.349229
I2    I     I_    0.085641 0.626145 0.266747 -0.195394
I3    I     I_    0.914368 0.126142 0.233254 -0.195382
I4    I     I_    0.547618 0.864758 0.769602 -0.349250
C45   C     C_2   0.723244 0.432387 0.598335 1.028945
O29   O     O_2   0.632938 0.476788 0.554293 -0.684508
O30   O     O_R   0.741631 0.343474 0.581401 -0.739969
H21   H     H_    0.668780 0.323941 0.533431 0.372561
C46   C     C_2   0.867451 0.582115 0.108993 1.004108
O31   O     O_2   0.006650 0.547801 0.096845 -0.636425
O32   O     O_R   0.836744 0.665401 0.076946 -0.769593
H22   H     H_    0.934281 0.687569 0.040901 0.367014
C47   C     C_2   0.132560 0.082114 0.391005 1.004120
O33   O     O_2   0.993359 0.047798 0.403155 -0.636425
O34   O     O_R   0.163268 0.165402 0.423048 -0.769571
H23   H     H_    0.065732 0.187571 0.459091 0.366992
C48   C     C_2   0.276757 0.932385 0.901667 1.028940
O35   O     O_2   0.367048 0.976791 0.945714 -0.684505
O36   O     O_R   0.258382 0.843470 0.918597 -0.739957
H24   H     H_    0.331229 0.823940 0.966568 0.372568
C49   C     C_2   0.824445 0.695400 0.797264 1.072133
O37   O     O_2   0.848079 0.755819 0.749996 -0.603016
O38   O     O_R   0.779229 0.711716 0.879152 -0.726275
H25   H     H_    0.723008 0.769532 0.889273 0.376288
C50   C     C_2   0.581916 0.318859 0.278273 1.059307
O39   O     O_2   0.621740 0.259038 0.232897 -0.604148
O40   O     O_R   0.499859 0.300673 0.352793 -0.733956
H26   H     H_    0.464760 0.238094 0.358117 0.386026
C51   C     C_2   0.418060 0.818854 0.221724 1.059284
O41   O     O_2   0.378315 0.759034 0.267117 -0.604128
O42   O     O_R   0.500019 0.800667 0.147182 -0.733945
H27   H     H_    0.535217 0.738101 0.141874 0.386019
C52   C     C_2   0.175575 0.195393 0.702732 1.072132
O43   O     O_2   0.151883 0.255821 0.749985 -0.603017
O44   O     O_R   0.220885 0.211693 0.620852 -0.726344
H28   H     H_    0.276875 0.269566 0.610711 0.376353
C53   C     C_2   0.976822 0.546382 0.908841 1.158964
O45   O     O_2   0.001946 0.489396 0.958426 -0.581581
O46   O     O_R   0.072303 0.623654 0.914103 -0.769001
H29   H     H_    0.156936 0.623911 0.960852 0.343658
C54   C     C_2   0.452576 0.487201 0.377848 1.169472
O47   O     O_2   0.356899 0.546378 0.360388 -0.545173
O48   O     O_R   0.416553 0.435682 0.445952 -0.722457
H30   H     H_    0.343900 0.468508 0.487261 0.350089
C55   C     C_2   0.547420 0.987200 0.122148 1.169443
O49   O     O_2   0.643099 0.046379 0.139604 -0.545168
O50   O     O_R   0.583443 0.935675 0.054047 -0.722474
H31   H     H_    0.656099 0.968498 0.012735 0.350093
C56   C     C_2   0.023193 0.046379 0.591159 1.158947
O51   O     O_2   0.998057 0.989394 0.541574 -0.581563
O52   O     O_R   0.927732 0.123655 0.585894 -0.769059
H32   H     H_    0.843092 0.123912 0.539149 0.343659
C57   C     C_2   0.007603 0.474095 0.620269 0.981938
O53   O     O_2   0.077806 0.539073 0.593166 -0.608370
O54   O     O_R   0.088504 0.393965 0.608698 -0.728767
H33   H     H_    0.205717 0.400564 0.581686 0.338786
C58   C     C_2   0.587135 0.540509 0.088231 1.028618
O55   O     O_2   0.606487 0.494128 0.028596 -0.673061
O56   O     O_R   0.461442 0.605706 0.086723 -0.762202
H34   H     H_    0.394214 0.606352 0.034024 0.359015
C59   C     C_2   0.412876 0.040511 0.411766 1.028636
O57   O     O_2   0.393522 0.994131 0.471401 -0.673061
O58   O     O_R   0.538575 0.105708 0.413271 -0.762207
H35   H     H_    0.605809 0.106354 0.465969 0.359014
C60   C     C_2   0.992395 0.974080 0.879731 0.981942
O59   O     O_2   0.922189 0.039057 0.906833 -0.608381
O60   O     O_R   0.911503 0.893945 0.891302 -0.728679
H36   H     H_    0.794297 0.900531 0.918323 0.338818
C61   C     C_2   0.481012 0.632192 0.766380 1.078296
O61   O     O_2   0.424207 0.686372 0.719627 -0.574704
O62   O     O_R   0.469445 0.649049 0.850216 -0.769711
H37   H     H_    0.402004 0.703805 0.863440 0.371253
C62   C     C_2   0.970915 0.351456 0.277166 1.085676
O63   O     O_2   0.086741 0.308923 0.245606 -0.592392
O64   O     O_R   0.888450 0.318516 0.347044 -0.783815
H38   H     H_    0.928098 0.258288 0.362203 0.364814
C63   C     C_2   0.029075 0.851453 0.222836 1.085589
O65   O     O_2   0.913259 0.808916 0.254402 -0.592414
O66   O     O_R   0.111527 0.818515 0.152954 -0.783786
H39   H     H_    0.071885 0.758285 0.137800 0.364818
C64   C     C_2   0.519008 0.132193 0.733626 1.078339
O67   O     O_2   0.575803 0.186376 0.780382 -0.574721
O68   O     O_R   0.530606 0.149047 0.649790 -0.769596
H40   H     H_    0.598046 0.203806 0.636570 0.371279
I5    I     I_    0.377935 0.473004 0.890236 -0.168065
I6    I     I_    0.013439 0.480708 0.421511 -0.253529
I7    I     I_    0.986553 0.980705 0.078490 -0.253524
I8    I     I_    0.622067 0.973006 0.609762 -0.168046

loop_
_geom_bond_atom_site_label_1
_geom_bond_atom_site_label_2
_geom_bond_distance
_ccdc_geom_bond_type
O17   V3    1.889545 S    
O24   H18   1.004897 S    
O1    C5    1.403009 A    
C59   O57   1.214798 D    
C24   C40   1.598153 S    
C23   C27   1.584772 S    
O19   V1    1.889578 S    
O13   V1    2.105433 S    
C62   O63   1.217733 D    
O12   C8    1.415354 A    
C46   O31   1.211376 D    
O3    C7    1.388861 A    
O28   H20   0.993525 S    
O64   H38   1.006260 S    
C39   I7    2.141504 S    
C35   H15   1.109315 S    
C60   O59   1.217112 D    
C31   C39   1.566459 S    
C17   C25   1.640086 S    
O40   H26   1.002388 S    
C38   I2    2.167141 S    
C20   C48   1.520054 S    
O7    C3    1.402146 A    
C46   O32   1.403458 S    
C61   O61   1.214344 D    
C16   C56   1.514092 S    
O22   H17   0.993525 S    
O9    V1    2.107404 S    
H8    C36   1.107090 S    
C5    C27   1.607132 S    
C49   O38   1.401444 S    
C17   C45   1.520054 S    
O4    C8    1.402996 A    
C34   H14   1.109314 S    
C18   C58   1.512484 S    
O50   H31   1.008246 S    
C30   C38   1.566467 S    
O1    V3    2.105417 S    
C29   C37   1.590810 S    
O2    V4    2.099405 S    
O3    V1    2.099391 S    
C44   O28   1.373713 S    
C23   C63   1.531131 S    
C20   C28   1.640104 S    
O52   H32   1.009605 S    
C11   C51   1.527262 S    
C22   C38   1.600488 S    
C33   H13   1.110068 S    
C12   C44   1.498982 S    
C1    O15   1.402515 A    
O60   H36   1.007741 S    
C2    O16   1.422788 A    
C64   O68   1.395439 S    
C13   C29   1.595616 S    
O2    C6    1.388878 A    
C18   C46   1.522681 S    
O54   H33   1.007744 S    
C24   H12   1.100320 S    
O14   V2    2.099424 S    
C43   O26   1.366966 S    
C3    C30   1.621296 S    
C32   C36   1.553195 S    
C20   C60   1.521664 S    
C23   C39   1.600490 S    
C4    O14   1.402512 A    
O11   C7    1.433620 A    
C51   O41   1.218121 D    
C54   O47   1.207186 D    
O15   V3    2.099435 S    
C61   O62   1.395441 S    
C17   C33   1.597410 S    
C19   C47   1.522685 S    
C13   H1    1.105565 S    
C62   O64   1.396210 S    
C22   C62   1.531140 S    
C19   C35   1.599916 S    
O10   V2    2.118703 S    
C60   O60   1.392427 S    
O16   V4    2.105451 S    
C41   O21   1.221505 D    
O5    V1    2.118715 S    
C24   C64   1.535926 S    
C42   O24   1.366971 S    
C9    C49   1.518418 S    
C11   C27   1.629441 S    
O56   H34   1.009340 S    
O7    V3    2.107445 S    
C56   O52   1.400351 S    
H5    C33   1.107090 S    
O8    V4    2.118745 S    
C45   O29   1.215842 D    
C14   C30   1.592191 S    
C40   I4    2.091049 S    
O46   H29   1.009605 S    
O62   H37   1.011471 S    
C21   C25   1.574073 S    
O18   V4    1.889544 S    
C15   H3    1.101529 S    
C22   H10   1.084727 S    
C2    C31   1.621296 S    
C19   C59   1.512487 S    
C9    C13   1.616705 S    
C24   C28   1.574091 S    
C23   H11   1.084728 S    
C10   C42   1.527518 S    
C18   C26   1.640062 S    
C59   O58   1.394821 S    
C11   C15   1.611311 S    
O5    C1    1.419690 A    
C20   C36   1.597406 S    
C37   I5    2.161134 S    
O58   H35   1.009345 S    
C12   C16   1.616704 S    
O8    C4    1.419696 A    
C39   I3    2.167137 S    
O9    C5    1.415348 A    
C44   O27   1.221502 D    
C32   C40   1.590809 S    
O38   H25   1.001587 S    
C51   O42   1.394711 S    
C54   O48   1.390961 S    
H7    C35   1.100426 S    
C50   O39   1.218124 D    
C63   O66   1.396207 S    
C15   C55   1.486443 S    
C11   C43   1.527517 S    
C21   C61   1.535915 S    
O6    V2    2.107420 S    
C37   I1    2.091084 S    
C10   C50   1.527243 S    
C55   O49   1.207186 D    
C53   O45   1.209498 D    
C22   C26   1.584770 S    
C13   C53   1.514090 S    
C58   O56   1.394818 S    
O32   H22   1.010248 S    
C21   H9    1.100317 S    
O44   H28   1.001636 S    
C43   O25   1.224037 D    
C56   O51   1.209496 D    
O26   H19   1.004900 S    
C50   O40   1.394725 S    
C10   C26   1.629446 S    
C48   O35   1.215843 D    
C45   O30   1.400633 S    
C7    C25   1.619252 S    
C3    O13   1.422775 A    
C9    C25   1.617655 S    
O34   H23   1.010248 S    
C10   C14   1.611301 S    
C15   C31   1.592199 S    
C21   C37   1.598141 S    
C12   C28   1.617634 S    
C42   O23   1.224039 D    
C41   O22   1.373717 S    
O48   H30   1.008245 S    
O11   V3    2.118730 S    
C38   I6    2.141511 S    
O12   V4    2.107427 S    
C4    C29   1.609272 S    
C49   O37   1.219852 D    
C17   C57   1.521656 S    
O10   C6    1.433612 A    
C55   O50   1.390967 S    
C52   O43   1.219865 D    
C1    C32   1.609256 S    
C36   H16   1.110068 S    
O66   H39   1.006256 S    
C40   I8    2.161151 S    
C57   O53   1.217108 D    
C6    C28   1.619248 S    
O36   H24   1.014168 S    
C30   C34   1.565608 S    
C29   C33   1.553197 S    
C47   O34   1.403458 S    
O20   V2    1.889579 S    
C14   C54   1.486437 S    
C31   C35   1.565600 S    
C18   C34   1.599918 S    
H6    C34   1.100423 S    
O6    C2    1.402137 A    
C63   O65   1.217730 D    
O68   H40   1.011472 S    
C57   O54   1.392402 S    
C14   H2    1.101532 S    
C16   H4    1.105564 S    
C19   C27   1.640064 S    
C8    C26   1.607130 S    
C64   O67   1.214344 D    
C16   C32   1.595594 S    
C47   O33   1.211377 D    
O30   H21   1.014166 S    
C53   O46   1.400350 S    
C48   O36   1.400632 S    
C58   O55   1.214795 D    
C12   C52   1.518422 S    
C9    C41   1.498976 S    
O4    V2    2.105397 S    
O42   H27   1.002392 S    
C52   O44   1.401449 S    
