data_mof_unit_30134.cif
_audit_creation_date              2012-12-11T16:16:54-0500
_audit_creation_method            fapswitch 2.2
_symmetry_space_group_name_H-M    P1
_symmetry_Int_Tables_number       1
_space_group_crystal_system       triclinic
_cell_length_a                    13.271758
_cell_length_b                    13.276375
_cell_length_c                    28.61728
_cell_angle_alpha                 90.0
_cell_angle_beta                  89.998857
_cell_angle_gamma                 120.011738
_cell_volume                      4366.32007658

loop_
_atom_site_label
_atom_site_type_symbol
_atom_type_description
_atom_site_fract_x
_atom_site_fract_y
_atom_site_fract_z
_atom_type_partial_charge
C1    C     C_R   0.438805 0.549976 0.316454 0.542666
C2    C     C_R   0.550024 0.438666 0.683483 0.542600
C3    C     C_R   0.561126 0.110986 0.816307 0.550519
C4    C     C_R   0.888755 0.450031 0.683512 0.542296
C5    C     C_1   0.061219 0.526420 0.361874 0.075098
C6    C     C_1   0.464492 0.936271 0.138029 0.086653
C7    C     C_1   0.473949 0.534822 0.361760 0.072465
C8    C     C_1   0.063743 0.528217 0.138026 0.086644
C9    C     C_1   0.464732 0.937873 0.362024 0.074591
C10   C     C_1   0.471816 0.535573 0.138024 0.086638
C11   C     C_1   0.528184 0.063757 0.861976 0.086638
C12   C     C_R   0.110996 0.561149 0.183693 0.550524
C13   C     C_1   0.938781 0.465201 0.638126 0.075098
C14   C     C_1   0.535508 0.471779 0.861971 0.086652
C15   C     C_1   0.526051 0.060873 0.638240 0.072465
C16   C     C_1   0.936257 0.464474 0.861974 0.086644
C17   C     C_1   0.535268 0.473141 0.637976 0.074591
C18   C     C_R   0.005181 0.409058 0.475850 -0.105389
C19   C     C_R   0.406631 0.994121 0.024103 -0.107206
C20   C     C_R   0.594522 0.592540 0.475343 -0.133263
C21   C     C_R   0.005929 0.412571 0.024088 -0.107279
C22   C     C_R   0.399877 0.986994 0.476381 -0.146832
C23   C     C_R   0.449976 0.888642 0.316517 0.542599
C24   C     C_R   0.587456 0.593438 0.024074 -0.107210
C25   C     C_R   0.412546 0.005984 0.975926 -0.107211
C26   C     C_R   0.994818 0.403877 0.524150 -0.105389
C27   C     C_R   0.593370 0.587490 0.975897 -0.107205
C28   C     C_R   0.405479 0.998020 0.524657 -0.133263
C29   C     C_R   0.994069 0.406641 0.975911 -0.107280
C30   C     C_R   0.600124 0.587117 0.523619 -0.146833
C31   C     C_R   0.001775 0.591325 0.524866 0.256788
C32   C     C_R   0.601073 0.014890 0.975893 0.266887
C33   C     C_R   0.407475 0.412762 0.524902 0.245206
C34   C     C_R   0.438874 0.549860 0.183693 0.550521
C35   C     C_R   0.985146 0.586187 0.975898 0.266922
C36   C     C_R   0.591920 0.002622 0.524848 0.215003
C37   C     C_R   0.413770 0.398954 0.975903 0.266904
C38   C     C_R   0.586229 0.985183 0.024097 0.266904
C39   C     C_R   0.998226 0.589550 0.475134 0.256788
C40   C     C_R   0.398926 0.413817 0.024106 0.266887
C41   C     C_R   0.592525 0.005287 0.475098 0.245206
C42   C     C_R   0.014854 0.601041 0.024102 0.266922
C43   C     C_R   0.408079 0.410702 0.475152 0.215003
C44   C     C_R   0.006294 0.500335 0.451248 -0.028357
C45   C     C_R   0.111245 0.561276 0.316488 0.542296
C46   C     C_R   0.491963 0.983263 0.048224 -0.028573
C47   C     C_R   0.499977 0.505303 0.451033 -0.015994
C48   C     C_R   0.016774 0.508716 0.048220 -0.028600
C49   C     C_R   0.492522 0.991587 0.451508 -0.018053
C50   C     C_R   0.491290 0.508106 0.048215 -0.028584
C51   C     C_R   0.508710 0.016816 0.951785 -0.028585
C52   C     C_R   0.993706 0.494041 0.548752 -0.028357
C53   C     C_R   0.508038 0.491301 0.951776 -0.028574
C54   C     C_R   0.500023 0.005326 0.548967 -0.015994
C55   C     C_R   0.983226 0.491943 0.951780 -0.028600
C56   C     C_R   0.450165 0.889019 0.183694 0.550866
C57   C     C_R   0.507479 0.499065 0.548492 -0.018053
C58   C     C_1   0.969121 0.478176 0.597958 0.055989
C59   C     C_1   0.514096 0.037274 0.902479 0.060399
C60   C     C_1   0.522834 0.490329 0.597733 0.056164
C61   C     C_1   0.962756 0.476879 0.902475 0.060393
C62   C     C_1   0.508549 0.030250 0.598119 0.052387
C63   C     C_1   0.523100 0.485878 0.902471 0.060409
C64   C     C_1   0.476901 0.962779 0.097529 0.060409
C65   C     C_1   0.030879 0.509055 0.402042 0.055989
C66   C     C_1   0.485904 0.523177 0.097520 0.060399
C67   C     C_R   0.549835 0.438855 0.816306 0.550867
C68   C     C_1   0.477167 0.967496 0.402267 0.056164
C69   C     C_1   0.037244 0.514122 0.097525 0.060393
C70   C     C_1   0.491451 0.521701 0.401881 0.052387
C71   C     C_R   0.561195 0.111171 0.683546 0.542665
C72   C     C_R   0.889004 0.450154 0.816307 0.550524
Cr1   Cr    Cr6+3 0.505050 0.756260 0.250000 1.110184
Cr2   Cr    Cr6+3 0.251210 0.494950 0.250000 1.112228
Cr3   Cr    Cr6+3 0.243740 0.748790 0.250000 1.111556
Cr4   Cr    Cr6+3 0.756260 0.505050 0.750000 1.111556
Cr5   Cr    Cr6+3 0.494950 0.251210 0.750000 1.110184
Cr6   Cr    Cr6+3 0.748790 0.243740 0.750000 1.112228
H1    H     H_    0.011688 0.341178 0.457504 0.209773
H2    H     H_    0.335502 0.000396 0.543196 0.194113
H3    H     H_    0.990206 0.333586 0.957436 0.205362
H4    H     H_    0.676763 0.652512 0.541748 0.202109
H5    H     H_    0.095889 0.899208 0.547042 0.390298
H6    H     H_    0.912369 0.111181 0.965618 0.376993
H7    H     H_    0.097928 0.205395 0.547760 0.393117
H8    H     H_    0.888897 0.801104 0.965660 0.376905
H9    H     H_    0.681856 0.839371 0.521898 0.337283
H10   H     H_    0.198804 0.087727 0.965692 0.376901
H11   H     H_    0.801194 0.888922 0.034307 0.376900
H12   H     H_    0.333563 0.990265 0.042586 0.205294
H13   H     H_    0.904113 0.803319 0.452958 0.390298
H14   H     H_    0.087630 0.198814 0.034381 0.376993
H15   H     H_    0.902071 0.107466 0.452240 0.393117
H16   H     H_    0.111106 0.912209 0.034340 0.376906
H17   H     H_    0.318140 0.157514 0.478102 0.337282
H18   H     H_    0.664500 0.664894 0.456803 0.194114
H19   H     H_    0.009792 0.343379 0.042564 0.205362
H20   H     H_    0.323238 0.975751 0.458252 0.202108
H21   H     H_    0.656675 0.666527 0.042542 0.205316
H22   H     H_    0.343327 0.009854 0.957458 0.205317
H23   H     H_    0.988311 0.329490 0.542496 0.209773
H24   H     H_    0.666440 0.656702 0.957415 0.205294
O1    O     O_R   0.530190 0.870330 0.301660 -0.472588
O2    O     O_R   0.870330 0.530190 0.698340 -0.472365
O3    O     O_R   0.469810 0.340140 0.801660 -0.466494
O4    O     O_R   0.659860 0.129670 0.698340 -0.470295
O5    O     O_R   0.494300 0.651190 0.297490 -0.496280
O6    O     O_R   0.156890 0.505700 0.202510 -0.486793
O7    O     O_R   0.348810 0.843110 0.297490 -0.494839
O8    O     O_R   0.494300 0.651190 0.202510 -0.486873
O9    O     O_R   0.156890 0.505700 0.297490 -0.494681
O10   O     O_R   0.348810 0.843110 0.202510 -0.486636
O11   O     O_R   0.651190 0.494300 0.797490 -0.486636
O12   O     O_R   0.340140 0.469810 0.198340 -0.466505
O13   O     O_R   0.505700 0.156890 0.702510 -0.496281
O14   O     O_R   0.843110 0.348810 0.797490 -0.486793
O15   O     O_R   0.651190 0.494300 0.702510 -0.494839
O16   O     O_R   0.505700 0.156890 0.797490 -0.486874
O17   O     O_R   0.843110 0.348810 0.702510 -0.494681
O18   O     O_3   0.333333 0.666667 0.250000 -0.285503
O19   O     O_3   0.666667 0.333333 0.750000 -0.285503
O20   O     O_2   0.903575 0.698215 0.569411 -0.243930
O21   O     O_2   0.084991 0.724267 0.602517 -0.277923
O22   O     O_3   0.099014 0.838724 0.527859 -0.452021
O23   O     O_R   0.129670 0.659860 0.301660 -0.472364
O24   O     O_2   0.725105 0.952212 0.921628 -0.239039
O25   O     O_2   0.759323 0.149590 0.910532 -0.297122
O26   O     O_3   0.848128 0.110883 0.983361 -0.477284
O27   O     O_2   0.295308 0.209166 0.570357 -0.283876
O28   O     O_2   0.276568 0.369401 0.602816 -0.269785
O29   O     O_3   0.158817 0.269258 0.528788 -0.446976
O30   O     O_2   0.047856 0.772903 0.921650 -0.239158
O31   O     O_2   0.850411 0.609670 0.910543 -0.297102
O32   O     O_3   0.889117 0.737124 0.983385 -0.477305
O33   O     O_2   0.799099 0.110710 0.567959 -0.226603
O34   O     O_R   0.530190 0.870330 0.198340 -0.466494
O35   O     O_2   0.651278 0.928741 0.603070 -0.273748
O36   O     O_3   0.751416 0.916006 0.528169 -0.411848
O37   O     O_2   0.226967 0.274821 0.921672 -0.239135
O38   O     O_2   0.390259 0.240741 0.910559 -0.297105
O39   O     O_3   0.262795 0.151971 0.983413 -0.477267
O40   O     O_2   0.773032 0.047852 0.078327 -0.239137
O41   O     O_2   0.609738 0.850479 0.089440 -0.297104
O42   O     O_3   0.737201 0.889172 0.016587 -0.477267
O43   O     O_2   0.096427 0.794640 0.430588 -0.243931
O44   O     O_2   0.915010 0.639275 0.397482 -0.277923
O45   O     O_R   0.340140 0.469810 0.301660 -0.470296
O46   O     O_3   0.900988 0.739710 0.472141 -0.452020
O47   O     O_2   0.274892 0.227108 0.078372 -0.239040
O48   O     O_2   0.240676 0.390269 0.089468 -0.297122
O49   O     O_3   0.151870 0.262756 0.016639 -0.477282
O50   O     O_2   0.704689 0.913855 0.429643 -0.283876
O51   O     O_2   0.723433 0.092833 0.397185 -0.269786
O52   O     O_3   0.841183 0.110439 0.471212 -0.446976
O53   O     O_2   0.952146 0.725048 0.078350 -0.239158
O54   O     O_2   0.149590 0.759259 0.089457 -0.297101
O55   O     O_3   0.110885 0.848008 0.016616 -0.477305
O56   O     O_R   0.129670 0.659860 0.198340 -0.466553
O57   O     O_2   0.200900 0.311611 0.432042 -0.226603
O58   O     O_2   0.348719 0.277462 0.396930 -0.273748
O59   O     O_3   0.248581 0.164589 0.471831 -0.411847
O60   O     O_R   0.870330 0.530190 0.801660 -0.466554
O61   O     O_R   0.469810 0.340140 0.698340 -0.472588
O62   O     O_R   0.659860 0.129670 0.801660 -0.466504
S1    S     S_3+6 0.021130 0.714155 0.557800 0.076377
S2    S     S_3+6 0.716548 0.029514 0.441687 0.055798
S3    S     S_3+6 0.056879 0.734860 0.053841 0.061172
S4    S     S_3+6 0.299721 0.290410 0.442437 0.080807
S5    S     S_3+6 0.734929 0.056904 0.946143 0.061201
S6    S     S_3+6 0.283451 0.312967 0.558313 0.055799
S7    S     S_3+6 0.943123 0.677983 0.946159 0.061171
S8    S     S_3+6 0.700278 0.990688 0.557563 0.080808
S9    S     S_3+6 0.321935 0.265099 0.946177 0.061177
S10   S     S_3+6 0.678063 0.943161 0.053823 0.061178
S11   S     S_3+6 0.978871 0.693025 0.442199 0.076377
S12   S     S_3+6 0.265070 0.321976 0.053856 0.061202

loop_
_geom_bond_atom_site_label_1
_geom_bond_atom_site_label_2
_ccdc_geom_bond_type
H6    O26   S    
O48   S12   D    
C32   S5    S    
O29   S6    S    
Cr6   O62   S    
C22   H20   S    
C49   C68   S    
O51   S2    D    
C24   H21   S    
C35   S7    S    
Cr4   O60   S    
C16   C72   S    
C24   C27   A    
C31   C52   A    
O55   S3    S    
C7    C70   T    
C44   C65   S    
C19   C46   A    
Cr1   O8    S    
O40   S10   D    
C20   C30   A    
C43   S4    S    
Cr3   O10   S    
C36   C54   A    
Cr4   O19   S    
H15   O52   S    
C37   C40   A    
C26   C52   A    
H17   O59   S    
C26   H23   S    
Cr1   O5    S    
Cr2   O12   S    
C30   C57   A    
C55   C61   S    
O57   S4    D    
C6    C64   T    
C4    C13   S    
C35   C42   A    
Cr6   O19   S    
O35   S8    D    
H8    O32   S    
C23   O1    A    
C31   S1    S    
O53   S3    D    
C18   H1    S    
C18   C26   A    
C14   C67   S    
C4    O17   A    
O30   S7    D    
C32   C38   A    
H5    O22   S    
C48   C69   S    
C21   C48   A    
C37   C53   A    
C20   H18   S    
O26   S5    S    
Cr1   O18   S    
C22   C28   A    
O44   S11   D    
C2    C17   S    
O39   S9    S    
Cr2   O6    S    
C36   C41   A    
H14   O49   S    
C11   C59   T    
C33   S6    S    
C41   C49   A    
H13   O46   S    
C56   O34   A    
C2    O15   A    
C10   C66   T    
C24   C50   A    
C34   O12   A    
C23   O7    A    
Cr6   O14   S    
C36   S8    S    
O46   S11   S    
Cr3   O7    S    
O36   S8    S    
Cr5   O61   S    
C33   C43   A    
O43   S11   D    
Cr2   O45   S    
Cr5   O19   S    
C39   S11   S    
Cr5   O16   S    
C45   O23   A    
Cr2   O9    S    
C12   O6    A    
C28   C54   A    
O38   S9    D    
C57   C60   S    
C13   C58   T    
C54   C62   S    
O54   S3    D    
C21   C29   A    
C35   C55   A    
O22   S1    S    
C46   C64   S    
Cr3   O23   S    
C30   H4    S    
Cr4   O2    S    
C25   C51   A    
C47   C70   S    
C29   H3    S    
C3    O16   A    
C18   C44   A    
C21   H19   S    
O27   S6    D    
C25   H22   S    
Cr1   O34   S    
C8    C12   S    
C41   S2    S    
C38   S10   S    
C45   O9    A    
Cr4   O11   S    
C8    C69   T    
C71   O13   A    
C10   C34   S    
C42   C48   A    
O33   S8    D    
C28   H2    S    
C50   C66   S    
C52   C58   S    
C3    O62   A    
C1    O5    A    
C22   C49   A    
Cr3   O56   S    
C5    C65   T    
H16   O55   S    
O32   S7    S    
C34   O8    A    
C1    O45   A    
C51   C59   S    
C16   C61   T    
H9    O36   S    
H10   O39   S    
C15   C71   S    
C42   S3    S    
C40   S12   S    
C32   C51   A    
C33   C57   A    
O49   S12   S    
C1    C7    S    
C9    C23   S    
Cr3   O18   S    
C6    C56   S    
C2    O61   A    
O50   S2    D    
C27   C53   A    
C39   C44   A    
O24   S5    D    
O25   S5    D    
H11   O42   S    
C29   C55   A    
C72   O14   A    
C27   H24   S    
Cr4   O15   S    
Cr6   O4    S    
O47   S12   D    
Cr5   O3    S    
Cr6   O17   S    
O31   S7    D    
C9    C68   T    
C19   H12   S    
H7    O29   S    
C53   C63   S    
C5    C45   S    
O28   S6    D    
C40   C50   A    
C14   C63   T    
C4    O2    A    
C15   C62   T    
C31   C39   A    
O58   S4    D    
C67   O11   A    
C19   C25   A    
O37   S9    D    
C38   C46   A    
O59   S4    S    
C3    C11   S    
C17   C60   T    
C37   S9    S    
Cr2   O18   S    
O21   S1    D    
Cr1   O1    S    
C67   O3    A    
C71   O4    A    
O42   S10   S    
O20   S1    D    
C72   O60   A    
O52   S2    S    
O41   S10   D    
C12   O56   A    
Cr5   O13   S    
C43   C47   A    
C56   O10   A    
C20   C47   A    
