data_mof_unit_32785.cif
_audit_creation_date              2013-03-05T16:22:16-0500
_audit_creation_method            fapswitch 2.2
_symmetry_space_group_name_H-M    P1
_symmetry_Int_Tables_number       1
_space_group_crystal_system       triclinic
_cell_length_a                    10.593412
_cell_length_b                    10.505206
_cell_length_c                    9.852484
_cell_angle_alpha                 90.148535
_cell_angle_beta                  89.312229
_cell_angle_gamma                 90.856392
_cell_volume                      1096.2386382

loop_
_atom_site_label
_atom_site_type_symbol
_atom_site_description
_atom_site_fract_x
_atom_site_fract_y
_atom_site_fract_z
_atom_type_partial_charge
O1    O     O_R   0.500010 0.313960 0.616610 -0.630569
O2    O     O_R   0.499990 0.686040 0.383390 -0.630567
O3    O     O_R   0.500060 0.313950 0.383350 -0.555802
O4    O     O_R   0.499940 0.686050 0.616650 -0.555822
C1    C     C_R   0.501413 0.258165 0.499790 0.985781
C2    C     C_R   0.498584 0.741834 0.500209 0.985765
O5    O     O_R   0.313930 0.499970 0.616610 -0.609829
O6    O     O_R   0.686070 0.500030 0.383390 -0.609831
O7    O     O_R   0.313980 0.499960 0.383350 -0.620737
O8    O     O_R   0.686020 0.500040 0.616650 -0.620761
C3    C     C_R   0.258302 0.499953 0.500879 0.977910
C4    C     C_R   0.741698 0.500049 0.499121 0.977900
Zn1   Zn    Zn3+2 0.499970 0.500010 0.655740 1.023038
Zn2   Zn    Zn3+2 0.500030 0.499990 0.344260 1.023037
C5    C     C_3   0.037578 0.484783 0.628847 0.072872
C6    C     C_3   0.962421 0.515221 0.371152 0.072865
C7    C     C_3   0.956416 0.389981 0.547892 0.305010
C8    C     C_3   0.043583 0.610022 0.452108 0.305023
C9    C     C_3   0.875975 0.499647 0.497263 -0.199618
C10   C     C_3   0.124024 0.500356 0.502736 -0.199618
C11   C     C_3   0.957176 0.595677 0.577491 -0.021264
C12   C     C_3   0.042823 0.404326 0.422509 -0.021275
C13   C     C_3   0.509453 0.042889 0.629215 -0.172938
C14   C     C_3   0.490538 0.957110 0.370782 -0.172970
C15   C     C_3   0.607649 0.957602 0.555763 -0.225927
C16   C     C_3   0.392343 0.042398 0.444233 -0.225929
H1    H     H_    0.695891 0.922023 0.600218 0.215463
H2    H     H_    0.304100 0.077975 0.399779 0.215473
H3    H     H_    0.515514 0.079555 0.734794 0.226548
H4    H     H_    0.484477 0.920444 0.265203 0.226504
C17   C     C_3   0.497782 0.876519 0.500556 -0.179602
C18   C     C_3   0.502210 0.123480 0.499441 -0.179623
C19   C     C_3   0.401919 0.960407 0.572150 0.374698
C20   C     C_3   0.598071 0.039592 0.427845 0.374680
C21   C     C_3   0.486144 0.387736 0.046657 0.397797
C22   C     C_3   0.513855 0.612264 0.953339 0.397766
C23   C     C_3   0.590682 0.432569 0.950899 0.056563
C24   C     C_3   0.409318 0.567431 0.049099 0.056555
N1    N     N_3   0.499910 0.500030 0.863290 -0.140206
N2    N     N_3   0.500090 0.499970 0.136710 -0.140204
C25   C     C_3   0.394252 0.453369 0.952034 -0.243376
C26   C     C_3   0.605748 0.546632 0.047966 -0.243437
H5    H     H_    0.307564 0.410412 0.909107 0.170822
H6    H     H_    0.692436 0.589589 0.090893 0.170842
N3    N     N_R   0.911903 0.267291 0.600091 0.226958
O9    O     O_R   0.992974 0.183371 0.638503 -0.319409
O10   O     O_R   0.792084 0.239568 0.605848 -0.412969
N4    N     N_R   0.088094 0.732712 0.399905 0.226968
O11   O     O_R   0.007022 0.816634 0.361503 -0.319407
O12   O     O_R   0.207914 0.760427 0.394122 -0.412968
C27   C     C_3   0.075564 0.465950 0.775724 -0.769641
H7    H     H_    0.990144 0.461698 0.841775 0.225565
H8    H     H_    0.126746 0.375151 0.784649 0.263033
H9    H     H_    0.136596 0.546674 0.808926 0.258553
C28   C     C_3   0.924436 0.534054 0.224276 -0.769643
H10   H     H_    0.009857 0.538308 0.158226 0.225566
H11   H     H_    0.863406 0.453329 0.191072 0.258548
H12   H     H_    0.873252 0.624853 0.215351 0.263036
C29   C     C_3   0.909794 0.704918 0.664652 -0.640102
H13   H     H_    0.991219 0.761215 0.703411 0.285021
H14   H     H_    0.849743 0.766918 0.602670 0.238136
H15   H     H_    0.854136 0.666412 0.751706 0.249808
C30   C     C_3   0.090201 0.295085 0.335347 -0.640083
H16   H     H_    0.008774 0.238783 0.296599 0.285010
H17   H     H_    0.145847 0.333592 0.248284 0.249815
H18   H     H_    0.150262 0.233091 0.397323 0.238139
N5    N     N_R   0.292603 0.919631 0.653316 0.257806
O13   O     O_R   0.219211 0.004685 0.706919 -0.317452
O14   O     O_R   0.269209 0.799663 0.675871 -0.357470
N6    N     N_R   0.707384 0.080366 0.346672 0.257756
O15   O     O_R   0.780786 0.995312 0.293088 -0.317465
O16   O     O_R   0.730748 0.200331 0.324066 -0.357531
C31   C     C_3   0.697937 0.353503 0.894087 -0.629274
H19   H     H_    0.750101 0.309996 0.978792 0.243438
H20   H     H_    0.659210 0.277044 0.828269 0.278253
H21   H     H_    0.764468 0.415088 0.835724 0.232039
C32   C     C_3   0.302065 0.646500 0.105911 -0.629296
H22   H     H_    0.249887 0.689989 0.021204 0.243451
H23   H     H_    0.235542 0.584923 0.164293 0.232066
H24   H     H_    0.340796 0.722973 0.171708 0.278218
N7    N     N_R   0.465990 0.260054 0.100868 0.231543
O17   O     O_R   0.548200 0.171663 0.077781 -0.344156
O18   O     O_R   0.358667 0.230203 0.158593 -0.406165
N8    N     N_R   0.533985 0.739941 0.899107 0.231523
O19   O     O_R   0.451622 0.828245 0.921902 -0.344074
O20   O     O_R   0.641359 0.769859 0.841531 -0.406148

loop_
_geom_bond_atom_site_label_1
_geom_bond_atom_site_label_2
_geom_bond_distance
_ccdc_geom_bond_type
C15   C17   1.535951 S    
C28   H10   1.108657 S    
C30   H17   1.108806 S    
C16   C18   1.535951 S    
C8    C11   1.535026 S    
C25   H5    1.105345 S    
C31   H19   1.109661 S    
C22   C26   1.528859 S    
N7    O17   1.300286 A    
C21   N7    1.456862 S    
N1    C25   1.489922 S    
C32   H22   1.109660 S    
O5    C3    1.289777 A    
O1    C1    1.290290 A    
C13   H3    1.110555 S    
C9    C11   1.539052 S    
C14   C16   1.554005 S    
C11   C29   1.519255 S    
O4    Zn1   1.992959 S    
N3    O10   1.298635 A    
C23   C26   1.538794 S    
C12   C30   1.519252 S    
C13   C19   1.532287 S    
C6    C12   1.543269 S    
C17   C19   1.520448 S    
N6    O15   1.300072 A    
C5    C27   1.520860 S    
C20   N6    1.459023 S    
C15   C20   1.533580 S    
C1    C18   1.415042 S    
N4    O12   1.298635 A    
C2    C17   1.415041 S    
C30   H18   1.107066 S    
C29   H13   1.109557 S    
C31   H20   1.108069 S    
O2    C2    1.290286 A    
C26   H6    1.105346 S    
O2    Zn2   1.991180 S    
N7    O18   1.299662 A    
C32   H23   1.106571 S    
C5    C10   1.542229 S    
C3    C10   1.422425 S    
C29   H14   1.107066 S    
Zn1   N1    2.044874 S    
N5    O13   1.300070 A    
N8    O19   1.300254 A    
C24   C25   1.538777 S    
O4    C2    1.289921 A    
N3    O9    1.300067 A    
C14   C20   1.532284 S    
C27   H7    1.108656 S    
N5    O14   1.299969 A    
C18   C20   1.520450 S    
O7    Zn2   2.003635 S    
C16   C19   1.533576 S    
C5    C11   1.543271 S    
O6    C4    1.289775 A    
O7    C3    1.293196 A    
O3    Zn2   1.992959 S    
O8    C4    1.293195 A    
N4    O11   1.300066 A    
C10   C12   1.539052 S    
C28   H11   1.109686 S    
C31   H21   1.106571 S    
O1    Zn1   1.991179 S    
C19   N5    1.459023 S    
C32   H24   1.108072 S    
C5    C7    1.534270 S    
C23   C31   1.518123 S    
C29   H15   1.108807 S    
O6    Zn2   2.012683 S    
C21   C23   1.516550 S    
C22   N1    1.480413 S    
C7    N3    1.458602 S    
O3    C1    1.289917 A    
O8    Zn1   2.003634 S    
C8    N4    1.458602 S    
C24   C32   1.518121 S    
C15   H1    1.107467 S    
C16   H2    1.107467 S    
C7    C12   1.535024 S    
C27   H9    1.109685 S    
C13   C18   1.538632 S    
C22   C24   1.516558 S    
C21   N2    1.480430 S    
C14   C17   1.538631 S    
C23   N1    1.488428 S    
C24   N2    1.488438 S    
C22   N8    1.456849 S    
C6    C9    1.542224 S    
C4    C9    1.422421 S    
N2    C26   1.489932 S    
C7    C9    1.531257 S    
C8    C10   1.531261 S    
C13   C15   1.554008 S    
C21   C25   1.528836 S    
C14   H4    1.110555 S    
C6    C28   1.520859 S    
Zn2   N2    2.044874 S    
C30   H16   1.109557 S    
O5    Zn1   2.012684 S    
C6    C8    1.534269 S    
C28   H12   1.108427 S    
N8    O20   1.299663 A    
N6    O16   1.299968 A    
C27   H8    1.108426 S    
