data_mof_unit_45014.cif
_audit_creation_date              2012-12-10T17:26:14-0500
_audit_creation_method            fapswitch 2.2
_symmetry_space_group_name_H-M    P1
_symmetry_Int_Tables_number       1
_space_group_crystal_system       triclinic
_cell_length_a                    10.079338
_cell_length_b                    10.841571
_cell_length_c                    27.678599
_cell_angle_alpha                 90.032686
_cell_angle_beta                  82.107883
_cell_angle_gamma                 95.146111
_cell_volume                      2983.66715765

loop_
_atom_site_label
_atom_site_type_symbol
_atom_type_description
_atom_site_fract_x
_atom_site_fract_y
_atom_site_fract_z
_atom_type_partial_charge
C1    C     C_R   0.556038 0.732597 0.495548 0.950061
C2    C     C_R   0.558463 0.604192 0.124096 -0.024445
C3    C     C_R   0.505827 0.502024 0.646528 -0.099878
C4    C     C_R   0.494078 0.500182 0.353468 -0.104205
C5    C     C_R   0.549249 0.615582 0.022914 0.070277
C6    C     C_R   0.419991 0.413629 0.978218 0.073646
C7    C     C_R   0.396576 0.424206 0.029567 -0.100790
C8    C     C_R   0.539597 0.622085 0.972538 -0.102867
C9    C     C_R   0.473005 0.518930 0.051551 0.025748
C10   C     C_R   0.486856 0.515188 0.949866 0.026216
C11   C     C_R   0.636290 0.699752 0.045199 -0.194154
C12   C     C_R   0.443808 0.267395 0.502024 0.951791
C13   C     C_R   0.383604 0.303464 0.954370 -0.202052
C14   C     C_R   0.640645 0.694176 0.095068 -0.177634
C15   C     C_R   0.400382 0.297459 0.903830 -0.177516
C16   C     C_R   0.501565 0.500274 0.593971 0.906413
C17   C     C_R   0.498451 0.499985 0.406023 0.897990
C18   C     C_R   0.578958 0.731396 0.943799 0.457634
C19   C     C_R   0.299760 0.344774 0.060065 0.451282
C20   C     C_2   0.587660 0.864196 0.489041 -0.368854
C21   C     C_2   0.411588 0.135736 0.499230 -0.371735
C22   C     C_2   0.486542 0.934012 0.486701 -0.142898
C23   C     C_R   0.500017 0.510163 0.898546 -0.064073
C24   C     C_2   0.511672 0.065797 0.485215 -0.146134
C25   C     C_2   0.927205 0.509969 0.503986 -0.126354
C26   C     C_2   0.072793 0.490023 0.496018 -0.129257
C27   C     C_R   0.567455 0.607582 0.819388 0.503181
C28   C     C_R   0.395964 0.423669 0.181802 0.517581
C29   C     C_R   0.467106 0.399025 0.824748 0.580492
C30   C     C_R   0.560052 0.598328 0.174447 0.571313
C31   C     C_R   0.633546 0.502818 0.714403 -0.169846
C32   C     C_R   0.374360 0.534937 0.285433 -0.173982
C33   C     C_R   0.629506 0.502509 0.664478 -0.217425
C34   C     C_R   0.473695 0.516736 0.102435 -0.065242
C35   C     C_R   0.378438 0.532824 0.335325 -0.217095
C36   C     C_R   0.386325 0.502832 0.679111 -0.319116
C37   C     C_R   0.604966 0.468058 0.321074 -0.309114
C38   C     C_R   0.390099 0.506238 0.729378 0.542792
C39   C     C_R   0.599942 0.467416 0.270949 0.528409
C40   C     C_R   0.514366 0.503200 0.746775 0.221440
C41   C     C_R   0.485008 0.503352 0.253208 0.211224
C42   C     C_3   0.207601 0.608454 0.761510 0.056006
C43   C     C_3   0.257891 0.700047 0.798608 -0.376646
C44   C     C_3   0.172012 0.809253 0.805942 -0.884661
C45   C     C_R   0.557294 0.614108 0.870191 -0.104750
C46   C     C_3   0.705674 0.308915 0.234466 0.054609
C47   C     C_3   0.817568 0.277496 0.194618 -0.327774
C48   C     C_3   0.818417 0.137885 0.187803 -0.914516
C49   C     C_3   0.465845 0.883036 0.984970 0.097018
C50   C     C_3   0.390933 0.937096 0.946382 -0.386239
C51   C     C_3   0.248237 0.961711 0.968040 -0.940848
C52   C     C_3   0.103000 0.341738 0.026413 0.093093
C53   C     C_3   0.986623 0.353716 0.067469 -0.380916
C54   C     C_3   0.877638 0.425822 0.050483 -0.914554
C55   C     C_R   0.390545 0.426508 0.131596 -0.097415
C56   C     C_R   0.594834 0.724282 0.893091 -0.219674
C57   C     C_R   0.301831 0.343459 0.110302 -0.214585
C58   C     C_R   0.455710 0.401133 0.875602 -0.011842
H1    H     H_    0.289923 0.499122 0.665774 0.172096
H2    H     H_    0.231168 0.278520 0.132629 0.203997
H3    H     H_    0.291660 0.558139 0.359594 0.175767
H4    H     H_    0.723059 0.502241 0.640003 0.170312
H5    H     H_    0.285606 0.562055 0.271662 0.167818
H6    H     H_    0.729122 0.501899 0.728066 0.162898
H7    H     H_    0.709158 0.760438 0.110724 0.192241
H8    H     H_    0.369268 0.211367 0.887002 0.188825
H9    H     H_    0.098221 0.583443 0.772326 0.186637
H10   H     H_    0.218437 0.653567 0.724810 0.123675
H11   H     H_    0.255609 0.651950 0.834226 0.234620
H12   H     H_    0.695152 0.442958 0.334419 0.177229
H13   H     H_    0.363117 0.736035 0.785355 0.247696
H14   H     H_    0.174060 0.859586 0.770863 0.272406
H15   H     H_    0.212349 0.874171 0.832560 0.269459
H16   H     H_    0.066432 0.776471 0.820387 0.267412
H17   H     H_    0.607410 0.270071 0.223996 0.159774
H18   H     H_    0.721439 0.265565 0.269487 0.145484
H19   H     H_    0.802199 0.321034 0.159761 0.228284
H20   H     H_    0.916542 0.315615 0.204259 0.244396
H21   H     H_    0.834101 0.092314 0.222248 0.276629
H22   H     H_    0.901541 0.118513 0.158909 0.264476
H23   H     H_    0.308436 0.095958 0.509015 0.152879
H24   H     H_    0.721776 0.098507 0.176649 0.271092
H25   H     H_    0.706073 0.767482 0.024249 0.199563
H26   H     H_    0.346734 0.219383 0.974302 0.204788
H27   H     H_    0.483114 0.955866 0.012241 0.170406
H28   H     H_    0.401458 0.806050 0.005469 0.140544
H29   H     H_    0.447200 0.024832 0.931596 0.230831
H30   H     H_    0.384168 0.871671 0.915755 0.229122
H31   H     H_    0.187187 0.872796 0.978269 0.267404
H32   H     H_    0.200390 0.010401 0.940635 0.269852
H33   H     H_    0.249436 0.019945 0.001013 0.285192
H34   H     H_    0.691289 0.904030 0.486800 0.152114
H35   H     H_    0.062704 0.292816 0.995505 0.175245
H36   H     H_    0.145247 0.435469 0.012211 0.132695
H37   H     H_    0.941940 0.259757 0.079917 0.237885
H38   H     H_    0.025034 0.402430 0.098779 0.224199
H39   H     H_    0.919578 0.520944 0.038625 0.265725
H40   H     H_    0.794692 0.432848 0.080930 0.269693
H41   H     H_    0.835718 0.377801 0.019709 0.267199
H42   H     H_    0.615107 0.105154 0.475490 0.188199
H43   H     H_    0.382639 0.894600 0.489036 0.189181
H44   H     H_    0.109161 0.422716 0.469527 0.164978
H45   H     H_    0.890834 0.577266 0.530482 0.161417
H46   H     H_    0.119839 0.614359 0.544904 0.162358
H47   H     H_    0.880158 0.385644 0.455094 0.162829
H48   H     H_    0.629740 0.807734 0.871865 0.210842
N1    N     N_R   0.519255 0.502303 0.798005 -0.340922
N2    N     N_R   0.480499 0.508310 0.201959 -0.341296
N3    N     N_2   0.842700 0.448890 0.480020 -0.194926
N4    N     N_2   0.157300 0.551110 0.519980 -0.197064
O1    O     O_R   0.431060 0.692470 0.504020 -0.613198
O2    O     O_2   0.318520 0.336530 0.210265 -0.578052
O3    O     O_2   0.639740 0.682109 0.195908 -0.542890
O4    O     O_2   0.425200 0.295351 0.802071 -0.540433
O5    O     O_3   0.272256 0.497867 0.761991 -0.629719
O6    O     O_3   0.710173 0.438836 0.238938 -0.625227
O7    O     O_3   0.593379 0.848120 0.963969 -0.659307
O8    O     O_3   0.199635 0.269277 0.042231 -0.672404
O9    O     O_R   0.568940 0.307530 0.495980 -0.612324
O10   O     O_R   0.651120 0.659650 0.491200 -0.612048
O11   O     O_R   0.348880 0.340350 0.508800 -0.611645
O12   O     O_R   0.389980 0.516390 0.577660 -0.614532
O13   O     O_R   0.610020 0.483610 0.422340 -0.615251
O14   O     O_R   0.610040 0.483570 0.564830 -0.618790
O15   O     O_R   0.389960 0.516430 0.435170 -0.622936
O16   O     O_2   0.621918 0.706414 0.791548 -0.578226
Zn1   Zn    Zn3+2 0.353060 0.521910 0.508560 0.945566
Zn2   Zn    Zn3+2 0.646940 0.478090 0.491440 0.948128

loop_
_geom_bond_atom_site_label_1
_geom_bond_atom_site_label_2
_ccdc_geom_bond_type
C23   C58   A    
C38   C40   A    
C29   O4    S    
C23   C45   A    
C41   N2    S    
C53   H37   S    
C36   H1    S    
C17   O15   A    
C46   H18   S    
C39   C41   A    
C53   C54   S    
C28   O2    S    
C20   H34   S    
C13   H26   S    
C22   H43   S    
C48   H21   S    
O11   Zn1   S    
C51   H32   S    
C27   O16   S    
C3    C33   A    
C31   C40   A    
O12   Zn1   S    
C16   O12   A    
C51   H33   S    
C17   O13   A    
C49   O7    S    
C12   O11   A    
C19   O8    S    
C33   H4    S    
C32   C41   A    
C31   C33   A    
C54   H39   S    
C52   H36   S    
C26   N4    D    
C50   H30   S    
N4    Zn1   S    
O14   Zn2   S    
O9    Zn2   S    
C27   C45   A    
C4    C35   A    
C34   C55   A    
C43   H11   S    
C37   H12   S    
C53   H38   S    
C42   H10   S    
C31   H6    S    
C46   H17   S    
C28   C55   A    
C32   C35   A    
C49   H27   S    
C45   C56   A    
C26   H44   S    
C25   H45   S    
C57   H2    S    
C11   H25   S    
C25   C26   S    
C15   H8    S    
C12   C21   S    
C19   C57   A    
C1    O10   A    
C43   C44   S    
C5    C9    A    
C25   N3    D    
C12   O9    A    
N3    Zn2   S    
C47   C48   S    
C27   N1    A    
C50   C51   S    
C52   H35   S    
C35   H3    S    
C4    C37   A    
C44   H16   S    
C18   O7    S    
C56   H48   S    
C50   H29   S    
C40   N1    S    
C4    C17   S    
C20   C22   D    
C49   C50   S    
C7    C19   A    
C55   C57   A    
O1    Zn1   S    
C42   H9    S    
C15   C58   A    
C22   C24   S    
C54   H41   S    
C42   C43   S    
C47   H19   S    
C52   C53   S    
C7    C9    A    
H47   N3    S    
C46   C47   S    
C1    C20   S    
C43   H13   S    
C30   N2    A    
C24   H42   S    
C49   H28   S    
C29   N1    A    
C32   H5    S    
C21   H23   S    
C6    C10   A    
C5    C8    A    
O10   Zn2   S    
C5    C11   A    
C6    C7    A    
C18   C56   A    
C10   C23   A    
C46   O6    S    
C2    C30   A    
C48   H22   S    
C13   C15   A    
C16   O14   A    
C37   C39   A    
C1    O1    A    
C6    C13   A    
H46   N4    S    
C38   O5    S    
C2    C34   A    
O13   Zn2   S    
C9    C34   A    
C3    C36   A    
C28   N2    A    
C36   C38   A    
C11   C14   A    
C14   H7    S    
C48   H24   S    
C44   H14   S    
C44   H15   S    
C2    C14   A    
C8    C18   A    
C42   O5    S    
C29   C58   A    
C8    C10   A    
C39   O6    S    
C21   C24   D    
O15   Zn1   S    
C54   H40   S    
C47   H20   S    
C51   H31   S    
C3    C16   S    
C30   O3    S    
C52   O8    S    
