data_mof_unit_53499.cif
_audit_creation_date              2012-12-11T17:01:36-0500
_audit_creation_method            fapswitch 2.2
_symmetry_space_group_name_H-M    P1
_symmetry_Int_Tables_number       1
_space_group_crystal_system       triclinic
_cell_length_a                    14.982286
_cell_length_b                    15.012887
_cell_length_c                    15.020967
_cell_angle_alpha                 110.076387
_cell_angle_beta                  109.331243
_cell_angle_gamma                 109.775468
_cell_volume                      2575.79211373

loop_
_atom_site_label
_atom_site_type_symbol
_atom_type_description
_atom_site_fract_x
_atom_site_fract_y
_atom_site_fract_z
_atom_type_partial_charge
C1    C     C_R   0.004650 0.804259 0.096976 0.440213
C2    C     C_R   0.701576 0.125694 0.704012 -0.019877
C3    C     C_R   0.954914 0.498212 0.674313 -0.092632
C4    C     C_R   0.673441 0.497357 0.947965 0.130036
C5    C     C_R   0.989484 0.589487 0.296681 0.284402
C6    C     C_R   0.202373 0.408973 0.894108 0.427063
C7    C     C_R   0.314237 0.745588 0.221192 -0.107530
C8    C     C_R   0.981936 0.262427 0.072788 -0.040935
C9    C     C_R   0.069555 0.254522 0.977454 -0.138401
C10   C     C_R   0.224081 0.744307 0.313462 -0.112965
C11   C     C_R   0.901078 0.407042 0.204219 -0.159159
C12   C     C_R   0.792260 0.191652 0.703617 -0.121917
C13   C     C_R   0.292635 0.591359 0.984141 0.231651
C14   C     C_R   0.925857 0.496605 0.294111 0.062273
C15   C     C_R   0.292073 0.499700 0.916923 0.076875
C16   C     C_R   0.326346 0.769289 0.323076 0.041072
C17   C     C_R   0.055316 0.233243 0.056176 0.143412
C18   C     C_3   0.467586 0.384796 0.838964 -0.705039
C19   C     C_3   0.362879 0.388761 0.824611 0.409056
C20   C     C_3   0.574851 0.523817 0.048573 0.766810
C21   C     C_3   0.564433 0.588995 0.909953 0.104544
C22   C     C_3   0.571504 0.497695 0.935174 0.039759
C23   C     C_R   0.029485 0.591416 0.777093 -0.194504
C24   C     C_3   0.392999 0.498833 0.921523 -0.029503
C25   C     C_3   0.463286 0.513593 0.036301 0.669026
C26   C     C_3   0.464010 0.594886 0.911787 -0.402967
C27   C     C_R   0.622190 0.968541 0.520801 0.083649
C28   C     C_R   0.621421 0.008591 0.619451 0.093079
C29   C     C_R   0.528604 0.945470 0.621417 -0.189585
C30   C     C_R   0.434803 0.854587 0.524824 -0.196835
C31   C     C_R   0.431279 0.825606 0.424124 0.078523
C32   C     C_R   0.527776 0.878762 0.423870 0.068894
C33   C     C_3   0.590115 0.827639 0.391010 -0.490653
C34   C     C_R   0.684938 0.406429 0.931775 -0.124334
C35   C     C_3   0.693161 0.925083 0.496235 0.038155
C36   C     C_R   0.968344 0.440909 0.424601 -0.069100
C37   C     C_R   0.916085 0.489816 0.382935 -0.016224
C38   C     C_R   0.856979 0.526561 0.427402 0.291868
C39   C     C_R   0.869532 0.530403 0.525826 -0.242444
C40   C     C_R   0.936668 0.494958 0.574061 0.028027
C41   C     C_R   0.978945 0.443881 0.518888 0.070441
C42   C     C_3   0.092286 0.460773 0.559343 -0.523798
C43   C     C_3   0.081287 0.458275 0.453908 0.395755
C44   C     C_R   0.996895 0.997278 0.097655 0.054562
C45   C     C_R   0.937757 0.407112 0.685490 0.555629
C46   C     C_R   0.077247 0.973717 0.087868 -0.013652
C47   C     C_R   0.169153 0.053602 0.096608 0.520566
C48   C     C_R   0.168387 0.147203 0.095813 -0.382581
C49   C     C_R   0.077967 0.159526 0.087766 0.091030
C50   C     C_R   0.997002 0.087219 0.094802 -0.054669
C51   C     C_3   0.874283 0.029888 0.026672 0.266924
C52   C     C_3   0.871702 0.929778 0.032850 0.400209
C53   C     C_R   0.776710 0.590163 0.022419 -0.101944
C54   C     C_R   0.704713 0.192485 0.797232 0.337343
C55   C     C_R   0.088633 0.802305 0.999699 -0.206793
C56   C     C_R   0.057804 0.864405 0.061092 0.079466
H1    H     H_    0.377103 0.753725 0.199488 0.133539
H2    H     H_    0.953109 0.256113 0.128518 0.102775
H3    H     H_    0.120847 0.239972 0.944852 0.130875
H4    H     H_    0.205259 0.750701 0.377647 0.117000
H5    H     H_    0.844669 0.321643 0.173211 0.114873
H6    H     H_    0.463287 0.316164 0.853225 0.129873
H7    H     H_    0.470054 0.362028 0.761536 0.244159
H8    H     H_    0.825025 0.160868 0.654146 0.167988
H9    H     H_    0.310266 0.315758 0.824084 0.112740
H10   H     H_    0.638576 0.670543 0.975788 0.163075
H11   H     H_    0.412560 0.593700 0.837835 0.221929
H12   H     H_    0.497417 0.675554 0.983958 0.188690
H13   H     H_    0.522678 0.967408 0.694073 0.149018
H14   H     H_    0.066752 0.676092 0.796882 0.136502
H15   H     H_    0.362540 0.813395 0.528626 0.123114
H16   H     H_    0.565461 0.746880 0.386791 0.215716
H17   H     H_    0.589423 0.825971 0.316219 0.203343
H18   H     H_    0.751716 0.978693 0.481598 0.153752
H19   H     H_    0.829208 0.562016 0.565046 0.152371
H20   H     H_    0.155538 0.542721 0.634645 0.170526
H21   H     H_    0.095232 0.389536 0.564370 0.240533
H22   H     H_    0.138996 0.537648 0.466894 0.087786
H23   H     H_    0.621026 0.321087 0.880764 0.123408
H24   H     H_    0.233342 0.205139 0.093568 0.158753
H25   H     H_    0.838104 0.069393 0.069355 0.044682
H26   H     H_    0.797510 0.674475 0.056391 0.123148
H27   H     H_    0.143517 0.829887 0.970735 0.173331
N1    N     N_R   0.995640 0.706130 0.053910 -0.110536
N2    N     N_R   0.153680 0.443190 0.946090 -0.121048
N3    N     N_R   0.208920 0.706140 0.152110 -0.035254
N4    N     N_R   0.947120 0.293870 0.002870 -0.043860
N5    N     N_R   0.004360 0.293870 0.946090 -0.058064
N6    N     N_R   0.151690 0.706140 0.208890 -0.041755
N7    N     N_R   0.945990 0.443210 0.152110 -0.061763
N8    N     N_R   0.210060 0.556810 0.002870 -0.087934
N9    N     N_R   0.848310 0.293860 0.791110 -0.061618
N10   N     N_R   0.054010 0.556790 0.847890 -0.065246
N11   N     N_R   0.789940 0.443190 0.997130 -0.040254
N12   N     N_R   0.997630 0.443170 0.791110 -0.077401
N13   N     N_R   0.846320 0.556810 0.053910 -0.050523
N14   N     N_R   0.791080 0.293860 0.847890 -0.066363
N15   N     N_R   0.052880 0.706130 0.997130 -0.068071
N16   N     N_R   0.002370 0.556830 0.208890 -0.060278
Ni1   Ni    Ni4+2 0.999010 0.630300 0.130220 0.216317
Ni2   Ni    Ni4+2 0.000990 0.369700 0.869780 0.234555
Ni3   Ni    Ni4+2 0.130280 0.630280 0.000000 0.201608
Ni4   Ni    Ni4+2 0.869720 0.369720 0.000000 0.207518
O1    O     O_3   0.999262 0.850472 0.190066 -0.762188
H28   H     H_    0.973032 0.792210 0.207390 0.315237
O2    O     O_3   0.147286 0.306529 0.801469 -0.766000
H29   H     H_    0.074006 0.264056 0.791143 0.318013
C57   C     C_3   0.339395 0.701946 0.993313 -0.993062
H30   H     H_    0.424912 0.758209 0.063558 0.257929
H31   H     H_    0.336115 0.693345 0.915770 0.239487
H32   H     H_    0.290360 0.740495 0.008144 0.256099
O3    O     O_3   0.306368 0.379805 0.723266 -0.706080
H33   H     H_    0.271597 0.301932 0.665170 0.333994
O4    O     O_3   0.598414 0.455291 0.086114 -0.761799
H34   H     H_    0.553134 0.377698 0.025513 0.290911
O5    O     O_3   0.404481 0.425140 0.047102 -0.784470
H35   H     H_    0.390390 0.355264 0.991417 0.279705
C58   C     C_3   0.561917 0.574472 0.802206 -0.927519
H36   H     H_    0.565595 0.646734 0.795314 0.235668
H37   H     H_    0.633588 0.568794 0.801254 0.239708
H38   H     H_    0.485292 0.500466 0.728691 0.298176
O6    O     O_3   0.660915 0.633632 0.128798 -0.763989
H39   H     H_    0.678296 0.643517 0.202571 0.368187
O7    O     O_3   0.487348 0.612736 0.121596 -0.764404
H40   H     H_    0.440655 0.595377 0.154122 0.344719
C59   C     C_3   0.747863 0.894484 0.577570 -0.871358
H41   H     H_    0.814000 0.970684 0.657425 0.249767
H42   H     H_    0.687351 0.842290 0.591455 0.258023
H43   H     H_    0.784941 0.848573 0.544836 0.246994
C60   C     C_3   0.781654 0.560874 0.373924 -0.936283
H44   H     H_    0.772082 0.546068 0.292879 0.284269
H45   H     H_    0.698725 0.512226 0.360217 0.261874
H46   H     H_    0.814076 0.649699 0.428307 0.236733
O8    O     O_3   0.080038 0.367303 0.382250 -0.732901
H47   H     H_    0.021171 0.298571 0.367341 0.324171
O9    O     O_3   0.254754 0.036301 0.100097 -0.768860
H48   H     H_    0.311189 0.099633 0.105477 0.321423
O10   O     O_3   0.840528 0.014787 0.920901 -0.738298
H49   H     H_    0.759624 0.982052 0.884247 0.314368
C61   C     C_3   0.819564 0.907702 0.101313 -0.944001
H50   H     H_    0.822246 0.839918 0.112575 0.286515
H51   H     H_    0.862789 0.982165 0.184006 0.243593
H52   H     H_    0.731916 0.884312 0.058719 0.227240
C62   C     C_3   0.820650 0.826418 0.920790 -0.895419
H53   H     H_    0.867858 0.842256 0.878947 0.255037
H54   H     H_    0.818627 0.756140 0.930874 0.221263
H55   H     H_    0.734949 0.802238 0.867128 0.244270
O11   O     O_3   0.880747 0.298471 0.603406 -0.790430
H56   H     H_    0.834852 0.292062 0.533997 0.311991
C63   C     C_3   0.656350 0.155451 0.859774 -1.082782
H57   H     H_    0.667468 0.087095 0.863191 0.253570
H58   H     H_    0.699562 0.223221 0.946211 0.258819
H59   H     H_    0.568276 0.130933 0.822179 0.242992
C64   C     C_3   0.014463 0.703493 0.366770 -1.041963
H60   H     H_    0.068743 0.734045 0.454513 0.249467
H61   H     H_    0.054762 0.760840 0.343537 0.254190
H62   H     H_    0.937505 0.703274 0.355191 0.271607

loop_
_geom_bond_atom_site_label_1
_geom_bond_atom_site_label_2
_ccdc_geom_bond_type
N4    N5    A    
C35   H18   S    
C59   H41   S    
C4    C53   A    
C35   C59   S    
C45   O11   S    
C41   C42   S    
C3    C23   A    
C61   H52   S    
C55   C56   A    
C2    C12   A    
N5    Ni2   S    
N2    N8    A    
C54   C63   S    
C19   O3    S    
O5    H35   S    
C16   C31   S    
C52   C62   S    
C6    N2    A    
C26   H11   S    
C38   C60   S    
C28   C29   A    
C1    C56   A    
C24   C26   S    
C62   H55   S    
C9    N5    A    
C38   C39   A    
C47   O9    S    
C11   C14   A    
C18   H7    S    
C7    N3    A    
O2    H29   S    
C44   C50   A    
C5    C64   S    
C57   H30   S    
C18   C19   S    
C58   H36   S    
O3    H33   S    
C33   H16   S    
C8    H2    S    
C6    C15   A    
C21   H10   S    
C5    N16   A    
C10   N6    A    
C63   H59   S    
C54   N14   A    
C19   H9    S    
C60   H45   S    
C39   H19   S    
C29   C30   A    
C5    C14   A    
C51   H25   S    
C64   H61   S    
C44   C52   S    
C24   C25   S    
N10   N12   A    
C21   C22   S    
C13   N8    A    
C53   N13   A    
C23   H14   S    
C36   C41   A    
C13   C57   S    
O1    H28   S    
C21   C26   S    
C44   C46   A    
N9    N14   A    
C30   H15   S    
C29   H13   S    
C4    C34   A    
N6    Ni1   S    
C51   C52   S    
N1    Ni1   S    
O11   H56   S    
C64   H62   S    
C62   H54   S    
C2    C54   A    
C25   O5    S    
C17   C49   S    
C39   C40   A    
C18   H6    S    
C59   H43   S    
C27   C35   S    
N15   Ni3   S    
C3    C45   A    
C23   N10   A    
C53   H26   S    
C43   H22   S    
C58   H38   S    
C37   C38   A    
C43   O8    S    
C10   H4    S    
C21   C58   S    
C33   C35   S    
C34   H23   S    
C4    C22   S    
C47   C48   A    
C50   C51   S    
C6    O2    S    
C15   C24   S    
C61   H50   S    
N11   N13   A    
C1    O1    S    
C64   H60   S    
N14   Ni4   S    
N9    Ni2   S    
N4    Ni4   S    
C33   H17   S    
C40   C41   A    
C20   C22   S    
C3    C40   S    
C13   C15   A    
C63   H58   S    
C1    N1    A    
C42   C43   S    
N8    Ni3   S    
C55   H27   S    
C45   N12   A    
N7    N16   A    
N2    Ni2   S    
C9    C17   A    
C12   H8    S    
C46   C47   A    
C36   C37   A    
C59   H42   S    
C27   C32   A    
C18   C22   S    
C20   O6    S    
C12   N9    A    
C31   C32   A    
C7    C16   A    
C34   N11   A    
C61   H51   S    
O9    H48   S    
C11   H5    S    
N3    N6    A    
N10   Ni3   S    
N11   Ni4   S    
C57   H32   S    
O4    H34   S    
O8    H47   S    
C42   H20   S    
C8    C17   A    
N16   Ni1   S    
C62   H53   S    
C8    N4    A    
N1    N15   A    
C32   C33   S    
C48   H24   S    
C60   H44   S    
C26   H12   S    
C10   C16   A    
C14   C37   S    
C20   O4    S    
C11   N7    A    
C30   C31   A    
C48   C49   A    
N13   Ni1   S    
C55   N15   A    
C52   C61   S    
C57   H31   S    
C19   C24   S    
C25   O7    S    
C58   H37   S    
N7    Ni4   S    
O10   H49   S    
C60   H46   S    
C51   O10   S    
C42   H21   S    
C49   C50   A    
C20   C25   S    
C46   C56   S    
C27   C28   A    
C63   H57   S    
C36   C43   S    
C2    C28   S    
C9    H3    S    
O6    H39   S    
C7    H1    S    
N12   Ni2   S    
O7    H40   S    
N3    Ni3   S    
