data_mof_unit_47876.cif
_audit_creation_date              2012-12-10T20:42:41-0500
_audit_creation_method            fapswitch 2.2
_symmetry_space_group_name_H-M    P1
_symmetry_Int_Tables_number       1
_space_group_crystal_system       triclinic
_cell_length_a                    8.919577
_cell_length_b                    10.693768
_cell_length_c                    9.93739
_cell_angle_alpha                 89.236104
_cell_angle_beta                  90.203045
_cell_angle_gamma                 93.220226
_cell_volume                      946.28238228

loop_
_atom_site_label
_atom_site_type_symbol
_atom_type_description
_atom_site_fract_x
_atom_site_fract_y
_atom_site_fract_z
_atom_type_partial_charge
C1    C     C_R   0.513275 0.260703 0.500580 0.876706
C2    C     C_R   0.585366 0.938009 0.383699 -0.183547
C3    C     C_R   0.537065 0.872236 0.499895 -0.175914
C4    C     C_R   0.535749 0.935088 0.620912 0.156846
C5    C     C_3   0.432884 0.924726 0.740018 0.183055
C6    C     C_3   0.453523 0.067830 0.747494 -0.235066
C7    C     C_R   0.374328 0.459309 0.071190 0.142740
C8    C     C_R   0.616176 0.553368 0.073812 -0.191110
C9    C     C_R   0.617124 0.556914 0.930929 0.468426
C10   C     C_R   0.373132 0.463214 0.928820 0.070174
C11   C     C_3   0.288764 0.340409 0.919162 -0.260654
C12   C     C_R   0.218946 0.500307 0.499878 0.967885
C13   C     C_3   0.298499 0.330028 0.073145 0.212468
C14   C     C_R   0.506166 0.740114 0.499311 0.907883
C15   C     C_R   0.781127 0.500381 0.500078 0.932850
C16   C     C_1   0.065461 0.500460 0.499788 -0.090922
C17   C     C_1   0.934612 0.500383 0.499947 -0.093132
C18   C     C_R   0.547506 0.062932 0.623179 0.070236
C19   C     C_R   0.552063 0.131192 0.502179 -0.190391
C20   C     C_R   0.595966 0.068591 0.384192 0.081733
H1    H     H_    0.352799 0.273809 0.864813 0.158474
H2    H     H_    0.376242 0.258303 0.105176 0.037250
H3    H     H_    0.607740 0.889324 0.291558 0.191426
H4    H     H_    0.348564 0.117348 0.732249 0.157234
H5    H     H_    0.710195 0.593089 0.130863 0.221746
N1    N     N_R   0.499010 0.499140 0.142800 -0.166674
N2    N     N_R   0.499010 0.499180 0.857150 -0.175907
O1    O     O_R   0.500020 0.316790 0.614690 -0.628031
O2    O     O_R   0.500000 0.316760 0.385350 -0.623686
O3    O     O_R   0.285350 0.500020 0.614650 -0.618845
O4    O     O_R   0.285340 0.499980 0.385310 -0.539741
O5    O     O_R   0.500000 0.683240 0.614650 -0.549985
O6    O     O_R   0.499980 0.683210 0.385310 -0.639457
O7    O     O_R   0.714660 0.500020 0.614690 -0.536614
O8    O     O_R   0.714650 0.499980 0.385350 -0.623077
Zn1   Zn    Zn3+2 0.500010 0.500020 0.653130 1.034879
Zn2   Zn    Zn3+2 0.499990 0.499980 0.346870 0.998792
N3    N     N_3   0.650315 0.132754 0.265085 -0.404537
H6    H     H_    0.729355 0.203981 0.292200 0.250163
H7    H     H_    0.560743 0.171015 0.214959 0.193756
S1    S     S_3+6 0.125561 0.314406 0.166864 0.024880
O9    O     O_2   0.055434 0.438638 0.175519 -0.264348
O10   O     O_2   0.016586 0.221630 0.101226 -0.311524
O11   O     O_3   0.161691 0.261380 0.322972 -0.545224
H8    H     H_    0.207542 0.180191 0.309959 0.343740
N4    N     N_3   0.279683 0.878826 0.705230 -0.432789
H9    H     H_    0.241158 0.928603 0.621773 0.170133
H10   H     H_    0.209483 0.897641 0.785673 0.213007
N5    N     N_3   0.493558 0.853975 0.853401 -0.364701
H11   H     H_    0.430771 0.870974 0.939235 0.180475
H12   H     H_    0.604676 0.884843 0.873141 0.259096
N6    N     N_3   0.546255 0.110029 0.861918 -0.432129
H13   H     H_    0.584483 0.203145 0.845386 0.227166
H14   H     H_    0.479035 0.106365 0.947934 0.175814
S2    S     S_3+6 0.778802 0.638284 0.860399 0.026398
O12   O     O_2   0.743595 0.718571 0.741198 -0.306690
O13   O     O_2   0.853313 0.721623 0.964670 -0.329179
O14   O     O_3   0.901764 0.534465 0.814343 -0.565471
H15   H     H_    0.991496 0.586016 0.784157 0.377763
N7    N     N_3   0.140255 0.353399 0.860166 -0.372223
H16   H     H_    0.085333 0.264614 0.856154 0.237778
H17   H     H_    0.078004 0.409692 0.920668 0.300594

loop_
_geom_bond_atom_site_label_1
_geom_bond_atom_site_label_2
_ccdc_geom_bond_type
C10   N2    A    
C7    C10   A    
S2    O12   D    
N1    Zn2   S    
C9    S2    S    
N2    Zn1   S    
C1    O1    A    
S1    O10   D    
S1    O9    D    
C15   O7    A    
C19   C20   A    
O3    Zn1   S    
C4    C18   A    
C14   O6    A    
C13   S1    S    
C2    C3    A    
C6    H4    S    
O11   H8    S    
N3    H7    S    
C8    H5    S    
C11   C13   S    
C5    N5    S    
C5    C6    S    
C3    C14   S    
C7    N1    A    
N7    H16   S    
O5    Zn1   S    
C1    O2    A    
O8    Zn2   S    
N6    H14   S    
C13   H2    S    
N5    H11   S    
C20   N3    S    
O7    Zn1   S    
S2    O13   D    
C12   O4    A    
N3    H6    S    
C6    C18   S    
S1    O11   S    
N4    H10   S    
C1    C19   S    
O2    Zn2   S    
C10   C11   S    
C2    C20   A    
C11   N7    S    
O4    Zn2   S    
C7    C13   S    
O1    Zn1   S    
C8    N1    A    
N6    H13   S    
C9    N2    A    
N7    H17   S    
C18   C19   A    
C5    N4    S    
S2    O14   S    
C15   O8    A    
C2    H3    S    
C15   C17   S    
N4    H9    S    
C4    C5    S    
C6    N6    S    
O14   H15   S    
C12   O3    A    
C11   H1    S    
O6    Zn2   S    
C3    C4    A    
C12   C16   S    
C16   C17   T    
C14   O5    A    
C8    C9    A    
N5    H12   S    
