data_mof_unit_44186.cif
_audit_creation_date              2012-12-11T17:08:33-0500
_audit_creation_method            fapswitch 2.2
_symmetry_space_group_name_H-M    P1
_symmetry_Int_Tables_number       1
_space_group_crystal_system       triclinic
_cell_length_a                    6.957548
_cell_length_b                    14.540884
_cell_length_c                    16.077662
_cell_angle_alpha                 90.056853
_cell_angle_beta                  89.854234
_cell_angle_gamma                 90.122788
_cell_volume                      1626.54956226

loop_
_atom_site_label
_atom_site_type_symbol
_atom_type_description
_atom_site_fract_x
_atom_site_fract_y
_atom_site_fract_z
_atom_type_partial_charge
O1    O     O_R   0.505700 0.583890 0.413310 -0.535349
O2    O     O_R   0.175960 0.594920 0.586080 -0.542932
O3    O     O_R   0.005660 0.416110 0.586690 -0.536548
C1    C     C_R   0.344671 0.616953 0.614835 0.693506
O4    O     O_R   0.175980 0.594920 0.413930 -0.544537
O5    O     O_R   0.005680 0.416110 0.413310 -0.539630
C2    C     C_R   0.345378 0.617196 0.385433 0.721725
O6    O     O_R   0.505680 0.583890 0.586690 -0.537006
O7    O     O_3   0.339200 0.441330 0.500000 -0.370670
V1    V     V_3+5 0.064350 0.510880 0.500000 1.387325
O8    O     O_R   0.675960 0.405080 0.413920 -0.539935
C3    C     C_R   0.845039 0.383209 0.385016 0.697085
O9    O     O_R   0.675940 0.405080 0.586070 -0.543491
C4    C     C_R   0.844541 0.383016 0.614821 0.694225
V2    V     V_3+5 0.564340 0.489120 0.500000 1.391314
O10   O     O_3   0.839360 0.558670 0.500000 -0.369547
C5    C     C_R   0.007000 0.317290 0.741218 0.098303
C6    C     C_R   0.852406 0.317521 0.685466 -0.112010
C7    C     C_R   0.701028 0.255410 0.701189 -0.178764
H1    H     H_    0.578484 0.253041 0.660119 0.133783
C8    C     C_R   0.712532 0.191179 0.766614 -0.177849
H2    H     H_    0.597743 0.141613 0.774152 0.127141
C9    C     C_R   0.876109 0.186831 0.818132 -0.109993
C10   C     C_R   0.018822 0.253494 0.805722 0.100946
C11   C     C_3   0.229576 0.241495 0.793481 -0.410507
C12   C     C_3   0.216851 0.311397 0.723554 -0.396721
H3    H     H_    0.265759 0.171129 0.771512 0.166707
H4    H     H_    0.313830 0.266398 0.847693 0.174215
H5    H     H_    0.246519 0.281816 0.661058 0.171822
H6    H     H_    0.292951 0.376902 0.737501 0.166809
C13   C     C_R   0.726545 0.183746 0.240523 0.094786
C14   C     C_R   0.881278 0.183580 0.184562 -0.123530
C15   C     C_R   0.033704 0.244836 0.200696 -0.180035
H7    H     H_    0.156600 0.246954 0.159572 0.132387
C16   C     C_R   0.022788 0.308603 0.266580 -0.173551
H8    H     H_    0.138102 0.357793 0.274326 0.126227
C17   C     C_R   0.858872 0.313177 0.318175 -0.109691
C18   C     C_R   0.715291 0.247067 0.305479 0.093790
C19   C     C_3   0.504635 0.259495 0.293890 -0.404650
C20   C     C_3   0.516817 0.190070 0.223401 -0.393390
H9    H     H_    0.469074 0.330091 0.272553 0.164623
H10   H     H_    0.420280 0.234309 0.348114 0.172982
H11   H     H_    0.487480 0.220081 0.161172 0.169148
H12   H     H_    0.440415 0.124617 0.237083 0.159605
C21   C     C_R   0.509004 0.747708 0.689253 0.102631
C22   C     C_R   0.352640 0.687505 0.681385 -0.111135
C23   C     C_R   0.200197 0.697844 0.738419 -0.179182
H13   H     H_    0.076961 0.652730 0.735013 0.130346
C24   C     C_R   0.211863 0.761733 0.804252 -0.180013
H14   H     H_    0.096172 0.764765 0.849175 0.129806
C25   C     C_R   0.376948 0.816670 0.815336 -0.108529
C26   C     C_R   0.520950 0.810620 0.754589 0.097998
C27   C     C_3   0.730883 0.794648 0.764866 -0.415832
C28   C     C_3   0.717966 0.726499 0.693401 -0.394877
H15   H     H_    0.764335 0.761758 0.825477 0.170189
H16   H     H_    0.817421 0.856779 0.749674 0.172166
H17   H     H_    0.744754 0.654169 0.712398 0.166291
H18   H     H_    0.796373 0.749397 0.636737 0.174274
C29   C     C_R   0.530167 0.707445 0.278370 0.117171
C30   C     C_R   0.358148 0.689734 0.320937 -0.178036
C31   C     C_R   0.201356 0.747662 0.303764 -0.276277
H19   H     H_    0.068736 0.740436 0.338618 0.153198
C32   C     C_R   0.212698 0.816007 0.241463 0.405386
C33   C     C_R   0.379317 0.822723 0.189919 -0.226111
C34   C     C_R   0.539730 0.771314 0.214264 0.095087
C35   C     C_3   0.672664 0.712713 0.164223 -0.385149
C36   C     C_3   0.662845 0.642881 0.234536 -0.413243
H20   H     H_    0.817089 0.744474 0.157001 0.211530
H21   H     H_    0.606227 0.687842 0.105498 0.154497
H22   H     H_    0.801490 0.634850 0.267941 0.175871
H23   H     H_    0.591431 0.577335 0.216554 0.159519
O11   O     O_R   0.229000 0.916070 0.913330 -0.540998
O12   O     O_R   0.558770 0.905070 0.086080 -0.534743
O13   O     O_R   0.729000 0.083900 0.086690 -0.535357
C37   C     C_R   0.389629 0.884787 0.116344 0.718780
O14   O     O_R   0.558720 0.905070 0.913930 -0.541703
O15   O     O_R   0.728960 0.083900 0.913310 -0.541267
C38   C     C_R   0.389713 0.882822 0.885358 0.686910
O16   O     O_R   0.229050 0.916070 0.086710 -0.516898
O17   O     O_3   0.395460 0.058650 0.000020 -0.376404
V3    V     V_3+5 0.670340 0.989120 0.000000 1.414602
O18   O     O_R   0.058670 0.094960 0.913900 -0.541259
C39   C     C_R   0.889812 0.116774 0.884948 0.689369
O19   O     O_R   0.058720 0.094960 0.086050 -0.546222
C40   C     C_R   0.889643 0.117994 0.113974 0.688250
V4    V     V_3+5 0.170330 0.010930 0.999970 1.409240
O20   O     O_3   0.895340 0.941350 0.999980 -0.362128
O21   O     O_3   0.053962 0.871301 0.229180 -0.572152
C41   C     C_3   0.083685 0.957282 0.268555 0.134418
H24   H     H_    0.979566 0.005940 0.241262 0.134869
H25   H     H_    0.229689 0.986059 0.256267 0.078400
C42   C     C_3   0.044053 0.952490 0.362422 -0.357131
H26   H     H_    0.899850 0.921685 0.373403 0.201921
H27   H     H_    0.153652 0.908771 0.393074 0.187906
C43   C     C_3   0.051243 0.047985 0.401830 -0.828684
H28   H     H_    0.193657 0.080496 0.390709 0.229417
H29   H     H_    0.027560 0.042238 0.469950 0.229822
H30   H     H_    0.937223 0.092358 0.375391 0.235347

loop_
_geom_bond_atom_site_label_1
_geom_bond_atom_site_label_2
_ccdc_geom_bond_type
C35   H20   S    
C32   O21   S    
C4    C6    S    
C43   H28   S    
C1    O6    A    
C43   H30   S    
C19   H9    S    
C1    C22   S    
C21   C22   A    
C11   H4    S    
C9    C39   S    
C5    C12   S    
C7    C8    A    
O14   C38   A    
O5    C3    A    
C18   C19   S    
C35   H21   S    
O15   C39   A    
V2    O10   S    
C13   C20   S    
C6    C7    A    
C3    C17   S    
C31   C32   A    
O11   C38   A    
C29   C36   S    
O8    V2    S    
C20   H11   S    
C23   H13   S    
C24   C25   A    
O17   V4    S    
C9    C10   A    
O1    V2    S    
C41   H25   S    
O7    V1    S    
C35   C36   S    
C29   C30   A    
O9    C4    A    
O12   C37   A    
O12   V3    S    
C5    C6    A    
C19   H10   S    
C27   H15   S    
C5    C10   A    
C25   C26   A    
C10   C11   S    
C23   C24   A    
C19   C20   S    
O4    C2    A    
V4    O20   S    
C21   C26   A    
C11   C12   S    
O18   V4    S    
O18   C39   A    
C42   C43   S    
C30   C31   A    
C16   H8    S    
O2    C1    A    
C17   C18   A    
C13   C14   A    
O15   V3    S    
C42   H27   S    
C15   H7    S    
O19   C40   A    
C41   C42   S    
V3    O20   S    
O3    C4    A    
C21   C28   S    
C12   H6    S    
O6    V2    S    
C8    C9    A    
O13   V3    S    
O2    V1    S    
C2    C30   S    
C26   C27   S    
C28   H18   S    
C27   H16   S    
C22   C23   A    
C16   C17   A    
O1    C2    A    
O19   V4    S    
O17   V3    S    
O14   V3    S    
O5    V1    S    
O11   V4    S    
O8    C3    A    
C43   H29   S    
C27   C28   S    
C11   H3    S    
C13   C18   A    
C36   H22   S    
C14   C15   A    
C7    H1    S    
O9    V2    S    
O7    V2    S    
C25   C38   S    
O4    V1    S    
O3    V1    S    
V1    O10   S    
C29   C34   A    
C14   C40   S    
C33   C34   A    
C42   H26   S    
C15   C16   A    
C33   C37   S    
C36   H23   S    
C34   C35   S    
O13   C40   A    
C31   H19   S    
C32   C33   A    
C20   H12   S    
O21   C41   S    
C12   H5    S    
C24   H14   S    
C41   H24   S    
C8    H2    S    
C37   O16   A    
O16   V4    S    
C28   H17   S    
