data_mof_unit_57498.cif
_audit_creation_date              2013-03-05T15:45:59-0500
_audit_creation_method            fapswitch 2.2
_symmetry_space_group_name_H-M    P1
_symmetry_Int_Tables_number       1
_space_group_crystal_system       triclinic
_cell_length_a                    8.321173
_cell_length_b                    15.197855
_cell_length_c                    19.106771
_cell_angle_alpha                 97.820242
_cell_angle_beta                  94.49579
_cell_angle_gamma                 97.973821
_cell_volume                      2359.0238956

loop_
_atom_site_label
_atom_site_type_symbol
_atom_site_description
_atom_site_fract_x
_atom_site_fract_y
_atom_site_fract_z
_atom_type_partial_charge
P1    P     P_3+3 0.990670 0.707470 0.561860 0.451514
O1    O     O_2   0.164990 0.721870 0.541490 -0.378316
O2    O     O_3   0.893010 0.608480 0.539150 -0.429860
O3    O     O_3   0.389100 0.667490 0.413860 -0.366803
O4    O     O_2   0.314531 0.826010 0.461363 -0.408332
O5    O     O_3   0.035676 0.720896 0.654302 -0.614521
O6    O     O_3   0.385366 0.809917 0.331310 -0.559797
H1    H     H_    0.323416 0.676623 0.285926 0.120303
C1    C     C_3   0.364987 0.760772 0.205817 0.150001
H2    H     H_    0.242256 0.782309 0.201757 0.179169
P2    P     P_3+3 0.340140 0.430100 0.338890 0.502472
P3    P     P_3+3 0.930775 0.616598 0.285749 0.474069
O7    O     O_2   0.172070 0.457600 0.329050 -0.303422
O8    O     O_3   0.964370 0.622050 0.377340 -0.358650
O9    O     O_2   0.053060 0.560432 0.251327 -0.407146
O10   O     O_3   0.290898 0.313646 0.315250 -0.589072
O11   O     O_3   0.987907 0.724294 0.265039 -0.530551
C2    C     C_3   0.921819 0.787078 0.311183 0.379040
H3    H     H_    0.013099 0.815226 0.357211 0.108238
H4    H     H_    0.807728 0.758136 0.331685 -0.054195
C3    C     C_3   0.880766 0.862383 0.271192 0.072631
H5    H     H_    0.825524 0.910814 0.307566 0.060213
C4    C     C_3   0.773876 0.314893 0.301555 1.190416
H6    H     H_    0.757528 0.381038 0.330763 -0.048555
C5    C     C_3   0.617102 0.272956 0.253610 -1.124753
H7    H     H_    0.525144 0.244149 0.286206 0.270761
H8    H     H_    0.565970 0.323486 0.225355 0.228786
H9    H     H_    0.641589 0.216664 0.214339 0.268677
Ba1   Ba    Ba6+2 0.161750 0.544670 0.467760 1.579693
C6    C     C_3   0.893206 0.721510 0.688378 0.315831
H10   H     H_    0.857572 0.653762 0.701095 0.070423
H11   H     H_    0.792540 0.741659 0.655885 0.095274
C7    C     C_3   0.927461 0.783605 0.759161 0.066259
H12   H     H_    0.035462 0.765993 0.789481 0.110402
H13   H     H_    0.818823 0.771684 0.789188 0.105744
C8    C     C_3   0.255287 0.272905 0.374812 0.345816
H14   H     H_    0.154412 0.300926 0.400195 0.063121
H15   H     H_    0.364343 0.284356 0.413865 0.155755
C9    C     C_3   0.205265 0.171840 0.350712 0.026077
H16   H     H_    0.070912 0.158009 0.336297 0.120703
H17   H     H_    0.267280 0.151215 0.302817 0.119994
P4    P     P_3+3 0.819620 0.292520 0.438080 0.448692
O12   O     O_2   0.645300 0.278070 0.458480 -0.357350
O13   O     O_3   0.917280 0.391520 0.460790 -0.415445
O14   O     O_3   0.421200 0.332510 0.586090 -0.287743
O15   O     O_3   0.799549 0.252166 0.346811 -0.633448
P5    P     P_3+3 0.876393 0.381322 0.715564 0.525974
O16   O     O_3   0.383620 0.545480 0.584560 -0.350328
O17   O     O_3   0.845920 0.377940 0.622610 -0.353600
O18   O     O_2   0.750243 0.436462 0.747527 -0.370160
O19   O     O_3   0.818858 0.272944 0.734904 -0.427158
Ba2   Ba    Ba6+2 0.648430 0.455320 0.532180 1.604277
P6    P     P_3+3 0.437766 0.783945 0.415922 0.441361
C10   C     C_3   0.406972 0.738195 0.279991 0.328659
H18   H     H_    0.534786 0.724568 0.284695 0.019240
H19   H     H_    0.355096 0.698086 0.167417 0.070310
O20   O     O_3   0.426680 0.454510 0.415380 -0.389481
C11   C     C_3   0.460340 0.735202 0.650277 0.361135
H20   H     H_    0.504123 0.714772 0.597719 0.112673
H21   H     H_    0.326780 0.722171 0.647748 0.155198
C12   C     C_3   0.513632 0.835072 0.672123 -0.987020
H22   H     H_    0.647302 0.851698 0.684827 0.294024
H23   H     H_    0.478166 0.868226 0.626761 0.203465
H24   H     H_    0.453755 0.860033 0.719271 0.281235
P7    P     P_3+3 0.468032 0.574725 0.674786 0.476768
O21   O     O_2   0.638220 0.542340 0.670930 -0.337332
O22   O     O_3   0.524163 0.689936 0.701857 -0.589851
H25   H     H_    0.790356 0.832085 0.225372 0.173436
C13   C     C_3   0.874646 0.212244 0.683513 0.372084
H26   H     H_    0.810698 0.212857 0.630459 0.115525
H27   H     H_    0.007875 0.230433 0.680850 -0.041832
C14   C     C_3   0.844105 0.117350 0.703008 0.141543
H28   H     H_    0.917679 0.073122 0.672222 0.086666
H29   H     H_    0.887419 0.120325 0.759676 0.165779
P8    P     P_3+3 0.371679 0.217172 0.583244 0.514354
C15   C     C_3   0.386842 0.215526 0.722949 1.347309
H30   H     H_    0.303742 0.265515 0.713403 -2.665307
O23   O     O_2   0.472592 0.176437 0.526139 -0.342585
O24   O     O_3   0.457534 0.185293 0.660997 -0.512177
H31   H     H_    0.178895 0.110052 0.708736 0.145731
C16   C     C_3   0.288544 0.133420 0.746374 -0.944915
H32   H     H_    0.364350 0.078515 0.743861 0.276079
C17   C     C_R   0.651037 0.830715 0.454691 0.188181
H33   H     H_    0.694037 0.699014 0.471895 0.195006
H34   H     H_    0.526739 0.961537 0.394402 0.175648
C18   C     C_R   0.888571 0.798317 0.524778 0.197682
C19   C     C_R   0.061649 0.237161 0.526163 -0.385482
C20   C     C_R   0.155142 0.177172 0.552188 0.274090
C21   C     C_R   0.094287 0.085731 0.543372 -0.258070
C22   C     C_R   0.936786 0.050619 0.509979 0.072281
C23   C     C_R   0.848946 0.111691 0.476720 -0.024521
C24   C     C_R   0.870920 0.955529 0.503699 -0.098450
C25   C     C_R   0.719974 0.923146 0.461224 -0.066799
C26   C     C_R   0.639880 0.984062 0.427517 -0.175553
C27   C     C_R   0.702785 0.075425 0.434640 -0.109108
C28   C     C_R   0.943063 0.893382 0.542818 0.421966
C29   C     C_R   0.742763 0.769876 0.481317 -0.517733
C30   C     C_R   0.912386 0.206771 0.485603 0.255000
H35   H     H_    0.113020 0.307405 0.531706 0.196384
H36   H     H_    0.178832 0.042524 0.556694 0.167578
H37   H     H_    0.634215 0.117193 0.406382 0.197426
C31   C     C_R   0.617825 0.533003 0.301095 -0.495573
C32   C     C_R   0.460592 0.488961 0.277301 0.317527
C33   C     C_R   0.401515 0.484743 0.205882 -0.300219
C34   C     C_R   0.499405 0.524500 0.158036 0.025063
C35   C     C_R   0.659187 0.566573 0.182893 -0.279894
C36   C     C_R   0.718466 0.569564 0.253857 0.242261
C37   C     C_R   0.478144 0.592251 0.044906 -0.157975
C38   C     C_R   0.425062 0.586357 0.972779 -0.131985
C39   C     C_R   0.330557 0.507461 0.935686 0.169675
C40   C     C_R   0.288771 0.435179 0.973025 -0.167058
C41   C     C_R   0.341710 0.441085 0.045054 -0.126727
C42   C     C_R   0.437951 0.519476 0.081906 0.152526
C43   C     C_R   0.126584 0.449651 0.829096 -0.313819
C44   C     C_R   0.084286 0.434319 0.755664 0.142834
C45   C     C_R   0.345362 0.518986 0.738034 0.201686
C46   C     C_R   0.386502 0.536267 0.811761 -0.369748
C47   C     C_R   0.280013 0.498690 0.858011 0.045470
C48   C     C_R   0.196923 0.466160 0.711107 0.292009
H38   H     H_    0.502957 0.575945 0.832362 0.184321
H39   H     H_    0.457319 0.643909 0.946215 0.141030
H40   H     H_    0.549993 0.654187 0.071871 0.147950
H41   H     H_    0.279774 0.450593 0.187829 0.158185
H42   H     H_    0.218624 0.372764 0.946131 0.186384
H43   H     H_    0.310839 0.383140 0.071364 0.141946
H44   H     H_    0.039263 0.424430 0.863461 0.196742
H45   H     H_    0.739439 0.594539 0.146900 0.152073
H46   H     H_    0.664742 0.535289 0.355863 0.183010
O25   O     O_3   0.956252 0.873669 0.747183 -0.559427
C49   C     C_3   0.975737 0.930694 0.812817 0.017414
H47   H     H_    0.082226 0.918795 0.847370 0.138227
H48   H     H_    0.862812 0.923212 0.840437 0.130260
H49   H     H_    0.999112 0.000940 0.802634 0.153984
O26   O     O_3   0.250952 0.124604 0.405788 -0.607151
C50   C     C_3   0.206841 0.031587 0.383474 -0.059261
H50   H     H_    0.267200 0.008742 0.335873 0.149385
H51   H     H_    0.072250 0.013402 0.373431 0.133797
H52   H     H_    0.248184 0.995483 0.426590 0.164722
O27   O     O_3   0.491019 0.823305 0.187272 -0.620637
C51   C     C_3   0.448989 0.910620 0.195938 -0.148589
H53   H     H_    0.424936 0.932575 0.251484 0.166119
H54   H     H_    0.341995 0.914596 0.158383 0.165008
H55   H     H_    0.553343 0.958055 0.183803 0.155366
O28   O     O_3   0.676533 0.082253 0.694055 -0.523334
C52   C     C_3   0.633418 0.036660 0.624372 0.027250
H56   H     H_    0.692245 0.975566 0.615778 0.128049
H57   H     H_    0.664889 0.080267 0.584202 0.137444
H58   H     H_    0.499928 0.016882 0.615989 0.131345
O29   O     O_3   0.517141 0.248794 0.776484 -0.564626
C53   C     C_3   0.496061 0.331679 0.814357 0.032951
H59   H     H_    0.392802 0.324171 0.847154 0.103617
H60   H     H_    0.478364 0.380334 0.777594 0.146145
H61   H     H_    0.607548 0.358578 0.850862 0.187668
C54   C     C_2   0.240257 0.150710 0.821109 1.171312
O30   O     O_2   0.290898 0.108294 0.865787 -0.542509
O31   O     O_R   0.138027 0.213475 0.840623 -0.779194
H62   H     H_    0.110574 0.248800 0.801365 0.297310
O32   O     O_3   0.015398 0.927184 0.610782 -0.604324
C55   C     C_3   0.177834 0.912049 0.620406 -0.119207
H63   H     H_    0.233777 0.896672 0.570366 0.140820
H64   H     H_    0.188416 0.860655 0.654903 0.231657
H65   H     H_    0.250683 0.973428 0.650419 0.140356
O33   O     O_3   0.156166 0.450198 0.639609 -0.638866
C56   C     C_3   0.068355 0.518059 0.622775 0.139130
H66   H     H_    0.147514 0.582045 0.623052 0.119184
H67   H     H_    0.973588 0.532849 0.658529 0.078419
H68   H     H_    0.006625 0.492561 0.569965 0.240510
O34   O     O_3   0.023597 0.904969 0.247328 -0.591045
C57   C     C_3   0.984096 0.973906 0.209647 -0.193004
H69   H     H_    0.928093 0.024674 0.243360 0.135332
H70   H     H_    0.901798 0.945908 0.160618 0.169448
H71   H     H_    0.098105 0.008970 0.193449 0.153732
O35   O     O_3   0.913345 0.324628 0.263114 -0.623025
C58   C     C_3   0.886991 0.363009 0.200727 -0.062631
H72   H     H_    0.828598 0.310616 0.156383 0.134547
H73   H     H_    0.006338 0.391040 0.184968 0.166765
H74   H     H_    0.812737 0.417749 0.208163 0.093148

loop_
_geom_bond_atom_site_label_1
_geom_bond_atom_site_label_2
_geom_bond_distance
_ccdc_geom_bond_type
C50   H52   1.108624 S    
C28   O32   1.386599 S    
C19   C20   1.393999 A    
C25   C26   1.407913 A    
H31   C16   1.101603 S    
O3    P6    1.754321 S    
C12   H24   1.110622 S    
C2    C3    1.521801 S    
C1    O27   1.414917 S    
C57   H69   1.113084 S    
O33   C56   1.401271 S    
C51   H55   1.109443 S    
C39   C47   1.493327 S    
C52   H56   1.107205 S    
C50   H50   1.110874 S    
P5    O17   1.766992 S    
C33   H41   1.079451 S    
O35   C58   1.411738 S    
C37   C38   1.400837 A    
C5    H9    1.110894 S    
P5    C44   1.861732 S    
P7    C45   1.857965 S    
C3    O34   1.411113 S    
O1    Ba1   2.859953 S    
H33   C29   1.082250 S    
O7    Ba1   2.809867 S    
C56   H66   1.095396 S    
C51   H54   1.112552 S    
C2    H3    1.111797 S    
C31   H46   1.082107 S    
P4    C30   1.899977 S    
C6    H10   1.096248 S    
C43   H44   1.082608 S    
O12   Ba2   2.860554 S    
C35   C36   1.398564 A    
C11   H21   1.097559 S    
C17   C25   1.426696 A    
C24   C28   1.445750 A    
C45   C46   1.403318 A    
O2    Ba1   2.919190 S    
P1    O1    1.525474 D    
P4    O15   1.754970 S    
C13   H27   1.111621 S    
C18   C29   1.395470 A    
C58   H72   1.110189 S    
C33   C34   1.412387 A    
C39   C40   1.408131 A    
C40   C41   1.398759 A    
P7    O22   1.743656 S    
C53   H61   1.109039 S    
P3    O11   1.746824 S    
C34   C42   1.491832 S    
C4    H6    1.112498 S    
C15   O24   1.412243 S    
O16   P7    1.782660 S    
C1    H2    1.115057 S    
C54   O31   1.396648 S    
O3    Ba1   2.823583 S    
C19   C30   1.396107 A    
O13   Ba2   2.919910 S    
C11   C12   1.512106 S    
C4    O15   1.397873 S    
C3    H5    1.113928 S    
C37   H40   1.082826 S    
C57   H70   1.112532 S    
C13   H26   1.109132 S    
P4    O13   1.593829 S    
C41   C42   1.405391 A    
C52   H57   1.103944 S    
C16   H32   1.111924 S    
P5    O18   1.543505 D    
C19   H35   1.081270 S    
C8    C9    1.531203 S    
Ba1   O16   2.780165 S    
C31   C32   1.395531 A    
C15   H30   1.119067 S    
C14   H29   1.106912 S    
C46   H38   1.082169 S    
H1    C10   1.110254 S    
C9    H16   1.113867 S    
C14   H28   1.111615 S    
P5    O19   1.747376 S    
C21   H36   1.066054 S    
O14   Ba2   2.822980 S    
C11   H20   1.114208 S    
C35   H45   1.082745 S    
C16   C54   1.512175 S    
P1    O5    1.754603 S    
P1    O2    1.593701 S    
C37   C42   1.407877 A    
C13   C14   1.530540 S    
C49   H48   1.113027 S    
H34   C26   1.078019 S    
C11   O22   1.389396 S    
C22   C24   1.458091 A    
C55   H63   1.106609 S    
P3    O9    1.545868 D    
O2    Ba2   2.852502 S    
O17   Ba2   2.777224 S    
P1    Ba1   3.398356 S    
O11   C2    1.408151 S    
C54   O30   1.220880 D    
C55   H65   1.099798 S    
C31   C36   1.396612 A    
C1    H19   1.109639 S    
C14   O28   1.410511 S    
C51   H53   1.110522 S    
C58   H74   1.103753 S    
P2    Ba1   3.379582 S    
C41   H43   1.082669 S    
C43   C47   1.415647 A    
C18   C28   1.438760 A    
O34   C57   1.409871 S    
O5    C6    1.397091 S    
Ba1   O20   2.924022 S    
C26   C27   1.398672 A    
C44   C48   1.395986 A    
Ba1   O13   2.851848 S    
O32   C55   1.404463 S    
C57   H71   1.109247 S    
C53   H60   1.103278 S    
C49   H49   1.104668 S    
P4    O12   1.525711 D    
O6    P6    1.752263 S    
O8    Ba1   2.776552 S    
C48   O33   1.361779 S    
C52   H58   1.102826 S    
Ba2   O21   2.810123 S    
O25   C49   1.408346 S    
C7    O25   1.409320 S    
P1    C18   1.904567 S    
C50   H51   1.110629 S    
C10   H18   1.110548 S    
O31   H62   1.009849 S    
C6    C7    1.522680 S    
C40   H42   1.082261 S    
C56   H68   1.090543 S    
P3    O8    1.739249 S    
O28   C52   1.409475 S    
C15   C16   1.533832 S    
P3    C36   1.834587 S    
O27   C51   1.410210 S    
C43   C44   1.399144 A    
O26   C50   1.407991 S    
C4    O35   1.422597 S    
C5    H8    1.108914 S    
C34   C35   1.408784 A    
C45   C48   1.395634 A    
P6    C17   1.871910 S    
O14   P8    1.736530 S    
C56   H67   1.109453 S    
C55   H64   1.096528 S    
O4    P6    1.544187 D    
C3    H25   1.111476 S    
P2    O20   1.550952 S    
O29   C53   1.405115 S    
C5    H7    1.105012 S    
C6    H11   1.105547 S    
P2    O7    1.519296 D    
C38   H39   1.082456 S    
C22   C23   1.440661 A    
C15   O29   1.418022 S    
C8    H15   1.106920 S    
C24   C25   1.427754 A    
C7    H13   1.115055 S    
C7    H12   1.114553 S    
C49   H47   1.113099 S    
C2    H4    1.112465 S    
C4    C5    1.539588 S    
C23   C30   1.450204 A    
C12   H22   1.105883 S    
P8    O23   1.543676 D    
C58   H73   1.105801 S    
P2    O10   1.748296 S    
Ba2   O20   2.779566 S    
C23   C27   1.403407 A    
P8    C20   1.843532 S    
O16   Ba2   2.923178 S    
C20   C21   1.394191 A    
C9    H17   1.114836 S    
C8    H14   1.108145 S    
P7    O21   1.566224 D    
C17   C29   1.399742 A    
C38   C39   1.406483 A    
C32   C33   1.403614 A    
C53   H59   1.104834 S    
P2    C32   1.847226 S    
C1    C10   1.528486 S    
O19   C13   1.405149 S    
O6    C10   1.404661 S    
C21   C22   1.411283 A    
C46   C47   1.418433 A    
P8    O24   1.754331 S    
Ba1   Ba2   4.578053 S    
O10   C8    1.400012 S    
C27   H37   1.079580 S    
P4    Ba2   3.398872 S    
C12   H23   1.101001 S    
C9    O26   1.409200 S    
