data_mof_unit_42162.cif
_audit_creation_date              2012-12-10T17:50:34-0500
_audit_creation_method            fapswitch 2.2
_symmetry_space_group_name_H-M    P1
_symmetry_Int_Tables_number       1
_space_group_crystal_system       triclinic
_cell_length_a                    15.722222
_cell_length_b                    10.624017
_cell_length_c                    9.935855
_cell_angle_alpha                 89.909714
_cell_angle_beta                  89.837006
_cell_angle_gamma                 91.675092
_cell_volume                      1658.89898224

loop_
_atom_site_label
_atom_site_type_symbol
_atom_type_description
_atom_site_fract_x
_atom_site_fract_y
_atom_site_fract_z
_atom_type_partial_charge
C1    C     C_R   0.501255 0.260941 0.500091 0.858949
C2    C     C_3   0.083080 0.499951 0.500719 -0.023469
C3    C     C_3   0.971433 0.488307 0.624643 0.643192
C4    C     C_3   0.916831 0.503826 0.499007 -0.083254
C5    C     C_3   0.031154 0.597603 0.577143 -0.228004
C6    C     C_3   0.976042 0.611405 0.449730 -0.151262
C7    C     C_1   0.173882 0.498788 0.500939 0.070554
C8    C     C_1   0.825974 0.502685 0.499307 0.146044
C9    C     C_R   0.655063 0.136081 0.572626 -0.347882
C10   C     C_R   0.729203 0.073416 0.606588 -0.128280
C11   C     C_R   0.727710 0.941237 0.606286 0.749506
C12   C     C_R   0.338084 0.498989 0.500182 0.863213
C13   C     C_R   0.653371 0.874049 0.571800 -0.294660
C14   C     C_R   0.578403 0.937018 0.537088 0.010213
C15   C     C_R   0.579489 0.068527 0.537642 0.115820
C16   C     C_R   0.504859 0.128958 0.500004 -0.084972
C17   C     C_R   0.431364 0.064113 0.460090 -0.173239
C18   C     C_R   0.428639 0.934426 0.459912 -0.038455
C19   C     C_R   0.502381 0.872091 0.499450 -0.133292
C20   C     C_R   0.389052 0.334043 0.140493 -0.250321
C21   C     C_R   0.334620 0.251973 0.070776 -0.258074
C22   C     C_R   0.334537 0.252051 0.931413 0.666002
C23   C     C_R   0.500151 0.739240 0.499849 0.838131
C24   C     C_R   0.388985 0.334198 0.860957 -0.252308
C25   C     C_R   0.445363 0.418250 0.928138 0.086626
C26   C     C_R   0.445388 0.418245 0.072589 0.177419
C27   C     C_R   0.552262 0.578239 0.071042 -0.077610
C28   C     C_R   0.552253 0.578194 0.928084 -0.066219
C29   C     C_R   0.661874 0.500662 0.499844 0.862569
C30   C     C_3   0.970194 0.408214 0.424251 0.635079
C31   C     C_3   0.029871 0.515771 0.372392 -0.255230
C32   C     C_1   0.249172 0.498606 0.500670 -0.150867
C33   C     C_1   0.750715 0.501675 0.499510 -0.123381
C34   C     C_3   0.025064 0.390394 0.550927 -0.278314
H1    H     H_    0.055394 0.526300 0.268540 0.193263
H2    H     H_    0.655593 0.772424 0.571529 0.169414
H3    H     H_    0.595002 0.642272 0.124252 0.162706
H4    H     H_    0.384949 0.328748 0.247247 0.227132
H5    H     H_    0.292128 0.188118 0.125536 0.208423
H6    H     H_    0.384991 0.329267 0.754213 0.224068
H7    H     H_    0.594979 0.642209 0.874197 0.159258
H8    H     H_    0.057716 0.675057 0.640663 0.196281
H9    H     H_    0.046444 0.299597 0.592496 0.214122
H10   H     H_    0.375687 0.115807 0.431233 0.176526
H11   H     H_    0.657223 0.237911 0.572318 0.157396
N1    N     N_R   0.499210 0.498800 0.142780 -0.113082
N2    N     N_R   0.499180 0.498720 0.857170 -0.108009
O1    O     O_R   0.500000 0.316780 0.614690 -0.629420
O2    O     O_R   0.499990 0.316750 0.385360 -0.628854
O3    O     O_R   0.376780 0.500000 0.614650 -0.620818
O4    O     O_R   0.376770 0.499980 0.385310 -0.634408
O5    O     O_R   0.500010 0.683250 0.614640 -0.606974
O6    O     O_R   0.500000 0.683220 0.385310 -0.616230
O7    O     O_R   0.623230 0.500020 0.614690 -0.613505
O8    O     O_R   0.623220 0.500000 0.385350 -0.591340
Zn1   Zn    Zn3+2 0.500010 0.500020 0.653130 0.963715
Zn2   Zn    Zn3+2 0.499990 0.499980 0.346870 0.966108
F1    F     F_    0.797918 0.876388 0.638755 -0.594087
C35   C     C_2   0.348264 0.865908 0.421158 0.455229
H12   H     H_    0.343010 0.764164 0.426399 0.056025
O9    O     O_2   0.286347 0.922734 0.382919 -0.551696
F2    F     F_    0.281200 0.172158 0.863704 -0.632394
F3    F     F_    0.936902 0.311387 0.345885 -0.612139
C36   C     C_2   0.950706 0.735442 0.392989 0.586688
H13   H     H_    0.999498 0.804166 0.362919 0.081591
O10   O     O_2   0.875822 0.759896 0.380204 -0.512425
F4    F     F_    0.939429 0.474462 0.753749 -0.610763
C37   C     C_2   0.807003 0.148698 0.640743 0.562028
H14   H     H_    0.805334 0.250758 0.641706 0.049824
O11   O     O_2   0.873735 0.098573 0.667817 -0.457880

loop_
_geom_bond_atom_site_label_1
_geom_bond_atom_site_label_2
_ccdc_geom_bond_type
C19   C23   S    
C5    H8    S    
C28   N2    A    
C9    H11   S    
O4    Zn2   S    
C10   C37   S    
C22   F2    S    
C11   F1    S    
C20   H4    S    
C9    C10   A    
C25   N2    A    
C12   O3    A    
C2    C7    S    
C21   H5    S    
C4    C8    S    
C36   H13   S    
C2    C34   S    
C17   C18   A    
C9    C15   A    
C17   H10   S    
C4    C30   S    
C35   H12   S    
C1    O1    A    
C1    C16   S    
C21   C22   A    
C12   C32   S    
C11   C13   A    
C23   O5    A    
C30   C31   S    
C3    F4    S    
C27   H3    S    
C30   F3    S    
C27   N1    A    
C24   C25   A    
C24   H6    S    
N2    Zn1   S    
C23   O6    A    
O7    Zn1   S    
C8    C33   T    
O8    Zn2   S    
N1    Zn2   S    
C5    C6    S    
C22   C24   A    
C35   O9    D    
C2    C5    S    
C16   C17   A    
C10   C11   A    
C30   C34   S    
C3    C4    S    
C6    C31   S    
C29   C33   S    
C18   C35   S    
C12   O4    A    
O2    Zn2   S    
C20   C21   A    
C13   H2    S    
C37   O11   D    
C4    C6    S    
C29   O7    A    
C28   H7    S    
C6    C36   S    
C27   C28   A    
O1    Zn1   S    
O6    Zn2   S    
C14   C15   A    
C18   C19   A    
C31   H1    S    
C7    C32   T    
C29   O8    A    
C3    C34   S    
C3    C5    S    
C25   C26   A    
C13   C14   A    
C26   N1    A    
C1    O2    A    
C14   C19   A    
C37   H14   S    
C15   C16   A    
O3    Zn1   S    
C34   H9    S    
O5    Zn1   S    
C2    C31   S    
C20   C26   A    
C36   O10   D    
