data_mof_unit_42838.cif
_audit_creation_date              2013-03-05T15:54:52-0500
_audit_creation_method            fapswitch 2.2
_symmetry_space_group_name_H-M    P1
_symmetry_Int_Tables_number       1
_space_group_crystal_system       triclinic
_cell_length_a                    12.354782
_cell_length_b                    13.207268
_cell_length_c                    14.251837
_cell_angle_alpha                 92.952786
_cell_angle_beta                  108.043713
_cell_angle_gamma                 116.999617
_cell_volume                      1918.81902779

loop_
_atom_site_label
_atom_site_type_symbol
_atom_site_description
_atom_site_fract_x
_atom_site_fract_y
_atom_site_fract_z
_atom_type_partial_charge
O1    O     O_R   0.545970 0.684450 0.528810 -0.575864
O2    O     O_R   0.687130 0.639470 0.490120 -0.599908
C1    C     C_R   0.651844 0.714561 0.510218 0.790781
O3    O     O_R   0.519670 0.535100 0.660030 -0.585030
O4    O     O_R   0.660830 0.490120 0.621340 -0.601155
C2    C     C_R   0.617483 0.514797 0.686637 0.785145
Cu1   Cu    Cu3+1 0.416420 0.526630 0.522910 0.933960
Cu2   Cu    Cu3+1 0.583580 0.473370 0.477090 0.937871
O5    O     O_R   0.312870 0.360530 0.509880 -0.596123
O6    O     O_R   0.454030 0.315550 0.471190 -0.535489
O7    O     O_R   0.339170 0.509880 0.378660 -0.579686
O8    O     O_R   0.480330 0.464900 0.339970 -0.594738
C3    C     C_R   0.343762 0.284987 0.482533 0.833644
C4    C     C_R   0.379916 0.481162 0.312916 0.787006
C5    C     C_R   0.673545 0.507356 0.791392 -0.053378
C6    C     C_R   0.306905 0.461454 0.204381 -0.084397
C7    C     C_R   0.656409 0.477004 0.953393 -0.174491
C8    C     C_R   0.610722 0.500593 0.859412 -0.192333
C9    C     C_R   0.784271 0.493874 0.819438 -0.224590
C10   C     C_R   0.827907 0.463961 0.911212 0.084857
C11   C     C_R   0.763665 0.457639 0.979444 0.079625
C12   C     C_R   0.935058 0.442482 0.937572 0.007488
C13   C     C_R   0.987291 0.430528 0.037428 -0.059049
C14   C     C_R   0.911892 0.410686 0.099452 0.472510
C15   C     C_R   0.804239 0.428227 0.071370 -0.301695
C16   C     C_R   0.989877 0.429677 0.866997 -0.185904
C17   C     C_R   0.100368 0.416942 0.896554 -0.222745
C18   C     C_R   0.164460 0.424250 0.998129 0.167501
C19   C     C_R   0.110998 0.435608 0.070184 0.089832
C20   C     C_R   0.283407 0.423549 0.029065 -0.204883
C21   C     C_R   0.353290 0.440302 0.131549 -0.209688
C22   C     C_R   0.187530 0.460557 0.173310 -0.206806
H1    H     H_    0.750552 0.416150 0.121174 0.164244
H2    H     H_    0.158245 0.484758 0.230686 0.209212
H3    H     H_    0.445096 0.439668 0.153807 0.150594
H4    H     H_    0.139104 0.406633 0.840308 0.136620
H5    H     H_    0.605951 0.471120 0.004763 0.125740
H6    H     H_    0.524474 0.510342 0.839025 0.148723
H7    H     H_    0.835256 0.507386 0.768127 0.146770
H8    H     H_    0.946913 0.425136 0.787421 0.143885
H9    H     H_    0.323471 0.412130 0.974179 0.129838
C23   C     C_R   0.116454 0.971158 0.340711 -0.279318
H10   H     H_    0.893968 0.769843 0.282318 0.146036
H11   H     H_    0.104252 0.909835 0.279459 0.153100
C24   C     C_R   0.243748 0.161845 0.455008 -0.150063
C25   C     C_R   0.743234 0.921540 0.587842 -0.188624
C26   C     C_R   0.837730 0.038741 0.610804 0.213312
C27   C     C_R   0.934551 0.072911 0.569356 -0.226575
C28   C     C_R   0.934911 0.990912 0.501389 0.068343
C29   C     C_R   0.828978 0.874931 0.469351 0.075356
C30   C     C_R   0.035637 0.021031 0.462362 0.091390
C31   C     C_R   0.020660 0.940376 0.383099 0.089177
C32   C     C_R   0.908552 0.830965 0.344975 -0.211519
C33   C     C_R   0.813812 0.798704 0.387072 -0.182353
C34   C     C_R   0.151759 0.128662 0.500685 -0.335431
C35   C     C_R   0.225401 0.083487 0.373157 0.500016
C36   C     C_R   0.739693 0.838714 0.519493 -0.153331
H12   H     H_    0.172901 0.189818 0.565790 0.167036
H13   H     H_    0.674058 0.894935 0.625590 0.159659
H14   H     H_    0.005501 0.164530 0.588831 0.125471
H15   H     H_    0.726708 0.714506 0.351913 0.166011
C37   C     C_R   0.255049 0.686121 0.661592 -0.298258
H16   H     H_    0.443588 0.707557 0.678877 0.122059
H17   H     H_    0.076608 0.724494 0.694471 0.154652
H18   H     H_    0.295663 0.759073 0.724373 0.139006
N1    N     N_R   0.290690 0.566960 0.557640 -0.180345
C38   C     C_R   0.654338 0.341257 0.364345 0.072163
C39   C     C_R   0.731391 0.304073 0.336699 -0.246551
C40   C     C_R   0.866652 0.362430 0.389220 -0.144356
C41   C     C_R   0.927451 0.460506 0.469404 -0.019101
C42   C     C_R   0.843904 0.494348 0.496161 0.285264
C43   C     C_R   0.067363 0.525543 0.524379 -0.036910
C44   C     C_R   0.119702 0.621034 0.606046 0.175622
C45   C     C_R   0.036954 0.651535 0.631889 -0.284762
C46   C     C_R   0.902651 0.590131 0.578099 -0.192984
C47   C     C_R   0.158891 0.501201 0.501981 0.026726
C48   C     C_R   0.339146 0.657447 0.636104 0.067087
N2    N     N_R   0.709100 0.433710 0.442970 -0.208531
H19   H     H_    0.127724 0.430891 0.440523 0.134648
H20   H     H_    0.549677 0.295246 0.323367 0.163123
H21   H     H_    0.921337 0.328589 0.366389 0.164866
H22   H     H_    0.685996 0.229277 0.274656 0.150801
H23   H     H_    0.848586 0.621055 0.604011 0.204867
O9    O     O_3   0.312955 0.116748 0.324367 -0.576047
C49   C     C_3   0.256636 0.140406 0.231776 -0.333619
H24   H     H_    0.329673 0.174076 0.195398 0.178530
H25   H     H_    0.229779 0.208636 0.243831 0.152518
H26   H     H_    0.169632 0.059795 0.178394 0.161619
N3    N     N_3   0.837022 0.121423 0.679785 -0.590350
H27   H     H_    0.752355 0.126556 0.644606 0.222439
H28   H     H_    0.916373 0.204731 0.692708 0.211177
O10   O     O_3   0.936101 0.366663 0.184729 -0.602930
C50   C     C_3   0.882527 0.245094 0.153660 -0.363157
H29   H     H_    0.927127 0.223723 0.104313 0.174445
H30   H     H_    0.774145 0.200798 0.114426 0.170230
H31   H     H_    0.904107 0.209692 0.221694 0.180474

loop_
_geom_bond_atom_site_label_1
_geom_bond_atom_site_label_2
_geom_bond_distance
_ccdc_geom_bond_type
C5    C8    1.400817 A    
C3    C24   1.461197 S    
C50   H29   1.112977 S    
C25   H13   1.083953 S    
C44   C45   1.391037 A    
C37   C48   1.389882 A    
C9    C10   1.402589 A    
C47   H19   1.077208 S    
C43   C47   1.423764 A    
C16   H8    1.078285 S    
Cu1   Cu2   2.700658 S    
C32   C33   1.385678 A    
C6    C21   1.402804 A    
Cu1   O7    1.931894 S    
C16   C17   1.388790 A    
C29   C33   1.412326 A    
C13   C19   1.421280 A    
C18   C19   1.416908 A    
C19   C22   1.403236 A    
C20   C21   1.392751 A    
O7    C4    1.305434 A    
O5    C3    1.300324 A    
C23   C35   1.398981 A    
C2    C5    1.467866 S    
H10   C32   1.084225 S    
C24   C35   1.407839 A    
C39   C40   1.393974 A    
C28   C30   1.420696 A    
C13   C14   1.424825 A    
C37   C44   1.402323 A    
C27   H14   1.077606 S    
C41   C42   1.433814 A    
N3    H28   1.045707 S    
C30   C34   1.400053 A    
C50   H30   1.113158 S    
Cu2   N2    2.023405 S    
C26   N3    1.436125 S    
C38   N2    1.357808 A    
C23   H11   1.084208 S    
O3    Cu1   1.939669 S    
C14   O10   1.382071 S    
C35   O9    1.382960 S    
C49   H25   1.114692 S    
C45   C46   1.387357 A    
C38   C39   1.392696 A    
C14   C15   1.393705 A    
O3    C2    1.302642 A    
C49   H24   1.109059 S    
C7    C11   1.404260 A    
C30   C31   1.418675 A    
O1    C1    1.301003 A    
C22   H2    1.078465 S    
C5    C9    1.397364 A    
C26   C27   1.399485 A    
Cu2   O8    1.939669 S    
N1    C47   1.371064 A    
C7    C8    1.394270 A    
C20   H9    1.084033 S    
C7    H5    1.084098 S    
O9    C49   1.412158 S    
C9    H7    1.077099 S    
C1    C36   1.468694 S    
C27   C28   1.417782 A    
C10   C12   1.420558 A    
C50   H31   1.108871 S    
C25   C36   1.402777 A    
C21   H3    1.083147 S    
C31   C32   1.391892 A    
H16   C48   1.081846 S    
C49   H26   1.112916 S    
Cu1   O5    1.935522 S    
N1    C48   1.354669 A    
C11   C15   1.393182 A    
C25   C26   1.391546 A    
C37   H18   1.083858 S    
O1    Cu1   1.944970 S    
C29   C36   1.414483 A    
O2    Cu2   1.935524 S    
C38   H20   1.079136 S    
O8    C4    1.299230 A    
C43   C44   1.416133 A    
O6    C3    1.299572 A    
O4    Cu2   1.931894 S    
C33   H15   1.080626 S    
C17   H4    1.084311 S    
C6    C22   1.396568 A    
C39   H22   1.082585 S    
C18   C20   1.401958 A    
O2    C1    1.302423 A    
C8    H6    1.083083 S    
Cu1   N1    2.035201 S    
C42   C46   1.407071 A    
C46   H23   1.065044 S    
O4    C2    1.301935 A    
O10   C50   1.411515 S    
C4    C6    1.468009 S    
C40   C41   1.407241 A    
C40   H21   1.075860 S    
C10   C11   1.417341 A    
C24   C34   1.393895 A    
Cu2   O6    1.944969 S    
C28   C29   1.416067 A    
C12   C16   1.416860 A    
C34   H12   1.078256 S    
C23   C31   1.400811 A    
C17   C18   1.392135 A    
H17   C45   1.084510 S    
C12   C13   1.418942 A    
C41   C43   1.443335 A    
N3    H27   1.045540 S    
C42   N2    1.390721 A    
C15   H1    1.084647 S    
