data_mof_unit_54438.cif
_audit_creation_date              2012-12-11T17:41:45-0500
_audit_creation_method            fapswitch 2.2
_symmetry_space_group_name_H-M    P1
_symmetry_Int_Tables_number       1
_space_group_crystal_system       triclinic
_cell_length_a                    15.483331
_cell_length_b                    14.830726
_cell_length_c                    15.058258
_cell_angle_alpha                 109.759369
_cell_angle_beta                  121.380328
_cell_angle_gamma                 59.174166
_cell_volume                      2523.003283

loop_
_atom_site_label
_atom_site_type_symbol
_atom_type_description
_atom_site_fract_x
_atom_site_fract_y
_atom_site_fract_z
_atom_type_partial_charge
C1    C     C_R   0.756815 0.992393 0.790969 -0.117093
C2    C     C_R   0.246313 0.299714 0.087003 -0.199094
C3    C     C_R   0.636795 0.677985 0.831390 0.491447
C4    C     C_R   0.332458 0.204590 0.074297 0.511412
C5    C     C_R   0.660823 0.746141 0.924305 -0.027036
C6    C     C_R   0.309436 0.116754 0.013647 -0.026549
C7    C     C_R   0.772814 0.725104 0.994472 -0.220530
C8    C     C_R   0.199130 0.127133 0.964241 -0.241914
C9    C     C_R   0.858987 0.639311 0.971969 -0.092029
C10   C     C_R   0.113929 0.222212 0.978028 -0.101730
C11   C     C_R   0.834589 0.573432 0.879480 -0.163733
C12   C     C_R   0.196394 0.063590 0.227792 -0.141353
C13   C     C_R   0.137542 0.308332 0.039538 -0.149588
C14   C     C_R   0.569882 0.853630 0.044632 -0.241577
C15   C     C_R   0.397734 0.999772 0.900243 -0.205583
C16   C     C_R   0.240116 0.291042 0.488881 -0.148789
C17   C     C_R   0.801691 0.725157 0.558615 -0.175026
C18   C     C_R   0.486589 0.942698 0.069170 0.086114
C19   C     C_R   0.487157 0.918665 0.880087 0.105825
C20   C     C_R   0.397632 0.015539 0.994709 0.091724
C21   C     C_R   0.570947 0.839978 0.948884 0.092816
C22   C     C_2   0.140874 0.398427 0.607670 0.445428
C23   C     C_R   0.206150 0.300195 0.562315 0.010406
C24   C     C_2   0.976361 0.650257 0.530490 0.440808
C25   C     C_2   0.136360 0.490048 0.604239 -0.168012
C26   C     C_2   0.042592 0.589142 0.609724 -0.184272
C27   C     C_2   0.849531 0.118174 0.898926 -0.209863
C28   C     C_2   0.014431 0.049899 0.157690 -0.214969
C29   C     C_R   0.089814 0.726594 0.203216 -0.121769
C30   C     C_R   0.841812 0.120836 0.404349 -0.121219
C31   C     C_R   0.191291 0.657533 0.271429 -0.142220
C32   C     C_R   0.736263 0.205013 0.378478 -0.121975
C33   C     C_R   0.291423 0.631589 0.269412 0.077976
C34   C     C_R   0.862359 0.725131 0.515780 0.025899
C35   C     C_R   0.717469 0.294153 0.450514 0.071911
C36   C     C_R   0.287928 0.676933 0.198626 -0.132744
C37   C     C_R   0.806403 0.298565 0.548086 -0.136512
C38   C     C_R   0.186133 0.745752 0.130379 -0.077070
C39   C     C_R   0.911813 0.214209 0.573605 -0.051170
C40   C     C_R   0.594536 0.216397 0.490090 -0.134397
C41   C     C_R   0.405914 0.768692 0.442727 -0.070528
C42   C     C_R   0.087124 0.769812 0.132074 -0.125487
C43   C     C_R   0.929488 0.125410 0.501833 -0.105032
C44   C     C_R   0.404577 0.458444 0.341397 -0.177097
C45   C     C_R   0.504734 0.299018 0.432526 0.080964
C46   C     C_R   0.600198 0.481249 0.423211 -0.209670
C47   C     C_R   0.506771 0.377780 0.395005 0.096784
C48   C     C_R   0.497815 0.569605 0.395073 0.049993
C49   C     C_R   0.606311 0.384115 0.422286 0.036839
C50   C     C_R   0.399040 0.553813 0.337328 0.044222
C51   C     C_2   0.863109 0.105991 0.990136 -0.095499
C52   C     C_2   0.957441 0.117033 0.085226 -0.095593
C53   C     C_R   0.405882 0.984779 0.711448 -0.107182
C54   C     C_R   0.591173 0.952012 0.266791 -0.074837
C55   C     C_R   0.410687 0.289595 0.411704 -0.101562
C56   C     C_R   0.497567 0.673932 0.445196 0.052702
C57   C     C_R   0.591261 0.693957 0.515768 -0.089063
C58   C     C_R   0.590347 0.913909 0.790544 -0.139600
C59   C     C_R   0.405731 0.017833 0.195888 -0.130516
C60   C     C_R   0.239471 0.198980 0.580102 -0.056248
C61   C     C_R   0.799994 0.815621 0.465612 -0.076222
C62   C     C_R   0.758010 0.084816 0.700771 -0.140544
C63   C     C_R   0.195070 0.971722 0.316457 -0.142081
C64   C     C_R   0.788623 0.068679 0.800791 0.147190
C65   C     C_R   0.131783 0.026188 0.228930 0.155502
C66   C     C_R   0.496087 0.933368 0.796078 0.112481
C67   C     C_R   0.495766 0.962326 0.173343 0.072785
C68   C     C_R   0.723942 0.592591 0.809539 -0.199358
Cl1   Cl    Cl    0.499404 0.694274 0.742336 -0.678753
Cl2   Cl    Cl    0.467112 0.198820 0.132362 -0.728175
Cl3   Cl    Cl    0.016621 0.633184 0.433248 -0.707751
Cl4   Cl    Cl    0.056443 0.393906 0.650770 -0.716872
H1    H     H_    0.769933 0.958548 0.852440 0.090895
H2    H     H_    0.179542 0.061123 0.915808 0.144532
H3    H     H_    0.944850 0.624017 0.026108 0.132328
H4    H     H_    0.029436 0.229344 0.940505 0.113064
H5    H     H_    0.635178 0.796481 0.101028 0.143622
H6    H     H_    0.333033 0.060451 0.847416 0.133345
H7    H     H_    0.016661 0.602002 0.669089 0.155099
H8    H     H_    0.189603 0.490556 0.578206 0.161768
H9    H     H_    0.008271 0.821884 0.078190 0.104967
H10   H     H_    0.011182 0.060275 0.521653 0.114213
H11   H     H_    0.225678 0.353746 0.454843 0.130940
H12   H     H_    0.169034 0.121657 0.180030 0.100212
H13   H     H_    0.831105 0.673347 0.613811 0.122530
H14   H     H_    0.013112 0.746006 0.205003 0.130245
H15   H     H_    0.855701 0.052176 0.348694 0.123157
H16   H     H_    0.191697 0.624658 0.325913 0.156149
H17   H     H_    0.669406 0.200827 0.302597 0.191647
H18   H     H_    0.363807 0.657873 0.195359 0.124145
H19   H     H_    0.793813 0.366878 0.604468 0.123483
H20   H     H_    0.183919 0.779943 0.075693 0.119188
H21   H     H_    0.979845 0.217736 0.648988 0.142017
H22   H     H_    0.327916 0.449599 0.305728 0.107902
H23   H     H_    0.978793 0.002501 0.156624 0.131072
H24   H     H_    0.676857 0.488342 0.451984 0.140767
H25   H     H_    0.681339 0.189794 0.512677 0.113673
H26   H     H_    0.319142 0.784276 0.401096 0.113853
H27   H     H_    0.320068 0.999770 0.683705 0.098656
H28   H     H_    0.676501 0.914706 0.277468 0.098733
H29   H     H_    0.325759 0.331853 0.358113 0.095479
H30   H     H_    0.677376 0.638662 0.540284 0.103156
H31   H     H_    0.675872 0.866934 0.839313 0.103174
H32   H     H_    0.319792 0.035687 0.143041 0.113621
H33   H     H_    0.225812 0.177045 0.631736 0.130922
H34   H     H_    0.894376 0.154323 0.897110 0.124767
H35   H     H_    0.828947 0.847690 0.437056 0.126071
H36   H     H_    0.771689 0.138310 0.680708 0.103891
H37   H     H_    0.163940 0.945857 0.348540 0.106742
H38   H     H_    0.991506 0.165350 0.085452 0.129863
H39   H     H_    0.819120 0.069568 0.992866 0.132637
H40   H     H_    0.901513 0.507115 0.862198 0.153397
H41   H     H_    0.071314 0.382171 0.049554 0.135772
H42   H     H_    0.705930 0.540450 0.738403 0.152141
H43   H     H_    0.263285 0.367556 0.132587 0.149910
H44   H     H_    0.793420 0.776211 0.065957 0.136723
N1    N     N_R   0.705410 0.966550 0.689210 -0.046290
N2    N     N_R   0.556610 0.796750 0.548620 -0.039901
N3    N     N_R   0.556610 0.951620 0.703500 -0.041004
N4    N     N_R   0.443390 0.048380 0.296500 -0.038884
N5    N     N_R   0.294590 0.131500 0.522480 -0.053379
N6    N     N_R   0.705410 0.868500 0.477520 -0.052774
N7    N     N_R   0.705410 0.023370 0.632390 -0.046403
N8    N     N_R   0.294590 0.976630 0.367610 -0.050102
N9    N     N_R   0.294590 0.033450 0.310790 -0.046940
N10   N     N_R   0.294590 0.188320 0.465660 -0.039482
N11   N     N_R   0.705410 0.811680 0.534340 -0.040840
N12   N     N_R   0.556610 0.157790 0.497330 -0.042412
N13   N     N_R   0.443390 0.842210 0.502670 -0.042778
N14   N     N_R   0.443390 0.997080 0.657540 -0.048186
N15   N     N_R   0.556610 0.002920 0.342460 -0.044135
N16   N     N_R   0.443390 0.203250 0.451380 -0.043270
Ni1   Ni    Ni4+2 0.629830 0.882720 0.617850 0.222902
Ni2   Ni    Ni4+2 0.370170 0.117280 0.382150 0.224493
Ni3   Ni    Ni4+2 0.629830 0.013030 0.487540 0.218510
Ni4   Ni    Ni4+2 0.370170 0.986970 0.512460 0.224667

loop_
_geom_bond_atom_site_label_1
_geom_bond_atom_site_label_2
_ccdc_geom_bond_type
N9    Ni2   S    
C41   N13   A    
C63   C65   A    
C59   N4    A    
C29   C42   A    
C25   H8    S    
C14   C18   A    
C3    C68   A    
N1    Ni1   S    
C33   C36   A    
C4    Cl2   S    
C63   N8    A    
C47   C49   A    
C53   H27   S    
C15   C19   A    
C54   N15   A    
C46   C49   A    
N3    Ni1   S    
C28   H23   S    
C17   H13   S    
C59   H32   S    
C14   C21   A    
C3    Cl1   S    
C24   C26   D    
C38   C42   A    
N15   Ni3   S    
C15   H6    S    
C62   H36   S    
C36   H18   S    
N4    N15   A    
C38   H20   S    
N3    N14   A    
C56   C57   A    
C12   H12   S    
C19   C66   S    
C48   C56   S    
C14   H5    S    
N6    N11   A    
C2    C13   A    
C39   H21   S    
C62   C64   A    
C33   C50   S    
C59   C67   A    
C10   H4    S    
C58   C66   A    
C22   C25   D    
C35   C49   S    
C31   C33   A    
N4    Ni2   S    
C44   C47   A    
C48   C50   A    
C54   H28   S    
C23   C60   A    
C42   H9    S    
N12   N16   A    
C22   Cl4   S    
C62   N7    A    
C27   C51   D    
C45   C47   S    
C40   C45   A    
C37   C39   A    
C46   C48   A    
C37   H19   S    
C51   C52   S    
C32   C35   A    
C58   H31   S    
C4    C6    A    
N12   Ni3   S    
C40   H25   S    
C5    C7    A    
N8    Ni4   S    
C17   N11   A    
C39   C43   A    
C12   N9    A    
C27   H34   S    
C25   C26   S    
C16   H11   S    
C24   C34   S    
N7    Ni3   S    
C61   N6    A    
C7    H44   S    
C63   H37   S    
C2    C4    A    
C41   C56   A    
C57   H30   S    
N13   Ni4   S    
C2    H43   S    
C32   H17   S    
C52   H38   S    
C15   C20   A    
C8    H2    S    
C46   H24   S    
C1    N1    A    
C53   C66   A    
C9    C11   A    
N10   Ni2   S    
C29   H14   S    
N2    Ni1   S    
C8    C10   A    
C16   C23   A    
C30   C43   A    
C17   C34   A    
C1    C64   A    
C11   C68   A    
C44   C50   A    
C7    C9    A    
C51   H39   S    
C31   H16   S    
C35   C37   A    
C11   H40   S    
C41   H26   S    
N14   Ni4   S    
N11   Ni1   S    
C3    C5    A    
C10   C13   A    
C6    C8    A    
C54   C67   A    
C6    C20   S    
C12   C65   A    
C55   H29   S    
C26   H7    S    
C1    H1    S    
C36   C38   A    
C28   C65   S    
C18   C67   S    
N5    N10   A    
C29   C31   A    
N2    N13   A    
C30   C32   A    
C28   C52   D    
C58   N3    A    
C18   C20   A    
C34   C61   A    
N5    Ni4   S    
N1    N7    A    
C60   N5    A    
C61   H35   S    
N6    Ni3   S    
C44   H22   S    
C27   C64   S    
C5    C21   S    
C45   C55   A    
N16   Ni2   S    
C55   N16   A    
C43   H10   S    
C22   C23   S    
N8    N9    A    
C53   N14   A    
C9    H3    S    
C30   H15   S    
C16   N10   A    
C13   H41   S    
C60   H33   S    
C24   Cl3   S    
C68   H42   S    
C57   N2    A    
C19   C21   A    
C40   N12   A    
