data_mof_unit_29011.cif
_audit_creation_date              2012-12-11T15:39:33-0500
_audit_creation_method            fapswitch 2.2
_symmetry_space_group_name_H-M    P1
_symmetry_Int_Tables_number       1
_space_group_crystal_system       triclinic
_cell_length_a                    17.451287
_cell_length_b                    24.147666
_cell_length_c                    15.073242
_cell_angle_alpha                 89.46224
_cell_angle_beta                  125.145025
_cell_angle_gamma                 89.876504
_cell_volume                      5193.55021607

loop_
_atom_site_label
_atom_site_type_symbol
_atom_type_description
_atom_site_fract_x
_atom_site_fract_y
_atom_site_fract_z
_atom_type_partial_charge
C1    C     C_R   0.350984 0.348942 0.908845 -0.118026
C2    C     C_R   0.455234 0.503199 0.644142 0.022210
C3    C     C_R   0.126771 0.816247 0.005309 -0.087493
C4    C     C_3   0.855114 0.283545 0.236888 0.248265
C5    C     C_3   0.913873 0.299575 0.355827 -0.834242
C6    C     C_3   0.126386 0.297380 0.796356 0.255356
C7    C     C_3   0.072765 0.337592 0.700645 -0.848072
C8    C     C_3   0.358353 0.783444 0.230191 0.262483
C9    C     C_3   0.419321 0.800250 0.348477 -0.873149
C10   C     C_3   0.667852 0.774624 0.737523 0.259555
C11   C     C_3   0.634435 0.790547 0.622584 -0.859271
C12   C     C_3   0.438196 0.632687 0.495708 0.308469
C13   C     C_R   0.053457 0.000191 0.359751 -0.007080
C14   C     C_3   0.412518 0.684666 0.529816 -0.810553
C15   C     C_3   0.715463 0.589860 0.572310 0.229855
C16   C     C_3   0.760670 0.646308 0.590753 -0.610939
C17   C     C_3   0.929993 0.140225 0.506815 0.361680
C18   C     C_3   0.925521 0.192863 0.558606 -0.835012
C19   C     C_3   0.197113 0.074604 0.585403 0.264173
C20   C     C_3   0.259385 0.124510 0.610388 -0.637299
C21   C     C_3   0.259991 0.696156 0.794735 0.280671
C22   C     C_3   0.173198 0.721269 0.692990 -0.769694
C23   C     C_3   0.664781 0.698953 0.175192 0.348801
C24   C     C_R   0.932210 0.003817 0.632931 -0.014164
C25   C     C_3   0.714497 0.746862 0.251964 -0.838461
C26   C     C_3   0.821408 0.199225 0.819559 0.340868
C27   C     C_3   0.764674 0.244518 0.735673 -0.826899
C28   C     C_3   0.211878 0.208254 0.168083 0.290674
C29   C     C_3   0.247588 0.233911 0.277133 -0.747086
C30   C     C_3   0.405595 0.339564 0.219270 0.290897
C31   C     C_3   0.442301 0.308978 0.325573 -0.751818
C32   C     C_3   0.588776 0.335472 0.781459 0.299146
C33   C     C_3   0.549502 0.305436 0.674944 -0.744684
C34   C     C_3   0.899042 0.837563 0.207198 0.268529
C35   C     C_R   0.200990 0.499971 0.637373 -0.045824
C36   C     C_3   0.930238 0.809788 0.314536 -0.720291
C37   C     C_3   0.135690 0.848833 0.821044 0.242868
C38   C     C_3   0.113937 0.861498 0.709597 -0.771824
C39   C     C_R   0.814062 0.496080 0.345630 -0.061662
C40   C     C_R   0.694043 0.000172 0.644143 -0.050813
C41   C     C_R   0.306717 0.996382 0.356554 -0.062651
C42   C     C_R   0.049826 0.540179 0.562672 0.187508
C43   C     C_R   0.954684 0.535487 0.499443 0.274198
C44   C     C_R   0.544009 0.043892 0.562805 0.217439
C45   C     C_R   0.646904 0.347683 0.093174 -0.170983
C46   C     C_R   0.448748 0.039826 0.501798 0.238425
C47   C     C_R   0.104964 0.503364 0.550885 0.066090
C48   C     C_R   0.912883 0.494306 0.422657 0.032795
C49   C     C_R   0.598072 0.003296 0.557422 0.080026
C50   C     C_R   0.405793 0.994869 0.434242 0.031602
C51   C     C_R   0.063999 0.464143 0.468884 -0.153532
C52   C     C_R   0.967162 0.460064 0.403353 -0.226600
C53   C     C_R   0.555900 0.960901 0.482337 -0.181537
C54   C     C_R   0.459294 0.957022 0.419623 -0.222231
C55   C     C_3   0.948228 0.544983 0.592883 -0.484050
C56   C     C_R   0.856526 0.847386 0.908305 -0.204604
C57   C     C_3   0.053258 0.551356 0.662399 -0.518456
C58   C     C_3   0.444539 0.058141 0.593585 -0.458710
C59   C     C_3   0.549714 0.063503 0.660210 -0.530437
C60   C     C_R   0.151254 0.676425 0.915093 -0.322964
C61   C     C_R   0.844774 0.680970 0.090856 -0.284804
C62   C     C_R   0.653680 0.178755 0.915541 -0.300759
C63   C     C_R   0.345639 0.174660 0.078438 -0.308271
C64   C     C_R   0.603043 0.221660 0.920925 0.485807
C65   C     C_R   0.391948 0.221525 0.077675 0.490412
C66   C     C_R   0.105656 0.723294 0.917425 0.471082
C67   C     C_R   0.148211 0.847894 0.092858 -0.176385
C68   C     C_R   0.898920 0.721789 0.086805 0.466851
C69   C     C_R   0.649370 0.256046 0.013184 -0.185915
C70   C     C_R   0.341054 0.260526 0.991200 -0.215733
C71   C     C_R   0.153676 0.757445 0.010304 -0.212276
C72   C     C_R   0.858445 0.754464 0.991329 -0.169633
C73   C     C_R   0.402165 0.622662 0.092450 -0.239377
C74   C     C_R   0.596986 0.625165 0.908083 -0.210142
C75   C     C_R   0.903104 0.124104 0.092008 -0.206805
C76   C     C_R   0.097217 0.121269 0.906231 -0.234285
C77   C     C_R   0.728213 0.233349 0.111223 0.452357
C78   C     C_R   0.310870 0.633471 0.003830 0.000434
C79   C     C_R   0.257045 0.243232 0.894582 0.421674
C80   C     C_R   0.229963 0.733462 0.108788 0.452079
C81   C     C_R   0.784776 0.730649 0.892481 0.429700
C82   C     C_R   0.259987 0.680380 0.107439 0.345381
C83   C     C_R   0.744676 0.681842 0.896925 0.305894
C84   C     C_R   0.762150 0.181837 0.108608 0.330741
C85   C     C_R   0.227439 0.189783 0.889256 0.337782
C86   C     C_R   0.236957 0.659634 0.008991 -0.079655
C87   C     C_R   0.759585 0.666264 0.995278 -0.095252
C88   C     C_R   0.740596 0.163356 0.009049 -0.091370
C89   C     C_R   0.685735 0.638840 0.997905 0.021522
C90   C     C_R   0.257086 0.162145 0.985772 -0.090743
C91   C     C_R   0.524334 0.553061 0.558094 0.475249
C92   C     C_R   0.576288 0.549353 0.514748 0.400947
C93   C     C_R   0.994336 0.054127 0.541691 0.433490
C94   C     C_R   0.045539 0.047460 0.498410 0.401554
C95   C     C_R   0.575586 0.499252 0.467288 -0.080146
C96   C     C_R   0.490999 0.503940 0.577012 -0.074230
C97   C     C_R   0.031672 0.999783 0.438628 -0.069935
C98   C     C_R   0.946320 0.008078 0.546606 -0.085245
C99   C     C_R   0.547265 0.450730 0.491323 -0.204853
C100  C     C_R   0.812932 0.136198 0.003062 0.014541
C101  C     C_R   0.506533 0.453029 0.546243 -0.240700
C102  C     C_R   0.975105 0.957027 0.433012 -0.205960
C103  C     C_R   0.932949 0.961090 0.486443 -0.202205
C104  C     C_R   0.559134 0.454398 0.306865 0.435015
C105  C     C_R   0.454447 0.456163 0.697862 0.414998
C106  C     C_R   0.048954 0.954455 0.303224 0.431893
C107  C     C_R   0.945840 0.956205 0.693989 0.460916
C108  C     C_R   0.250268 0.545409 0.695050 0.527547
C109  C     C_R   0.760620 0.543682 0.296966 0.478843
C110  C     C_R   0.745277 0.045731 0.698686 0.471670
C111  C     C_R   0.186972 0.133784 0.993966 -0.040722
C112  C     C_R   0.255684 0.043771 0.301534 0.516425
C113  C     C_R   0.549856 0.545817 0.302246 -0.131487
C114  C     C_R   0.460884 0.547512 0.703715 -0.068193
C115  C     C_R   0.041389 0.045984 0.298247 -0.093151
C116  C     C_R   0.946457 0.047404 0.697501 -0.086373
C117  C     C_R   0.244498 0.453864 0.700708 -0.169172
C118  C     C_R   0.761915 0.451462 0.287629 -0.128757
C119  C     C_R   0.741198 0.953753 0.704437 -0.161984
C120  C     C_R   0.256981 0.951804 0.295419 -0.146146
C121  C     C_R   0.310042 0.623505 0.911942 0.495279
C122  C     C_R   0.571269 0.500114 0.367993 -0.005251
C123  C     C_R   0.685391 0.629555 0.089154 0.495860
C124  C     C_R   0.812016 0.127179 0.910721 0.478090
C125  C     C_R   0.188414 0.125088 0.087256 0.522144
C126  C     C_R   0.430872 0.350344 0.088550 0.559620
C127  C     C_R   0.566200 0.348745 0.913649 0.554404
C128  C     C_R   0.936665 0.847585 0.087090 0.578755
C129  C     C_R   0.068592 0.849793 0.913328 0.645622
C130  C     C_R   0.371775 0.317850 0.997572 -0.045129
C131  C     C_R   0.623012 0.315082 0.005983 -0.053834
C132  C     C_R   0.882821 0.813756 0.996192 -0.055682
Cl1   Cl    Cl    0.481112 0.224383 0.821226 -0.574414
Cl2   Cl    Cl    0.375474 0.402089 0.626238 -0.662362
Cl3   Cl    Cl    0.119855 0.895955 0.370863 -0.642653
Cl4   Cl    Cl    0.881133 0.895190 0.637180 -0.643999
Cl5   Cl    Cl    0.255047 0.605214 0.631466 -0.693940
Cl6   Cl    Cl    0.773316 0.605166 0.364836 -0.734694
Cl7   Cl    Cl    0.739161 0.107267 0.631971 -0.684716
Cl8   Cl    Cl    0.256858 0.104503 0.364333 -0.726620
Cl9   Cl    Cl    0.513289 0.225543 0.178491 -0.515388
Cl10  Cl    Cl    0.988361 0.734372 0.806421 -0.564903
Cl11  Cl    Cl    0.019158 0.723642 0.193359 -0.511252
Cl12  Cl    Cl    0.316362 0.639351 0.226245 -0.694415
Cl13  Cl    Cl    0.694060 0.636555 0.786473 -0.636611
Cl14  Cl    Cl    0.819688 0.139817 0.226690 -0.692424
Cl15  Cl    Cl    0.168545 0.156879 0.763679 -0.631594
Cl16  Cl    Cl    0.633045 0.395793 0.364660 -0.657135
H1    H     H_    0.321387 0.334743 0.827579 0.230308
H2    H     H_    0.075564 0.594329 0.690974 0.252139
H3    H     H_    0.397644 0.318801 0.353946 0.184880
H4    H     H_    0.441606 0.263646 0.313579 0.265423
H5    H     H_    0.656794 0.315249 0.844942 0.031441
H6    H     H_    0.602355 0.379296 0.771554 0.069519
H7    H     H_    0.474927 0.316523 0.613961 0.295318
H8    H     H_    0.589388 0.317033 0.641032 0.182377
H9    H     H_    0.554816 0.259931 0.688917 0.261529
H10   H     H_    0.833667 0.816794 0.141551 0.042067
H11   H     H_    0.882483 0.881884 0.208805 0.064495
H12   H     H_    0.002079 0.822412 0.380737 0.293301
H13   H     H_    0.420117 0.025038 0.623378 0.193516
H14   H     H_    0.882396 0.821940 0.337276 0.180592
H15   H     H_    0.929330 0.764058 0.306964 0.267806
H16   H     H_    0.176620 0.809501 0.852065 0.084067
H17   H     H_    0.179731 0.883269 0.875689 0.050585
H18   H     H_    0.081956 0.903327 0.681663 0.242195
H19   H     H_    0.179681 0.860723 0.714045 0.192491
H20   H     H_    0.064751 0.830453 0.650034 0.281650
H21   H     H_    0.573700 0.107067 0.679395 0.247935
H22   H     H_    0.120646 0.654282 0.840156 0.217958
H23   H     H_    0.869795 0.660539 0.167311 0.226379
H24   H     H_    0.625055 0.157480 0.839986 0.205952
H25   H     H_    0.377558 0.148983 0.150881 0.220774
H26   H     H_    0.547771 0.411119 0.459621 0.195481
H27   H     H_    0.485232 0.414327 0.561314 0.201605
H28   H     H_    0.960542 0.920931 0.384298 0.170740
H29   H     H_    0.676352 0.334332 0.175289 0.237397
H30   H     H_    0.891056 0.926862 0.480882 0.218046
H31   H     H_    0.432302 0.629242 0.176612 0.193071
H32   H     H_    0.568100 0.632425 0.824036 0.203592
H33   H     H_    0.933768 0.132213 0.175627 0.188525
H34   H     H_    0.067062 0.125384 0.821474 0.223415
H35   H     H_    0.560550 0.588757 0.324922 0.189825
H36   H     H_    0.445202 0.590214 0.679080 0.192768
H37   H     H_    0.049182 0.088842 0.321166 0.194748
H38   H     H_    0.924338 0.089651 0.672163 0.190800
H39   H     H_    0.227351 0.410994 0.677821 0.175409
H40   H     H_    0.827742 0.835338 0.826434 0.230891
H41   H     H_    0.779673 0.408055 0.306169 0.153167
H42   H     H_    0.723096 0.910919 0.682571 0.151411
H43   H     H_    0.272874 0.908356 0.316328 0.158246
H44   H     H_    0.106521 0.435501 0.459236 0.167781
H45   H     H_    0.934973 0.430212 0.338521 0.143401
H46   H     H_    0.597351 0.929634 0.476423 0.158236
H47   H     H_    0.426926 0.924608 0.360028 0.144468
H48   H     H_    0.839332 0.321511 0.186512 0.070718
H49   H     H_    0.898421 0.254818 0.224774 0.098490
H50   H     H_    0.938792 0.261712 0.407674 0.264217
H51   H     H_    0.178426 0.834116 0.174952 0.234450
H52   H     H_    0.975810 0.323485 0.374826 0.205156
H53   H     H_    0.871955 0.325203 0.374259 0.254744
H54   H     H_    0.147626 0.319957 0.871394 0.061552
H55   H     H_    0.078495 0.263054 0.783292 0.106868
H56   H     H_    0.053087 0.316977 0.624745 0.267555
H57   H     H_    0.008027 0.351965 0.691441 0.212870
H58   H     H_    0.116755 0.374077 0.714467 0.238961
H59   H     H_    0.341988 0.820916 0.178413 0.073505
H60   H     H_    0.400031 0.753778 0.217156 0.087207
H61   H     H_    0.443063 0.762758 0.401278 0.266699
H62   H     H_    0.911283 0.584135 0.584667 0.242151
H63   H     H_    0.481846 0.822677 0.365435 0.207775
H64   H     H_    0.379254 0.827492 0.367263 0.253767
H65   H     H_    0.669157 0.812593 0.779660 0.064648
H66   H     H_    0.615987 0.745572 0.732167 0.120872
H67   H     H_    0.622433 0.752700 0.575032 0.270857
H68   H     H_    0.567809 0.814448 0.582726 0.207040
H69   H     H_    0.687563 0.816369 0.623831 0.272783
H70   H     H_    0.374421 0.606432 0.449314 0.146756
H71   H     H_    0.460404 0.645747 0.442907 0.184174
H72   H     H_    0.473772 0.712442 0.574253 0.238666
H73   H     H_    0.090746 0.518490 0.725963 0.196266
H74   H     H_    0.354276 0.706942 0.456738 0.271633
H75   H     H_    0.389419 0.673895 0.582641 0.263288
H76   H     H_    0.736294 0.563172 0.529643 0.127000
H77   H     H_    0.742673 0.571082 0.653383 0.141908
H78   H     H_    0.739495 0.673954 0.631641 0.296966
H79   H     H_    0.838116 0.641887 0.643114 0.217570
H80   H     H_    0.738358 0.665530 0.512013 0.252116
H81   H     H_    0.859444 0.120718 0.461760 0.135276
H82   H     H_    0.947846 0.152206 0.449427 0.177271
H83   H     H_    0.992343 0.215690 0.596931 0.276234
H84   H     H_    0.409326 0.098930 0.578021 0.251288
H85   H     H_    0.867486 0.219905 0.495546 0.250215
H86   H     H_    0.912749 0.182928 0.621067 0.248653
H87   H     H_    0.218580 0.041246 0.553237 0.102535
H88   H     H_    0.208783 0.060102 0.662826 0.131990
H89   H     H_    0.238578 0.159331 0.639813 0.304243
H90   H     H_    0.333565 0.113279 0.673837 0.202602
H91   H     H_    0.252826 0.138802 0.536296 0.264508
H92   H     H_    0.319042 0.696982 0.785872 0.135118
H93   H     H_    0.278109 0.722819 0.864316 0.036921
H94   H     H_    0.190494 0.762333 0.675665 0.203866
H95   H     H_    0.587123 0.033939 0.730082 0.193032
H96   H     H_    0.147525 0.694434 0.621960 0.304976
H97   H     H_    0.116473 0.726319 0.704952 0.251327
H98   H     H_    0.625818 0.675526 0.201132 0.127720
H99   H     H_    0.613436 0.717003 0.092560 0.033049
H100  H     H_    0.742970 0.774558 0.218714 0.226210
H101  H     H_    0.664017 0.770865 0.259183 0.201073
H102  H     H_    0.772335 0.731393 0.333646 0.303280
H103  H     H_    0.867216 0.178906 0.799993 0.125296
H104  H     H_    0.866769 0.219583 0.900062 0.035116
H105  H     H_    0.731787 0.271087 0.764598 0.221109
H106  H     H_    0.924042 0.507860 0.614225 0.196530
H107  H     H_    0.811539 0.270501 0.725368 0.205039
H108  H     H_    0.709674 0.226493 0.656255 0.307898
H109  H     H_    0.133705 0.211224 0.117325 0.056024
H110  H     H_    0.237906 0.233325 0.128505 0.062338
H111  H     H_    0.323417 0.224839 0.336489 0.274328
H112  H     H_    0.236280 0.279456 0.267141 0.177394
H113  H     H_    0.208533 0.217186 0.308937 0.274890
H114  H     H_    0.336912 0.320993 0.155610 0.029871
H115  H     H_    0.394261 0.383891 0.228561 0.076661
H116  H     H_    0.515200 0.321272 0.389084 0.282544
N1    N     N_R   0.394180 0.396910 0.943210 -0.099313
N2    N     N_R   0.474350 0.471570 0.793850 -0.089048
N3    N     N_R   0.025650 0.971570 0.206150 -0.092500
N4    N     N_R   0.974350 0.971570 0.793850 -0.088320
N5    N     N_R   0.319480 0.528420 0.793810 -0.098285
N6    N     N_R   0.680520 0.528420 0.206190 -0.098612
N7    N     N_R   0.819480 0.028420 0.793810 -0.103660
N8    N     N_R   0.180520 0.028420 0.206190 -0.096272
N9    N     N_R   0.525640 0.528390 0.206120 -0.071262
N10   N     N_R   0.474360 0.528390 0.793880 -0.080430
N11   N     N_R   0.025640 0.028390 0.206120 -0.074912
N12   N     N_R   0.605820 0.396910 0.056790 -0.092521
N13   N     N_R   0.974360 0.028390 0.793880 -0.084220
N14   N     N_R   0.319490 0.471590 0.793840 -0.068453
N15   N     N_R   0.680510 0.471590 0.206160 -0.063818
N16   N     N_R   0.819490 0.971590 0.793840 -0.064430
N17   N     N_R   0.180510 0.971590 0.206160 -0.071408
N18   N     N_R   0.394130 0.603080 0.943110 -0.101359
N19   N     N_R   0.605870 0.603080 0.056890 -0.119758
N20   N     N_R   0.894130 0.103080 0.943110 -0.116580
N21   N     N_R   0.105870 0.103080 0.056890 -0.095747
N22   N     N_R   0.450990 0.396900 0.056840 -0.108550
N23   N     N_R   0.894180 0.896910 0.943210 -0.091510
N24   N     N_R   0.549010 0.396900 0.943160 -0.107994
N25   N     N_R   0.950990 0.896900 0.056840 -0.110802
N26   N     N_R   0.049010 0.896900 0.943160 -0.111713
N27   N     N_R   0.105820 0.896910 0.056790 -0.097669
N28   N     N_R   0.450950 0.603070 0.056740 -0.087541
N29   N     N_R   0.549050 0.603070 0.943260 -0.083535
N30   N     N_R   0.950950 0.103070 0.056740 -0.078174
N31   N     N_R   0.049050 0.103070 0.943260 -0.091826
N32   N     N_R   0.525650 0.471570 0.206150 -0.088274
Ni1   Ni    Ni4+2 0.434860 0.434850 0.869700 0.278270
Ni2   Ni    Ni4+2 0.565140 0.434850 0.130300 0.280683
Ni3   Ni    Ni4+2 0.934860 0.934850 0.869700 0.272476
Ni4   Ni    Ni4+2 0.065140 0.934850 0.130300 0.272458
Ni5   Ni    Ni4+2 0.565130 0.565140 0.130240 0.214195
Ni6   Ni    Ni4+2 0.434870 0.565140 0.869760 0.231647
Ni7   Ni    Ni4+2 0.065130 0.065140 0.130240 0.246548
Ni8   Ni    Ni4+2 0.934870 0.065140 0.869760 0.210032
O1    O     O_3   0.770595 0.259230 0.210146 -0.574275
O2    O     O_3   0.731466 0.663956 0.177831 -0.607406
O3    O     O_3   0.760415 0.159975 0.818388 -0.624279
O4    O     O_3   0.245343 0.152957 0.183383 -0.603092
O5    O     O_3   0.472551 0.335338 0.195257 -0.545178
O6    O     O_3   0.522749 0.333612 0.807285 -0.548268
O7    O     O_3   0.972031 0.833617 0.192747 -0.546813
O8    O     O_3   0.050895 0.843356 0.812297 -0.550550
O9    O     O_3   0.205643 0.276922 0.803332 -0.589345
O10   O     O_3   0.274504 0.760057 0.207072 -0.577740
O11   O     O_3   0.758702 0.750812 0.792508 -0.569368
O12   O     O_3   0.512516 0.604466 0.588355 -0.606827
O13   O     O_3   0.617185 0.596974 0.508757 -0.633279
O14   O     O_3   0.999601 0.104248 0.588073 -0.601273
O15   O     O_3   0.102655 0.090154 0.508091 -0.614108
O16   O     O_3   0.241232 0.640895 0.807986 -0.647749

loop_
_geom_bond_atom_site_label_1
_geom_bond_atom_site_label_2
_ccdc_geom_bond_type
C63   C65   A    
C17   O14   S    
C19   C20   S    
C35   C47   S    
C33   H8    S    
C57   H73   S    
N3    N11   A    
C106  N3    A    
N15   Ni2   S    
C24   C98   S    
C108  N5    A    
N4    Ni3   S    
N5    Ni6   S    
C95   C99   A    
C67   N27   A    
C68   Cl11  S    
C80   O10   S    
C126  O5    S    
C62   C64   A    
C91   C96   A    
C83   Cl13  S    
C25   H101  S    
C16   H80   S    
C113  C122  A    
C41   C112  A    
C111  C125  A    
N23   N25   A    
C11   H68   S    
N19   Ni5   S    
C10   O11   S    
C21   C22   S    
C53   H46   S    
C14   H72   S    
C7    H58   S    
N10   Ni6   S    
C12   H70   S    
C129  O8    S    
C44   C46   A    
C63   H25   S    
C5    H52   S    
C38   H19   S    
C85   C90   A    
C125  N21   A    
C51   C52   A    
C39   C109  A    
C60   C86   A    
C13   C106  A    
C40   C110  A    
C94   C97   A    
C62   C88   A    
N4    N13   A    
C100  C124  A    
N9    N32   A    
N6    N15   A    
C37   C38   S    
C68   C72   A    
C16   H78   S    
N21   N31   A    
C24   C107  A    
N30   Ni7   S    
C13   C115  A    
C32   H6    S    
C95   C122  S    
N18   N28   A    
C120  N17   A    
C99   C101  A    
C55   C57   S    
C39   C118  A    
C79   C85   A    
C21   H93   S    
C4    H48   S    
C110  Cl7   S    
C70   C79   A    
C3    C129  A    
C84   C88   A    
C4    C5    S    
C17   H82   S    
C18   H86   S    
C10   H65   S    
C6    C7    S    
C45   N12   A    
C125  O4    S    
C2    C96   S    
C6    H55   S    
C2    C114  A    
C6    O9    S    
C118  N15   A    
C99   H26   S    
C23   H98   S    
C20   H90   S    
C32   O6    S    
C73   N28   A    
C41   C120  A    
C13   C97   S    
C127  C131  A    
C58   H84   S    
N18   Ni6   S    
C48   C52   A    
C40   C119  A    
C23   O2    S    
C59   H21   S    
C112  Cl8   S    
C69   C77   A    
C19   H88   S    
C53   C54   A    
C29   H111  S    
C15   H77   S    
N26   N27   A    
C75   N30   A    
C5    H53   S    
C108  Cl5   S    
C118  H41   S    
C49   C53   A    
C104  C122  A    
C44   C59   S    
C65   C70   A    
C65   Cl9   S    
C15   H76   S    
C61   C87   A    
C36   H15   S    
C61   H23   S    
C27   H108  S    
N13   Ni8   S    
C34   H11   S    
C46   C58   S    
C28   O4    S    
C90   C111  S    
N17   Ni4   S    
C81   C83   A    
N6    Ni5   S    
C124  N20   A    
C14   H75   S    
C76   N31   A    
C82   Cl12  S    
C120  H43   S    
C113  N9    A    
C91   C92   A    
C37   H17   S    
C77   C84   A    
C109  Cl6   S    
C8    H59   S    
C117  N14   A    
C31   H3    S    
N20   N30   A    
C69   C131  S    
C17   C18   S    
N28   Ni5   S    
C64   C69   A    
C1    H1    S    
N27   Ni4   S    
C26   H104  S    
C37   H16   S    
C43   C55   S    
C129  N26   A    
C24   C116  A    
C28   H110  S    
C126  N22   A    
C101  H27   S    
C128  N25   A    
C52   H45   S    
C85   Cl15  S    
C19   O15   S    
N12   Ni2   S    
C91   O12   S    
C33   H7    S    
C84   Cl14  S    
C103  H30   S    
C113  H35   S    
N19   N29   A    
C76   C111  A    
C114  H36   S    
C34   C36   S    
C23   H99   S    
C102  C103  A    
C30   O5    S    
C10   C11   S    
C25   H100  S    
C107  N4    A    
C105  Cl2   S    
C93   O14   S    
C11   H67   S    
C107  Cl4   S    
C83   C87   A    
C104  Cl16  S    
C119  H42   S    
C7    H57   S    
C22   H96   S    
C38   H20   S    
C26   C27   S    
C50   C54   A    
C128  O7    S    
N23   Ni3   S    
N21   Ni7   S    
C123  O2    S    
C28   C29   S    
C67   H51   S    
C18   H83   S    
C30   C31   S    
C115  H37   S    
C126  C130  A    
C9    H64   S    
C98   C103  A    
C70   C130  S    
C30   H115  S    
C78   C121  A    
C77   O1    S    
N24   Ni1   S    
C72   C132  S    
C11   H69   S    
C72   C81   A    
N32   Ni2   S    
C60   C66   A    
C96   C101  A    
N2    Ni1   S    
C36   H14   S    
N7    Ni8   S    
C42   C57   S    
C33   H9    S    
C12   O12   S    
C1    C130  A    
C119  N16   A    
C17   H81   S    
C10   H66   S    
C47   C51   A    
C58   C59   S    
C82   C86   A    
C116  H38   S    
C31   H116  S    
C3    C71   S    
C109  N6    A    
C25   H102  S    
C66   C71   A    
C88   C100  S    
N7    N16   A    
C45   C131  A    
C42   C43   A    
C41   C50   S    
C22   H94   S    
C114  N10   A    
N12   N24   A    
N8    N17   A    
C38   H18   S    
C127  O6    S    
C64   Cl1   S    
C54   H47   S    
C37   O8    S    
C127  N24   A    
C74   N29   A    
C19   H87   S    
C66   Cl10  S    
C104  N32   A    
N1    Ni1   S    
C60   H22   S    
C32   C33   S    
C55   H62   S    
C40   C49   S    
N2    N10   A    
C80   C82   A    
C32   H5    S    
C92   O13   S    
N16   Ni3   S    
C94   O15   S    
C79   O9    S    
C30   H114  S    
C58   H13   S    
C27   H107  S    
C20   H89   S    
C39   C48   S    
C44   C49   A    
C16   H79   S    
C93   C94   A    
C112  N8    A    
C15   O13   S    
C18   H85   S    
C7    H56   S    
C74   C89   A    
C116  N13   A    
N9    Ni5   S    
C6    H54   S    
C110  N7    A    
N11   Ni7   S    
N14   Ni1   S    
C102  H28   S    
C15   C16   S    
C59   H95   S    
C8    H60   S    
C35   C108  A    
C81   O11   S    
C56   H40   S    
C9    H61   S    
C8    C9    S    
C97   C102  A    
C29   H113  S    
C73   C78   A    
C106  Cl3   S    
C43   C48   A    
C12   H71   S    
C45   H29   S    
C4    O1    S    
C78   C86   S    
C121  O16   S    
C26   O3    S    
C76   H34   S    
C128  C132  A    
N8    Ni7   S    
C71   C80   A    
C29   H112  S    
C117  H39   S    
C89   C123  A    
C105  N2    A    
C92   C95   A    
C57   H2    S    
C74   H32   S    
N3    Ni4   S    
C56   C132  A    
C27   H105  S    
N1    N22   A    
C34   H10   S    
C4    H49   S    
C12   C14   S    
C35   C117  A    
C121  N18   A    
C75   H33   S    
N20   Ni8   S    
C21   O16   S    
C8    O10   S    
N25   Ni4   S    
C14   H74   S    
C3    C67   A    
N26   Ni3   S    
C22   H97   S    
C5    H50   S    
C20   H91   S    
C62   H24   S    
C46   C50   A    
C2    C105  A    
C55   H106  S    
C87   C89   S    
C34   O7    S    
C123  N19   A    
C31   H4    S    
C61   C68   A    
C9    H63   S    
C63   C90   A    
C75   C100  A    
N5    N14   A    
C56   N23   A    
C42   C47   A    
C23   C25   S    
C26   H103  S    
C36   H12   S    
C73   H31   S    
C115  N11   A    
C21   H92   S    
C1    N1    A    
C28   H109  S    
N22   Ni2   S    
C124  O3    S    
N29   Ni6   S    
C93   C98   A    
C51   H44   S    
N31   Ni8   S    
