data_mof_unit_15730.cif
_audit_creation_date              2013-03-05T16:48:48-0500
_audit_creation_method            fapswitch 2.2
_symmetry_space_group_name_H-M    P1
_symmetry_Int_Tables_number       1
_space_group_crystal_system       triclinic
_cell_length_a                    10.887679
_cell_length_b                    10.915141
_cell_length_c                    13.122908
_cell_angle_alpha                 90.956988
_cell_angle_beta                  89.882345
_cell_angle_gamma                 89.111491
_cell_volume                      1559.12443269

loop_
_atom_site_label
_atom_site_type_symbol
_atom_site_description
_atom_site_fract_x
_atom_site_fract_y
_atom_site_fract_z
_atom_type_partial_charge
O1    O     O_R   0.499980 0.319630 0.578260 -0.587181
O2    O     O_R   0.500020 0.680370 0.421740 -0.587223
O3    O     O_R   0.500000 0.319650 0.421740 -0.569900
O4    O     O_R   0.500000 0.680350 0.578260 -0.569906
C1    C     C_R   0.495065 0.259584 0.498906 0.844062
C2    C     C_R   0.504887 0.740420 0.501095 0.844096
O5    O     O_R   0.319630 0.500000 0.578260 -0.574013
O6    O     O_R   0.680370 0.500000 0.421740 -0.574115
O7    O     O_R   0.319650 0.500020 0.421740 -0.568150
O8    O     O_R   0.680350 0.499980 0.578260 -0.567832
C3    C     C_R   0.259792 0.501350 0.500082 0.843033
C4    C     C_R   0.740208 0.498675 0.499916 0.843194
Cu1   Cu    Cu3+1 0.499990 0.499990 0.592680 1.022916
Cu2   Cu    Cu3+1 0.500010 0.500010 0.407320 1.022822
H1    H     H_    0.286733 0.918555 0.210816 0.162876
H2    H     H_    0.713605 0.081474 0.789398 0.162899
C5    C     C_R   0.209509 0.873841 0.356141 -0.090047
C6    C     C_R   0.790202 0.126316 0.643869 -0.090420
H3    H     H_    0.227444 0.962665 0.390230 0.158529
H4    H     H_    0.771971 0.037580 0.609741 0.158494
C7    C     C_R   0.153593 0.784124 0.413625 -0.178165
C8    C     C_R   0.845991 0.216040 0.586301 -0.178307
H5    H     H_    0.128409 0.804980 0.492002 0.188186
H6    H     H_    0.870784 0.195281 0.507825 0.188156
C9    C     C_R   0.128250 0.668779 0.370360 -0.029007
C10   C     C_R   0.871748 0.331251 0.629629 -0.028635
C11   C     C_R   0.160933 0.642760 0.267066 0.396749
C12   C     C_R   0.839621 0.357120 0.733046 0.396390
C13   C     C_R   0.218783 0.734658 0.211005 -0.174912
C14   C     C_R   0.781903 0.265243 0.789208 -0.174880
H7    H     H_    0.246048 0.718000 0.132555 0.175629
H8    H     H_    0.755064 0.281849 0.867766 0.175585
C15   C     C_R   0.242484 0.849060 0.255156 -0.177491
C16   C     C_R   0.757760 0.150971 0.744996 -0.177075
C17   C     C_R   0.934440 0.579809 0.435321 -0.062285
C18   C     C_R   0.065559 0.420214 0.564672 -0.062534
C19   C     C_R   0.872697 0.499298 0.499843 -0.109810
C20   C     C_R   0.127304 0.500721 0.500146 -0.109916
C21   C     C_R   0.937452 0.419971 0.565118 0.035315
C22   C     C_R   0.062548 0.580048 0.434868 0.035551
H9    H     H_    0.409296 0.226023 0.028489 0.178922
H10   H     H_    0.590201 0.774075 0.971593 0.178755
C23   C     C_R   0.338291 0.207595 0.180309 -0.068477
C24   C     C_R   0.661382 0.792539 0.819833 -0.068978
H11   H     H_    0.249739 0.247914 0.162246 0.216452
H12   H     H_    0.749939 0.752286 0.837977 0.216072
C25   C     C_R   0.361840 0.166702 0.278623 -0.185483
C26   C     C_R   0.637927 0.833407 0.721496 -0.185148
H13   H     H_    0.290039 0.174825 0.335721 0.154525
H14   H     H_    0.709804 0.825337 0.664460 0.154620
C27   C     C_R   0.476246 0.113345 0.302920 -0.013634
C28   C     C_R   0.523512 0.886670 0.697096 -0.013635
C29   C     C_R   0.568731 0.102451 0.226731 0.363339
C30   C     C_R   0.430923 0.897497 0.773202 0.363422
C31   C     C_R   0.542542 0.143094 0.127790 -0.208068
C32   C     C_R   0.457018 0.856885 0.872168 -0.207709
H15   H     H_    0.611367 0.135753 0.068239 0.181633
H16   H     H_    0.388114 0.864177 0.931659 0.181669
C33   C     C_R   0.428102 0.194937 0.104869 -0.193967
C34   C     C_R   0.571467 0.805135 0.895194 -0.194227
C35   C     C_R   0.499731 0.931888 0.409303 -0.179553
C36   C     C_R   0.500128 0.068118 0.590702 -0.179786
H17   H     H_    0.497669 0.879078 0.338573 0.165071
H18   H     H_    0.502194 0.120928 0.661433 0.165109
C37   C     C_R   0.506082 0.872926 0.502945 -0.088617
C38   C     C_R   0.493805 0.127081 0.497060 -0.088725
C39   C     C_R   0.507983 0.941601 0.595081 0.052787
C40   C     C_R   0.491861 0.058407 0.404925 0.052893
N1    N     N_1   0.500030 0.500030 0.268070 -0.132492
N2    N     N_1   0.499970 0.499970 0.731930 -0.132380
C41   C     C_1   0.499997 0.500142 0.173583 0.198136
C42   C     C_1   0.500004 0.499856 0.826417 0.197680
C43   C     C_1   0.499997 0.500106 0.050686 -0.039857
C44   C     C_1   0.500005 0.499890 0.949314 -0.040414
N3    N     N_R   0.688609 0.051630 0.248346 0.122684
O9    O     O_R   0.737080 0.064383 0.338395 -0.370154
O10   O     O_R   0.755146 0.002967 0.175302 -0.337016
N4    N     N_R   0.311038 0.948230 0.751480 0.122715
O11   O     O_R   0.262700 0.935459 0.661383 -0.370191
O12   O     O_R   0.244366 0.996830 0.824466 -0.336888
N5    N     N_R   0.136724 0.526082 0.217926 0.114212
O13   O     O_R   0.108565 0.430238 0.270234 -0.374948
O14   O     O_R   0.148278 0.513410 0.119521 -0.346169
N6    N     N_R   0.864351 0.473638 0.782210 0.113911
O15   O     O_R   0.890494 0.569961 0.729762 -0.375281
O16   O     O_R   0.855019 0.485708 0.880821 -0.344629
C45   C     C_1   0.866799 0.666162 0.372648 0.278221
N7    N     N_1   0.812990 0.735038 0.322851 -0.193666
C46   C     C_1   0.133197 0.333845 0.627330 0.278240
N8    N     N_1   0.187005 0.264955 0.677115 -0.193650

loop_
_geom_bond_atom_site_label_1
_geom_bond_atom_site_label_2
_geom_bond_distance
_ccdc_geom_bond_type
C18   C46   1.453972 S    
C38   C40   1.412271 A    
C45   N7    1.157486 T    
C31   C33   1.395901 A    
C11   C13   1.409418 A    
C43   C44   1.330270 T    
O7    Cu2   1.972410 S    
N5    O13   1.301031 A    
C25   H13   1.083354 S    
C29   N3    1.440843 S    
O5    C3    1.216602 A    
C36   C39   1.384440 A    
O1    C1    1.222850 A    
C17   C19   1.407823 A    
N6    O16   1.302170 A    
C9    C22   1.487521 S    
N4    O12   1.301509 A    
C10   C21   1.487480 S    
C12   N6    1.445744 S    
Cu1   N2    1.827368 S    
C13   C15   1.395703 A    
O4    Cu1   1.980874 S    
C35   H17   1.084858 S    
C4    C19   1.442621 S    
N1    C41   1.239969 T    
C36   H18   1.084868 S    
H2    C16   1.082122 S    
C17   C45   1.453972 S    
C2    C37   1.446381 S    
C24   H12   1.081983 S    
C37   C39   1.412280 A    
C14   H8    1.082543 S    
C23   C33   1.393773 A    
O7    C3    1.215875 A    
C26   H14   1.083350 S    
Cu1   Cu2   2.432465 S    
O2    C2    1.222858 A    
C5    C15   1.393315 A    
N5    O14   1.302084 A    
C28   C30   1.419825 A    
C29   C31   1.407390 A    
C7    H5    1.083497 S    
C30   C32   1.407388 A    
C36   C38   1.398009 A    
C11   N5    1.446002 S    
N6    O15   1.301066 A    
H9    C33   1.082482 S    
C42   C44   1.612751 S    
H10   C34   1.082481 S    
C41   C43   1.612749 S    
C14   C16   1.395742 A    
N4    O11   1.301393 A    
C25   C27   1.406324 A    
C5    C7    1.392828 A    
C32   C34   1.395892 A    
C27   C29   1.419832 A    
C3    C20   1.442613 S    
N3    O9    1.301398 A    
C6    C16   1.393385 A    
O5    Cu1   1.973185 S    
O6    C4    1.216578 A    
C23   H11   1.081977 S    
O3    Cu2   1.980874 S    
O8    C4    1.215896 A    
O4    C2    1.217041 A    
C31   H15   1.082723 S    
Cu2   N1    1.827369 S    
C8    H6    1.083490 S    
O1    Cu1   1.974583 S    
C7    C9    1.403975 A    
O6    Cu2   1.973182 S    
C6    C8    1.392874 A    
C18   C21   1.394830 A    
C28   C39   1.484886 S    
C1    C38   1.446374 S    
O3    C1    1.217053 A    
O8    Cu1   1.972410 S    
C9    C11   1.423633 A    
C10   C12   1.423406 A    
C12   C14   1.409294 A    
C17   C22   1.394846 A    
C19   C21   1.410270 A    
C20   C22   1.410294 A    
C35   C40   1.384451 A    
C24   C34   1.393772 A    
C18   C20   1.407826 A    
C5    H3    1.081647 S    
C32   H16   1.082718 S    
C6    H4    1.081636 S    
C27   C40   1.484904 S    
O2    Cu2   1.974581 S    
C35   C37   1.398015 A    
C26   C28   1.406313 A    
C13   H7    1.082524 S    
C8    C10   1.403943 A    
N3    O10   1.301519 A    
N2    C42   1.239970 T    
C46   N8    1.157487 T    
C23   C25   1.395181 A    
H1    C15   1.082121 S    
C24   C26   1.395189 A    
C30   N4    1.440846 S    
