data_mof_unit_68188.cif
_audit_creation_date              2013-03-05T16:03:13-0500
_audit_creation_method            fapswitch 2.2
_symmetry_space_group_name_H-M    P1
_symmetry_Int_Tables_number       1
_space_group_crystal_system       triclinic
_cell_length_a                    7.000426
_cell_length_b                    13.792728
_cell_length_c                    16.632087
_cell_angle_alpha                 89.964129
_cell_angle_beta                  88.436737
_cell_angle_gamma                 90.024536
_cell_volume                      1605.31251569

loop_
_atom_site_label
_atom_site_type_symbol
_atom_site_description
_atom_site_fract_x
_atom_site_fract_y
_atom_site_fract_z
_atom_type_partial_charge
O1    O     O_R   0.361630 0.167340 0.164570 -0.582439
O2    O     O_R   0.638370 0.832660 0.835430 -0.583827
O3    O     O_R   0.690860 0.157560 0.338690 -0.557272
O4    O     O_R   0.309140 0.842440 0.661310 -0.556754
O5    O     O_R   0.861260 0.336420 0.339380 -0.581938
O6    O     O_R   0.138740 0.663580 0.660620 -0.568435
C1    C     C_R   0.519817 0.131634 0.365401 1.014578
C2    C     C_R   0.480010 0.865946 0.633158 1.037527
O7    O     O_R   0.691330 0.156310 0.165190 -0.573761
O8    O     O_R   0.308670 0.843690 0.834810 -0.575472
O9    O     O_R   0.861730 0.335160 0.164640 -0.598225
O10   O     O_R   0.138270 0.664840 0.835360 -0.598885
C3    C     C_R   0.523799 0.132413 0.137568 0.923988
C4    C     C_R   0.476354 0.870624 0.860280 0.919361
O11   O     O_R   0.361150 0.168600 0.339320 -0.559629
O12   O     O_R   0.638850 0.831400 0.660680 -0.563550
O13   O     O_3   0.527950 0.310560 0.252000 -0.264453
O14   O     O_3   0.472050 0.689440 0.748000 -0.263091
V1    V     V_3+5 0.802770 0.240990 0.251980 1.283792
V2    V     V_3+5 0.197230 0.759010 0.748020 1.285989
O15   O     O_R   0.191450 0.346190 0.165260 -0.608877
O16   O     O_R   0.808550 0.653810 0.834740 -0.607800
C5    C     C_R   0.023910 0.372566 0.139819 0.902586
C6    C     C_R   0.975799 0.630157 0.862193 0.901025
O17   O     O_R   0.190980 0.347440 0.338770 -0.551587
O18   O     O_R   0.809020 0.652560 0.661230 -0.553174
C7    C     C_R   0.020201 0.370086 0.366669 1.020009
C8    C     C_R   0.979969 0.628395 0.634243 1.028843
V3    V     V_3+5 0.302780 0.262760 0.251980 1.269008
V4    V     V_3+5 0.697220 0.737240 0.748020 1.272795
O19   O     O_3   0.027730 0.193200 0.251960 -0.237526
O20   O     O_3   0.972270 0.806800 0.748040 -0.240825
C9    C     C_3   0.927290 0.411968 0.522020 -0.017413
C10   C     C_3   0.072310 0.582659 0.480546 -0.047616
C11   C     C_3   0.104439 0.457559 0.561639 -0.178961
C12   C     C_3   0.894990 0.537252 0.441393 -0.227687
H1    H     H_    0.189045 0.424227 0.609865 0.224785
H2    H     H_    0.801475 0.566914 0.394896 0.251282
C13   C     C_3   0.995645 0.556840 0.565578 -0.340532
C14   C     C_3   0.004488 0.438568 0.437135 -0.376823
C15   C     C_3   0.821342 0.509455 0.527197 0.425198
C16   C     C_3   0.178265 0.485485 0.475851 0.461140
C17   C     C_R   0.997009 0.705404 0.022668 -0.372076
C18   C     C_R   0.011873 0.298658 0.978812 -0.370073
C19   C     C_R   0.013572 0.747772 0.098554 0.224853
C20   C     C_R   0.991675 0.257016 0.902708 0.230177
C21   C     C_R   0.025583 0.686496 0.166377 0.290057
C22   C     C_R   0.972808 0.319041 0.835654 0.272330
C23   C     C_R   0.024318 0.585070 0.156293 -0.379507
C24   C     C_R   0.972030 0.419983 0.846871 -0.364624
C25   C     C_R   0.013606 0.542187 0.079486 0.079617
C26   C     C_R   0.986778 0.461965 0.923469 0.075857
C27   C     C_R   0.997732 0.603909 0.011490 0.055708
C28   C     C_R   0.006227 0.400080 0.990937 0.054839
C29   C     C_R   0.017738 0.439636 0.069342 -0.222876
C30   C     C_R   0.982956 0.564121 0.933352 -0.223065
H3    H     H_    0.982356 0.753432 0.971814 0.193881
H4    H     H_    0.026513 0.250135 0.029335 0.195996
H5    H     H_    0.035016 0.540111 0.209385 0.162175
H6    H     H_    0.959006 0.465674 0.794377 0.167650
C31   C     C_3   0.391182 0.957919 0.438568 -0.208298
C32   C     C_3   0.609310 0.034194 0.557486 -0.226824
C33   C     C_3   0.567937 0.910037 0.477290 -0.037255
C34   C     C_3   0.432321 0.082080 0.519682 -0.058467
H7    H     H_    0.303993 0.925121 0.390981 0.228202
H8    H     H_    0.711629 0.060789 0.601648 0.262215
C35   C     C_3   0.495489 0.936748 0.562595 -0.348050
C36   C     C_3   0.504312 0.056759 0.433771 -0.321106
C37   C     C_3   0.322273 0.985831 0.525023 0.454367
C38   C     C_3   0.678079 0.006501 0.471167 0.438222
C39   C     C_R   0.496667 0.208206 0.971751 -0.036972
C40   C     C_R   0.499458 0.796383 0.027047 -0.033776
C41   C     C_R   0.481228 0.244485 0.893514 -0.157869
C42   C     C_R   0.517684 0.761329 0.105816 -0.169750
C43   C     C_R   0.468632 0.180695 0.828346 0.434299
C44   C     C_R   0.536054 0.826544 0.169883 0.441698
C45   C     C_R   0.466083 0.080314 0.842110 -0.160997
C46   C     C_R   0.528446 0.925998 0.154936 -0.168284
C47   C     C_R   0.480975 0.040602 0.920120 0.093893
C48   C     C_R   0.513965 0.964206 0.076949 0.063893
C49   C     C_R   0.497584 0.105621 0.986797 0.141778
C50   C     C_R   0.499001 0.898849 0.010755 0.141551
C51   C     C_R   0.482716 0.937575 0.931473 -0.177495
C52   C     C_R   0.515424 0.066626 0.065723 -0.185520
H9    H     H_    0.456428 0.033484 0.790173 0.115119
H10   H     H_    0.538805 0.973815 0.206124 0.129427
N1    N     N_R   0.130600 0.972439 0.559437 0.250641
O21   O     O_R   0.041402 0.891507 0.546273 -0.431539
O22   O     O_R   0.074184 0.026028 0.619807 -0.362460
N2    N     N_R   0.870719 0.021676 0.438121 0.248566
O23   O     O_R   0.957679 0.102739 0.453214 -0.413153
O24   O     O_R   0.932436 0.969150 0.378003 -0.336107
N3    N     N_R   0.576673 0.794894 0.249915 0.248988
O25   O     O_R   0.523997 0.710298 0.277112 -0.385131
O26   O     O_R   0.666285 0.853219 0.297110 -0.376867
N4    N     N_R   0.478466 0.216082 0.747203 0.246316
O27   O     O_R   0.399054 0.297429 0.726903 -0.393018
O28   O     O_R   0.588954 0.172397 0.695075 -0.405118
N5    N     N_3   0.514057 0.277814 0.035252 -0.189201
H11   H     H_    0.395544 0.323719 0.035007 0.144255
H12   H     H_    0.635655 0.319974 0.024019 0.136391
N6    N     N_3   0.484627 0.725785 0.964196 -0.184311
H13   H     H_    0.606129 0.681921 0.964355 0.141698
H14   H     H_    0.366349 0.681647 0.976365 0.139301
N7    N     N_3   0.486333 0.347709 0.882051 -0.212883
H15   H     H_    0.593288 0.365354 0.839716 0.186411
H16   H     H_    0.355211 0.370630 0.860779 0.164236
N8    N     N_3   0.522892 0.658305 0.117990 -0.211425
H17   H     H_    0.406533 0.637659 0.154499 0.174702
H18   H     H_    0.648551 0.639795 0.146403 0.168195
N9    N     N_3   0.848280 0.316727 0.542150 -0.115868
H19   H     H_    0.714854 0.326761 0.570124 0.231161
H20   H     H_    0.821234 0.279746 0.488960 0.151788
N10   N     N_3   0.159364 0.675749 0.460373 -0.151122
H21   H     H_    0.210914 0.672232 0.401011 0.230152
H22   H     H_    0.050808 0.727514 0.462124 0.173697
N11   N     N_R   0.628966 0.526992 0.559609 0.250169
O29   O     O_R   0.545026 0.608145 0.542109 -0.407663
O30   O     O_R   0.568509 0.478987 0.622630 -0.373718
N12   N     N_R   0.370596 0.470345 0.442743 0.253712
O31   O     O_R   0.456572 0.388806 0.456864 -0.444550
O32   O     O_R   0.431698 0.523543 0.382807 -0.387474
N13   N     N_R   0.949496 0.282801 0.755767 0.274128
O33   O     O_R   0.049400 0.209849 0.728552 -0.301877
O34   O     O_R   0.849725 0.332841 0.705850 -0.379771
N14   N     N_R   0.036542 0.724953 0.246085 0.272783
O35   O     O_R   0.160076 0.791710 0.263064 -0.353021
O36   O     O_R   0.932670 0.687307 0.303826 -0.413777
N15   N     N_R   0.012780 0.852370 0.104575 0.235953
O37   O     O_R   0.955130 0.896145 0.170005 -0.322213
O38   O     O_R   0.051245 0.905159 0.041298 -0.374617
N16   N     N_R   0.984106 0.152641 0.896335 0.240058
O39   O     O_R   0.886336 0.110710 0.840899 -0.352865
O40   O     O_R   0.050919 0.098746 0.953312 -0.376705
N17   N     N_3   0.642536 0.812674 0.463072 -0.156421
H23   H     H_    0.544604 0.774411 0.429079 0.213257
H24   H     H_    0.772229 0.816968 0.431110 0.233999
N18   N     N_3   0.349391 0.175583 0.541205 -0.138235
H25   H     H_    0.460019 0.226165 0.539331 0.165792
H26   H     H_    0.299928 0.171610 0.600803 0.244491

loop_
_geom_bond_atom_site_label_1
_geom_bond_atom_site_label_2
_geom_bond_distance
_ccdc_geom_bond_type
V4    O20   2.150899 S    
N1    O21   1.300419 A    
C19   N15   1.446226 S    
N3    O25   1.300739 A    
O13   V3    1.708356 S    
N9    H19   1.041409 S    
C10   C16   1.533121 S    
C48   C52   1.424820 A    
V1    O19   1.707452 S    
C22   N13   1.433355 S    
N10   H21   1.043062 S    
N17   H23   1.043742 S    
C21   C23   1.409112 A    
C34   N18   1.455435 S    
N7    H16   1.041873 S    
C3    C52   1.503249 S    
O9    V1    1.982939 S    
N14   O35   1.299392 A    
C42   C44   1.403437 A    
C32   C35   1.563264 S    
C34   C36   1.542449 S    
C11   H1    1.109595 S    
C44   C46   1.395232 A    
O3    C1    1.315053 A    
N11   O30   1.300333 A    
C20   N16   1.444644 S    
C46   C48   1.405976 A    
N13   O34   1.297993 A    
O12   V4    1.998577 S    
N8    H17   1.042072 S    
C32   C38   1.549819 S    
O7    V1    2.029583 S    
O9    C5    1.303551 A    
C31   C33   1.557453 S    
C11   C16   1.552497 S    
O7    C3    1.313160 A    
C32   C34   1.552220 S    
C9    C11   1.553047 S    
C1    C36   1.537229 S    
O5    C7    1.298841 A    
N2    O24   1.299580 A    
C17   C27   1.412293 A    
O6    C8    1.299897 A    
O8    V2    2.029584 S    
N16   O39   1.299144 A    
C23   C25   1.411918 A    
N1    O22   1.300012 A    
N4    O28   1.295158 A    
C24   C26   1.406076 A    
O3    V1    1.988282 S    
O14   V4    1.708357 S    
C10   C12   1.549547 S    
C37   N1    1.455981 S    
O4    C2    1.313035 A    
C46   H10   1.081237 S    
C45   C47   1.414513 A    
C45   H9    1.082503 S    
C2    O12   1.304201 A    
C41   C43   1.401073 A    
C12   C15   1.551893 S    
C38   N2    1.457295 S    
C4    C51   1.503667 S    
N12   O32   1.300243 A    
C43   N4    1.434714 S    
O11   V3    1.998578 S    
C20   C22   1.414219 A    
C19   C21   1.413461 A    
O17   V3    2.000406 S    
C10   N10   1.456086 S    
C33   C35   1.538666 S    
C9    C14   1.541893 S    
C32   H8    1.102688 S    
C10   C13   1.540373 S    
N13   O33   1.300142 A    
C48   C50   1.429374 A    
O8    C4    1.312387 A    
C18   H4    1.081011 S    
C39   C41   1.400796 A    
C1    O11   1.307043 A    
C18   C20   1.400944 A    
C8    C13   1.511634 S    
C39   N5    1.435358 S    
C25   C27   1.421901 A    
C33   N17   1.458181 S    
C11   C13   1.567730 S    
C31   H7    1.109126 S    
C44   N3    1.436409 S    
C17   C19   1.398851 A    
C41   N7    1.436637 S    
N5    H11   1.043951 S    
C33   C38   1.539397 S    
C12   C14   1.563096 S    
C7    C14   1.507421 S    
N4    O27   1.300849 A    
O10   V2    1.982938 S    
O1    V3    1.996397 S    
C26   C28   1.418976 A    
N9    H20   1.043199 S    
C34   C37   1.535893 S    
N6    H14   1.042806 S    
C43   C45   1.403210 A    
N18   H26   1.042426 S    
C9    N9    1.460266 S    
C40   C42   1.405264 A    
N5    H12   1.043268 S    
O18   V4    2.000408 S    
O15   C5    1.309282 A    
O16   C6    1.309591 A    
C6    C30   1.494904 S    
C49   C52   1.426948 A    
N12   O31   1.300078 A    
C21   N14   1.432178 S    
C47   C49   1.433794 A    
N15   O37   1.299510 A    
V2    O20   1.707451 S    
C27   C30   1.417403 A    
C31   C37   1.552930 S    
N17   H24   1.041137 S    
C28   C29   1.418205 A    
N14   O36   1.296764 A    
O16   V4    2.017900 S    
C14   C16   1.534888 S    
O15   V3    2.017901 S    
N10   H22   1.042787 S    
C5    C29   1.494347 S    
O5    V1    2.011872 S    
C39   C49   1.436776 A    
O17   C7    1.308587 A    
O6    V2    2.011874 S    
N7    H15   1.042340 S    
O10   C6    1.301229 A    
O18   C8    1.309923 A    
C23   H5    1.082978 S    
O2    V4    1.996393 S    
C9    C15   1.537207 S    
C12   H2    1.105204 S    
C24   H6    1.082343 S    
V3    O19   2.150899 S    
N11   O29   1.300915 A    
C47   C51   1.433509 A    
C31   C36   1.577199 S    
C16   N12   1.455864 S    
N2    O23   1.300699 A    
N3    O26   1.297715 A    
C40   N6    1.434846 S    
C22   C24   1.404808 A    
O13   V1    2.150239 S    
N8    H18   1.041653 S    
O14   V2    2.150240 S    
N6    H13   1.044062 S    
O2    C4    1.306361 A    
N18   H25   1.041949 S    
C17   H3    1.081127 S    
C42   N8    1.435823 S    
O4    V2    1.988286 S    
C18   C28   1.413882 A    
O1    C3    1.302108 A    
C13   C15   1.538135 S    
C2    C35   1.527841 S    
N16   O40   1.301143 A    
C50   C51   1.429835 A    
C25   C29   1.424790 A    
C36   C38   1.545500 S    
C15   N11   1.457253 S    
C35   C37   1.536460 S    
C40   C50   1.438890 A    
C26   C30   1.418843 A    
N15   O38   1.301402 A    
