data_mof_unit_25374.cif
_audit_creation_date              2012-10-26T18:50:01-0400
_audit_creation_method            fapswitch 2.2
_symmetry_space_group_name_H-M    P1
_symmetry_Int_Tables_number       1
_space_group_crystal_system       triclinic
_cell_length_a                    10.783975
_cell_length_b                    13.00452
_cell_length_c                    11.6747
_cell_angle_alpha                 99.877601
_cell_angle_beta                  93.412216
_cell_angle_gamma                 90.429772
_cell_volume                      1609.87404342

loop_
_atom_site_label
_atom_site_type_symbol
_atom_type_description
_atom_site_fract_x
_atom_site_fract_y
_atom_site_fract_z
_atom_type_partial_charge
C1    C     C_R   0.497527 0.299134 0.478582 0.526960
C2    C     C_R   0.478220 0.860474 0.436880 -0.155869
C3    C     C_R   0.517084 0.031287 0.555138 0.030318
C4    C     C_R   0.482916 0.968713 0.444862 0.030318
C5    C     C_R   0.392474 0.394571 0.021450 -0.175272
C6    C     C_R   0.607526 0.605429 0.978550 -0.175272
C7    C     C_R   0.401609 0.405549 0.143724 0.048205
C8    C     C_R   0.598391 0.594451 0.856276 0.048205
C9    C     C_R   0.544909 0.546738 0.157262 0.048127
C10   C     C_R   0.455091 0.453262 0.842738 0.048127
C11   C     C_R   0.538633 0.538618 0.034362 0.007384
C12   C     C_R   0.502473 0.700866 0.521418 0.526959
C13   C     C_R   0.461367 0.461382 0.965638 0.007384
C14   C     C_R   0.262862 0.500094 0.500643 0.532128
C15   C     C_R   0.737138 0.499906 0.499357 0.532128
C16   C     C_R   0.129675 0.317932 0.535809 -0.103401
C17   C     C_R   0.870325 0.682068 0.464188 -0.103401
C18   C     C_R   0.065105 0.228547 0.551149 -0.123990
C19   C     C_R   0.934895 0.771452 0.448846 -0.123990
C20   C     C_R   0.936115 0.228095 0.549392 -0.122370
C21   C     C_R   0.063885 0.771904 0.450605 -0.122369
C22   C     C_R   0.871214 0.317015 0.532226 -0.093652
C23   C     C_R   0.506235 0.814257 0.533984 -0.029515
C24   C     C_R   0.128786 0.682985 0.467774 -0.093651
C25   C     C_R   0.934929 0.408955 0.516866 0.009230
C26   C     C_R   0.065071 0.591045 0.483133 0.009229
C27   C     C_R   0.065628 0.409419 0.518712 0.005548
C28   C     C_R   0.934372 0.590581 0.481287 0.005548
C29   C     C_R   0.870796 0.499555 0.498222 -0.015824
C30   C     C_R   0.129204 0.500444 0.501778 -0.015824
C31   C     C_3   0.417206 0.948477 0.226653 -0.279182
C32   C     C_3   0.387208 0.006869 0.125445 -0.453320
C33   C     C_3   0.582794 0.051523 0.773347 -0.279182
C34   C     C_R   0.493765 0.185743 0.466016 -0.029515
C35   C     C_3   0.612792 0.993131 0.874555 -0.453320
C36   C     C_R   0.454294 0.015478 0.344961 0.013370
C37   C     C_R   0.545706 0.984522 0.655039 0.013370
C38   C     C_R   0.460708 0.124517 0.358042 -0.110758
C39   C     C_R   0.539292 0.875483 0.641958 -0.110758
C40   C     C_R   0.521780 0.139526 0.563120 -0.155869
Cu1   Cu    Cu3+1 0.509250 0.507730 0.615930 0.924162
Cu2   Cu    Cu3+1 0.490750 0.492270 0.384070 0.924162
H1    H     H_    0.113977 0.841510 0.439069 0.110909
H2    H     H_    0.229062 0.687454 0.469527 0.128828
H3    H     H_    0.452360 0.810503 0.354959 0.123219
H4    H     H_    0.547640 0.189497 0.645041 0.123219
H5    H     H_    0.561059 0.836697 0.715171 0.134461
H6    H     H_    0.438941 0.163303 0.284829 0.134461
H7    H     H_    0.395294 0.394504 0.789095 0.115593
H8    H     H_    0.604706 0.605496 0.210905 0.115592
H9    H     H_    0.651568 0.646532 0.814232 0.123103
H10   H     H_    0.348432 0.353467 0.185768 0.123102
H11   H     H_    0.306956 0.058874 0.143939 0.147305
H12   H     H_    0.886023 0.158490 0.560928 0.110909
H13   H     H_    0.469443 0.052818 0.108848 0.146655
H14   H     H_    0.361858 0.949572 0.045273 0.141262
H15   H     H_    0.494258 0.894651 0.201108 0.140117
H16   H     H_    0.333425 0.900933 0.235810 0.143113
H17   H     H_    0.530557 0.947182 0.891152 0.146655
H18   H     H_    0.693044 0.941126 0.856061 0.147305
H19   H     H_    0.638142 0.050428 0.954727 0.141262
H20   H     H_    0.666575 0.099067 0.764189 0.143113
H21   H     H_    0.505741 0.105349 0.798892 0.140117
H22   H     H_    0.332182 0.334192 0.971081 0.085879
H23   H     H_    0.667818 0.665808 0.028919 0.085879
H24   H     H_    0.229886 0.314230 0.537064 0.122569
H25   H     H_    0.770114 0.685769 0.462932 0.122570
H26   H     H_    0.115404 0.159286 0.564044 0.111945
H27   H     H_    0.884595 0.840713 0.435950 0.111944
H28   H     H_    0.770938 0.312546 0.530474 0.128828
N1    N     N_R   0.523180 0.519350 0.790130 -0.227296
N2    N     N_R   0.476820 0.480650 0.209870 -0.227296
O1    O     O_R   0.506570 0.354460 0.582000 -0.518948
O2    O     O_R   0.493430 0.645540 0.418000 -0.518948
O3    O     O_R   0.490940 0.341410 0.386200 -0.509333
O4    O     O_R   0.509060 0.658590 0.613800 -0.509333
O5    O     O_R   0.327470 0.506520 0.597900 -0.499951
O6    O     O_R   0.672530 0.493480 0.402100 -0.499951
O7    O     O_R   0.311840 0.493460 0.402100 -0.501709
O8    O     O_R   0.688160 0.506540 0.597900 -0.501709

loop_
_geom_bond_atom_site_label_1
_geom_bond_atom_site_label_2
_ccdc_geom_bond_type
C4    C36   A    
C12   O2    A    
Cu1   Cu2   S    
C9    N2    A    
Cu1   O8    S    
C40   H4    S    
C12   C23   S    
Cu2   O3    S    
C34   C40   A    
C31   H16   S    
C28   C29   A    
C19   C21   A    
C24   C26   A    
C7    H10   S    
Cu1   O5    S    
C15   O6    A    
C18   H26   S    
C35   H17   S    
C14   O5    A    
C17   C19   A    
C21   H1    S    
C6    H23   S    
C15   O8    A    
C33   H20   S    
C22   C25   A    
C32   H13   S    
C5    C13   A    
Cu1   N1    S    
C10   N1    A    
C16   C27   A    
Cu2   O7    S    
C27   C30   A    
C14   C30   S    
C1    C34   S    
C15   C29   S    
C2    H3    S    
C25   C29   A    
C17   H25   S    
Cu2   O2    S    
C1    O3    A    
C20   H12   S    
C6    C11   A    
C5    C7    A    
C6    C8    A    
C33   C37   S    
C5    H22   S    
C35   H18   S    
C2    C4    A    
C31   C32   S    
C33   H21   S    
Cu2   N2    S    
C35   H19   S    
C14   O7    A    
C9    C11   A    
C8    H9    S    
C20   C22   A    
C3    C40   A    
Cu2   O6    S    
C12   O4    A    
C24   H2    S    
C19   H27   S    
C16   H24   S    
C3    C4    A    
C32   H11   S    
C7    N2    A    
C39   H5    S    
C8    N1    A    
C34   C38   A    
C17   C28   A    
C38   H6    S    
C9    H8    S    
C10   C13   A    
C26   C30   A    
C25   C27   A    
C26   C28   A    
C1    O1    A    
C31   H15   S    
C36   C38   A    
C37   C39   A    
Cu1   O4    S    
C11   C13   A    
C23   C39   A    
C33   C35   S    
C32   H14   S    
C18   C20   A    
Cu1   O1    S    
C3    C37   A    
C16   C18   A    
C21   C24   A    
C2    C23   A    
C31   C36   S    
C10   H7    S    
C22   H28   S    
