data_mof_unit_60372.cif
_audit_creation_date              2012-10-26T17:30:07-0400
_audit_creation_method            fapswitch 2.2
_symmetry_space_group_name_H-M    P1
_symmetry_Int_Tables_number       1
_space_group_crystal_system       triclinic
_cell_length_a                    39.130757
_cell_length_b                    32.248058
_cell_length_c                    21.924211
_cell_angle_alpha                 90.206185
_cell_angle_beta                  124.540596
_cell_angle_gamma                 90.054855
_cell_volume                      22788.8374458

loop_
_atom_site_label
_atom_site_type_symbol
_atom_type_description
_atom_site_fract_x
_atom_site_fract_y
_atom_site_fract_z
_atom_type_partial_charge
C1    C     C_R   0.420402 0.499934 0.420383 0.556062
C2    C     C_R   0.706478 0.500143 0.706148 0.037418
C3    C     C_2   0.002164 0.005635 0.186038 -0.158816
C4    C     C_2   0.525524 0.472467 0.742365 0.250242
C5    C     C_2   0.475084 0.528141 0.258109 0.250608
C6    C     C_2   0.025518 0.972462 0.742359 0.250359
C7    C     C_2   0.975056 0.028118 0.258086 0.250558
C8    C     C_2   0.505730 0.501651 0.689740 -0.068312
C9    C     C_2   0.493936 0.498378 0.309913 -0.069678
C10   C     C_2   0.005732 0.001651 0.689742 -0.068312
C11   C     C_2   0.993944 0.998376 0.309922 -0.069621
C12   C     C_R   0.227863 0.468739 0.197098 -0.106096
C13   C     C_R   0.793521 0.999679 0.293989 0.037980
C14   C     C_R   0.771978 0.476643 0.814529 -0.106814
C15   C     C_R   0.727841 0.971677 0.191548 -0.106286
C16   C     C_R   0.271906 0.971931 0.807852 -0.106671
C17   C     C_R   0.206345 0.499712 0.207150 0.037794
C18   C     C_R   0.793653 0.499982 0.792962 0.037300
C19   C     C_R   0.706345 0.999694 0.207130 0.037525
C20   C     C_R   0.293653 0.999979 0.792934 0.037643
C21   C     C_R   0.228558 0.530661 0.260794 -0.105012
C22   C     C_R   0.771597 0.523395 0.727834 -0.105003
C23   C     C_R   0.728581 0.027688 0.266310 -0.105037
C24   C     C_R   0.206479 0.000139 0.706128 0.037381
C25   C     C_R   0.271668 0.028103 0.734458 -0.104922
C26   C     C_3   0.441458 0.705102 0.019271 -0.243341
C27   C     C_3   0.463038 0.690763 0.099322 -0.427333
C28   C     C_3   0.559764 0.705223 0.984094 -0.245924
C29   C     C_3   0.538568 0.691199 0.903772 -0.419064
C30   C     C_3   0.940893 0.205098 0.017768 -0.243294
C31   C     C_3   0.962046 0.190765 0.097728 -0.427386
C32   C     C_3   0.060356 0.205229 0.985694 -0.245919
C33   C     C_3   0.039613 0.191215 0.905478 -0.419018
C34   C     C_3   0.906748 0.302530 0.936100 -0.129933
C35   C     C_R   0.271308 0.468726 0.240376 -0.104720
C36   C     C_3   0.093755 0.303699 0.065693 -0.129718
C37   C     C_3   0.406978 0.802546 0.937848 -0.130132
C38   C     C_3   0.593518 0.803688 0.063901 -0.129518
C39   C     C_3   0.548747 0.404471 0.771258 -0.108273
C40   C     C_3   0.454237 0.596904 0.230945 -0.108898
C41   C     C_3   0.048716 0.904458 0.771227 -0.108249
C42   C     C_3   0.954037 0.096833 0.230733 -0.108891
C43   C     C_R   0.728536 0.476723 0.771266 -0.104512
C44   C     C_R   0.771285 0.971669 0.234834 -0.104627
C45   C     C_R   0.228464 0.972009 0.764592 -0.104400
C46   C     C_1   0.161568 0.499800 0.162349 -0.058225
C47   C     C_1   0.838430 0.499968 0.837690 -0.058395
C48   C     C_1   0.661568 0.999789 0.162340 -0.058352
C49   C     C_R   0.579598 0.500062 0.579619 0.556727
C50   C     C_1   0.338430 0.999965 0.837684 -0.058265
C51   C     C_1   0.338297 0.499723 0.338543 -0.055666
C52   C     C_1   0.661702 0.500195 0.661531 -0.055794
C53   C     C_1   0.838297 0.999721 0.338547 -0.055659
C54   C     C_1   0.161702 0.000195 0.661518 -0.055821
C55   C     C_1   0.375773 0.499793 0.375869 -0.016654
C56   C     C_1   0.624226 0.500180 0.624164 -0.016408
C57   C     C_1   0.875773 0.999794 0.375873 -0.016672
C58   C     C_1   0.124226 0.000181 0.624158 -0.016410
C59   C     C_1   0.124091 0.499882 0.124700 -0.023164
C60   C     C_R   0.920401 0.999934 0.420385 0.555991
C61   C     C_1   0.875908 0.499964 0.875307 -0.023141
C62   C     C_1   0.624091 0.999876 0.124697 -0.023203
C63   C     C_1   0.375908 0.999962 0.875307 -0.023151
C64   C     C_R   0.499935 0.420397 0.999913 0.555602
C65   C     C_R   0.999935 0.920398 0.999913 0.555567
C66   C     C_R   0.499692 0.498617 0.881907 0.563786
C67   C     C_R   0.500316 0.501348 0.118092 0.564403
C68   C     C_R   0.999692 0.998618 0.881907 0.563769
C69   C     C_R   0.000316 0.001350 0.118092 0.564373
C70   C     C_R   0.500068 0.579550 0.000145 0.552863
C71   C     C_R   0.079598 0.000063 0.579618 0.556862
C72   C     C_R   0.000069 0.079550 0.000145 0.552863
C73   C     C_R   0.501806 0.500181 0.619510 0.582252
C74   C     C_R   0.498097 0.499822 0.380385 0.580932
C75   C     C_R   0.001806 0.000181 0.619511 0.582259
C76   C     C_R   0.998100 0.999822 0.380389 0.581013
C77   C     C_R   0.999979 0.420622 0.999900 0.545960
C78   C     C_R   0.499979 0.920622 0.999900 0.545876
C79   C     C_R   0.079460 0.499972 0.079630 0.551150
C80   C     C_R   0.920539 0.499972 0.920370 0.551366
C81   C     C_R   0.579460 0.999971 0.079630 0.551186
C82   C     C_R   0.272002 0.530647 0.304075 -0.105181
C83   C     C_R   0.420539 0.999971 0.920370 0.551182
C84   C     C_R   0.000001 0.579510 0.000094 0.552039
C85   C     C_R   0.500001 0.079511 0.000094 0.551969
C86   C     C_R   0.985699 0.728342 0.036937 -0.105371
C87   C     C_R   0.013959 0.728141 0.963091 -0.105572
C88   C     C_R   0.483925 0.228331 0.034004 -0.105423
C89   C     C_R   0.515737 0.228153 0.966026 -0.105548
C90   C     C_R   0.999862 0.706377 0.000094 0.037362
C91   C     C_R   0.499864 0.206378 0.000096 0.037384
C92   C     C_R   0.515680 0.271582 0.965881 -0.106585
C93   C     C_R   0.728151 0.523472 0.684565 -0.106208
C94   C     C_R   0.483870 0.271762 0.033861 -0.104811
C95   C     C_R   0.013903 0.771571 0.962948 -0.106560
C96   C     C_R   0.985644 0.771774 0.036797 -0.104796
C97   C     C_R   0.499749 0.293535 0.999802 0.038393
C98   C     C_R   0.999748 0.793536 0.999805 0.038445
C99   C     C_1   0.999917 0.661605 0.000218 -0.057911
C100  C     C_1   0.499918 0.161605 0.000219 -0.057909
C101  C     C_1   0.499753 0.338306 0.999755 -0.059934
C102  C     C_1   0.999753 0.838306 0.999757 -0.059907
C103  C     C_1   0.499803 0.375774 0.999781 -0.026530
C104  C     C_R   0.772025 0.027678 0.309599 -0.105376
C105  C     C_1   0.999803 0.875775 0.999782 -0.026521
C106  C     C_2   0.529545 0.478990 0.813450 -0.169120
C107  C     C_2   0.470842 0.521568 0.186858 -0.169217
C108  C     C_2   0.029541 0.978985 0.813446 -0.169033
C109  C     C_2   0.970822 0.021542 0.186841 -0.169332
C110  C     C_1   0.999961 0.624136 0.000234 -0.022733
C111  C     C_1   0.499962 0.124136 0.000235 -0.022749
C112  C     C_R   0.970049 0.272075 0.003729 0.246433
C113  C     C_R   0.030743 0.272157 0.998493 0.246744
C114  C     C_R   0.470297 0.772078 0.004457 0.246473
C115  C     C_R   0.228223 0.028179 0.691192 -0.106126
C116  C     C_R   0.530481 0.772153 0.997715 0.246715
C117  C     C_R   0.000286 0.293788 0.000780 0.021634
C118  C     C_R   0.500280 0.793788 0.000762 0.021630
C119  C     C_R   0.529646 0.728351 0.994741 0.015198
C120  C     C_R   0.471393 0.728294 0.008154 0.016212
C121  C     C_R   0.029926 0.228354 0.995525 0.015188
C122  C     C_R   0.971130 0.228292 0.007433 0.016200
C123  C     C_R   0.500503 0.706463 0.001386 -0.029355
C124  C     C_R   0.000510 0.206464 0.001414 -0.029375
C125  C     C_1   0.000104 0.338662 0.000190 0.018368
C126  C     C_R   0.293521 0.499689 0.293992 0.037936
C127  C     C_1   0.500100 0.838662 0.000181 0.018377
C128  C     C_1   0.500366 0.661475 0.000973 -0.057883
C129  C     C_1   0.000371 0.161475 0.000989 -0.057904
C130  C     C_1   0.500232 0.624061 0.000576 -0.036867
C131  C     C_1   0.000234 0.124061 0.000583 -0.036866
C132  C     C_1   0.000021 0.376082 0.999871 -0.007474
C133  C     C_1   0.500018 0.876082 0.999868 -0.007478
C134  C     C_2   0.497883 0.494226 0.813993 -0.159358
C135  C     C_2   0.502167 0.505629 0.186039 -0.158836
C136  C     C_2   0.997882 0.994228 0.813992 -0.159407
Cu1   Cu    Cu3+1 0.500000 0.541020 0.500000 0.978122
Cu2   Cu    Cu3+1 0.999990 0.500040 0.939000 0.956410
Cu3   Cu    Cu3+1 0.500010 0.000040 0.061000 0.956820
Cu4   Cu    Cu3+1 0.499990 0.000040 0.939000 0.956543
Cu5   Cu    Cu3+1 0.000000 0.041020 0.500000 0.978072
Cu6   Cu    Cu3+1 0.500000 0.458980 0.500000 0.976241
Cu7   Cu    Cu3+1 0.000000 0.958980 0.500000 0.976069
Cu8   Cu    Cu3+1 0.541020 0.500000 0.040980 0.937310
Cu9   Cu    Cu3+1 0.458980 0.500000 0.959020 0.939244
Cu10  Cu    Cu3+1 0.041020 0.000000 0.040980 0.937697
Cu11  Cu    Cu3+1 0.958980 0.000000 0.959020 0.939042
Cu12  Cu    Cu3+1 0.000010 0.500040 0.061000 0.956583
H1    H     H_    0.557900 0.469584 0.864900 0.144255
H2    H     H_    0.531591 0.498782 0.237736 0.100461
H3    H     H_    0.968316 0.000500 0.762194 0.100372
H4    H     H_    0.031595 0.998817 0.237741 0.100600
H5    H     H_    0.494495 0.529626 0.700601 0.052171
H6    H     H_    0.504293 0.470047 0.298203 0.054554
H7    H     H_    0.994503 0.029628 0.700608 0.052143
H8    H     H_    0.004331 0.970056 0.298241 0.054503
H9    H     H_    0.287555 0.444625 0.232014 0.112757
H10   H     H_    0.712171 0.458552 0.788573 0.115668
H11   H     H_    0.787514 0.949872 0.222168 0.113026
H12   H     H_    0.442724 0.531628 0.135618 0.143974
H13   H     H_    0.212041 0.950173 0.776721 0.115294
H14   H     H_    0.211074 0.444650 0.155819 0.110474
H15   H     H_    0.788646 0.458424 0.864742 0.112015
H16   H     H_    0.711034 0.949889 0.145960 0.111182
H17   H     H_    0.288517 0.950044 0.852891 0.111037
H18   H     H_    0.212311 0.554783 0.269113 0.112230
H19   H     H_    0.787963 0.541575 0.710543 0.112627
H20   H     H_    0.712352 0.049509 0.278936 0.112399
H21   H     H_    0.288093 0.049950 0.722352 0.112450
H22   H     H_    0.288790 0.554754 0.345314 0.112205
H23   H     H_    0.057894 0.969573 0.864894 0.144390
H24   H     H_    0.711481 0.541697 0.634360 0.111286
H25   H     H_    0.788832 0.049487 0.355151 0.111799
H26   H     H_    0.211611 0.050073 0.646167 0.111655
H27   H     H_    0.471471 0.288340 0.060286 0.112298
H28   H     H_    0.528052 0.288020 0.939371 0.106526
H29   H     H_    0.974630 0.788362 0.065507 0.112224
H30   H     H_    0.024891 0.788001 0.934156 0.106417
H31   H     H_    0.488826 0.669212 0.114769 0.151369
H32   H     H_    0.475533 0.717905 0.137444 0.171974
H33   H     H_    0.440403 0.674315 0.105975 0.123088
H34   H     H_    0.942693 0.031569 0.135589 0.143877
H35   H     H_    0.414764 0.724720 0.005732 0.179676
H36   H     H_    0.427937 0.677994 0.981183 0.135013
H37   H     H_    0.512424 0.669748 0.887128 0.154611
H38   H     H_    0.526629 0.718486 0.866460 0.173148
H39   H     H_    0.561289 0.674757 0.897382 0.137220
H40   H     H_    0.586797 0.724814 0.998976 0.179135
H41   H     H_    0.572780 0.677979 0.021415 0.136620
H42   H     H_    0.987914 0.169219 0.113671 0.151289
H43   H     H_    0.974350 0.217911 0.135849 0.171892
H44   H     H_    0.939197 0.174315 0.103805 0.123352
H45   H     H_    0.974718 0.711912 0.065740 0.113091
H46   H     H_    0.914100 0.224713 0.003699 0.179708
H47   H     H_    0.927555 0.177987 0.979657 0.135071
H48   H     H_    0.013392 0.169765 0.888316 0.154618
H49   H     H_    0.027873 0.218507 0.868176 0.173136
H50   H     H_    0.062558 0.174775 0.899692 0.137257
H51   H     H_    0.087486 0.224821 0.001129 0.179102
H52   H     H_    0.073183 0.177981 0.023030 0.136656
H53   H     H_    0.892662 0.273680 0.902812 0.102408
H54   H     H_    0.915279 0.323947 0.907081 0.122315
H55   H     H_    0.882733 0.318132 0.939811 0.145534
H56   H     H_    0.024982 0.711553 0.934395 0.111759
H57   H     H_    0.117753 0.319235 0.061810 0.145183
H58   H     H_    0.107987 0.275350 0.099863 0.102319
H59   H     H_    0.084935 0.325546 0.093885 0.122016
H60   H     H_    0.392744 0.773701 0.904635 0.102337
H61   H     H_    0.415229 0.823965 0.908414 0.122176
H62   H     H_    0.383179 0.818152 0.942171 0.145154
H63   H     H_    0.607898 0.775335 0.097978 0.102358
H64   H     H_    0.584984 0.825533 0.092530 0.122099
H65   H     H_    0.617299 0.819224 0.059405 0.145463
H66   H     H_    0.518743 0.396674 0.763401 0.115777
H67   H     H_    0.471560 0.211893 0.060522 0.113027
H68   H     H_    0.573996 0.407786 0.830980 0.112129
H69   H     H_    0.556919 0.377986 0.749479 0.141331
H70   H     H_    0.428849 0.594274 0.171181 0.111096
H71   H     H_    0.484443 0.603575 0.238810 0.113426
H72   H     H_    0.447011 0.623818 0.253386 0.142584
H73   H     H_    0.018707 0.896671 0.763356 0.115603
H74   H     H_    0.073962 0.907763 0.830952 0.112339
H75   H     H_    0.056882 0.877971 0.749442 0.141210
H76   H     H_    0.928608 0.094126 0.171005 0.111063
H77   H     H_    0.984196 0.103565 0.238454 0.113463
H78   H     H_    0.528144 0.211575 0.939614 0.111767
H79   H     H_    0.946787 0.123742 0.253144 0.142636
H80   H     H_    0.468315 0.500493 0.762194 0.100477
O1    O     O_R   0.440150 0.534640 0.440170 -0.497049
O2    O     O_R   0.940160 0.499970 0.991730 -0.501178
O3    O     O_R   0.559840 0.999970 0.008270 -0.501062
O4    O     O_R   0.440160 0.999970 0.991730 -0.501069
O5    O     O_R   0.000010 0.559880 0.051460 -0.502725
O6    O     O_R   0.999990 0.559880 0.948540 -0.502962
O7    O     O_R   0.500010 0.059880 0.051460 -0.502696
O8    O     O_R   0.499990 0.059880 0.948540 -0.502928
O9    O     O_R   0.440150 0.465360 0.440130 -0.511407
O10   O     O_R   0.559850 0.465360 0.559870 -0.496791
O11   O     O_R   0.940150 0.965360 0.440130 -0.511341
O12   O     O_R   0.559850 0.534640 0.559830 -0.510691
O13   O     O_R   0.059850 0.965360 0.559870 -0.496927
O14   O     O_R   0.500010 0.534640 0.589030 -0.525916
O15   O     O_R   0.499990 0.534640 0.410970 -0.455309
O16   O     O_R   0.000010 0.034640 0.589030 -0.525907
O17   O     O_R   0.999990 0.034640 0.410970 -0.455302
O18   O     O_R   0.500010 0.465360 0.588990 -0.456499
O19   O     O_R   0.499990 0.465360 0.411010 -0.525741
O20   O     O_R   0.000010 0.965360 0.588990 -0.456516
O21   O     O_R   0.999990 0.965360 0.411010 -0.525777
O22   O     O_R   0.534640 0.440150 0.034560 -0.504622
O23   O     O_R   0.940150 0.034640 0.440170 -0.496934
O24   O     O_R   0.465360 0.440150 0.965440 -0.500458
O25   O     O_R   0.034640 0.940150 0.034560 -0.504565
O26   O     O_R   0.965360 0.940150 0.965440 -0.500461
O27   O     O_R   0.534630 0.500000 0.945560 -0.504374
O28   O     O_R   0.465370 0.500000 0.054440 -0.503469
O29   O     O_R   0.034630 0.000000 0.945560 -0.504296
O30   O     O_R   0.965370 0.000000 0.054440 -0.503530
O31   O     O_R   0.465350 0.500000 0.876310 -0.503979
O32   O     O_R   0.534650 0.500000 0.123690 -0.504125
O33   O     O_R   0.965350 0.000000 0.876310 -0.504047
O34   O     O_R   0.059850 0.034640 0.559830 -0.510812
O35   O     O_R   0.034650 0.000000 0.123690 -0.504059
O36   O     O_R   0.534640 0.559850 0.034640 -0.503486
O37   O     O_R   0.465360 0.559850 0.965360 -0.506657
O38   O     O_R   0.034640 0.059850 0.034640 -0.503443
O39   O     O_R   0.965360 0.059850 0.965360 -0.506701
O40   O     O_R   0.000000 0.440190 0.051560 -0.499937
O41   O     O_R   0.000000 0.440190 0.948440 -0.499865
O42   O     O_R   0.500000 0.940190 0.051560 -0.499866
O43   O     O_R   0.500000 0.940190 0.948440 -0.499842
O44   O     O_3   0.941180 0.293860 0.008526 -0.565303
O45   O     O_R   0.059850 0.500040 0.111340 -0.503066
O46   O     O_3   0.059522 0.293969 0.993406 -0.564714
O47   O     O_3   0.441688 0.793866 0.009992 -0.565182
O48   O     O_3   0.558998 0.793963 0.991891 -0.564758
O49   O     O_3   0.545747 0.440432 0.732052 -0.537335
O50   O     O_3   0.456083 0.561036 0.269398 -0.534683
O51   O     O_3   0.045733 0.940422 0.732040 -0.537196
O52   O     O_3   0.956019 0.060987 0.269352 -0.534768
O53   O     O_R   0.940150 0.500040 0.888660 -0.503256
O54   O     O_R   0.559850 0.000040 0.111340 -0.503100
O55   O     O_R   0.440150 0.000040 0.888660 -0.503099
O56   O     O_R   0.059840 0.499970 0.008270 -0.500902

loop_
_geom_bond_atom_site_label_1
_geom_bond_atom_site_label_2
_ccdc_geom_bond_type
C109  H34   S    
C64   C103  S    
Cu1   Cu6   S    
C82   H22   S    
C93   H24   S    
C20   C25   A    
C50   C63   T    
C88   H67   S    
C20   C50   S    
C46   C59   T    
Cu9   O31   S    
C85   O8    A    
Cu5   O34   S    
C14   C18   A    
Cu9   O24   S    
C19   C23   A    
C76   O17   A    
C89   H78   S    
C4    C8    D    
C43   H10   S    
C28   H41   S    
C112  O44   S    
C35   H9    S    
C107  H12   S    
C95   C98   A    
C69   O35   A    
C51   C55   T    
C67   O28   A    
Cu7   O20   S    
C70   O36   A    
C31   H42   S    
C3    H4    S    
C39   H68   S    
C72   C131  S    
C77   O40   A    
C7    C109  S    
C24   C45   A    
C28   C29   S    
C3    C69   S    
C26   C120  S    
C15   C44   A    
C108  C136  D    
C115  H26   S    
C11   C76   S    
Cu5   Cu7   S    
C86   H45   S    
C5    C107  S    
C68   O29   A    
Cu2   O56   S    
C58   C71   S    
C83   O4    A    
C6    O51   S    
C34   H53   S    
C24   C54   S    
C31   H43   S    
C70   C130  S    
C29   H38   S    
C102  C105  T    
Cu10  O38   S    
Cu12  O5    S    
C36   O46   S    
C14   H15   S    
C116  O48   S    
C45   H13   S    
C82   C126  A    
C121  C124  A    
C107  C135  D    
C75   O16   A    
C127  C133  T    
C13   C44   A    
C15   C19   A    
C18   C47   S    
C73   O14   A    
C30   C122  S    
C33   H48   S    
Cu2   Cu12  S    
Cu6   O18   S    
C65   O25   A    
C12   C17   A    
C114  O47   S    
C60   O23   A    
Cu5   O17   S    
Cu7   O13   S    
Cu9   O28   S    
Cu3   O4    S    
Cu6   O19   S    
C38   H63   S    
Cu11  O33   S    
C34   H55   S    
C89   C92   A    
C41   H74   S    
C39   H66   S    
C120  C123  A    
C94   H27   S    
C26   H35   S    
C71   O34   A    
C40   O50   S    
C80   O53   A    
C79   O45   A    
C106  H1    S    
C18   C22   A    
C40   H72   S    
C4    O49   S    
C34   O44   S    
C49   O12   A    
C42   H76   S    
C76   O21   A    
C65   C105  S    
C68   O33   A    
Cu8   O27   S    
C39   H69   S    
C92   C97   A    
C7    C11   D    
C13   C53   S    
Cu3   O42   S    
C88   C94   A    
Cu5   O16   S    
C5    O50   S    
Cu7   O11   S    
C15   H16   S    
C68   C136  S    
C27   H32   S    
C71   O13   A    
Cu1   O1    S    
C66   O31   A    
C86   C90   A    
C59   C79   S    
C61   C80   S    
C53   C57   T    
C19   C48   S    
Cu8   Cu9   S    
C57   C60   S    
C73   O18   A    
C94   C97   A    
C1    O9    A    
C79   O56   A    
C42   H79   S    
C99   C110  T    
C4    C106  S    
C31   H44   S    
C72   O39   A    
C84   C110  S    
C21   H18   S    
C29   H39   S    
C96   C98   A    
C13   C104  A    
C36   H59   S    
C134  H80   S    
C118  C127  S    
C113  O46   S    
C35   C126  A    
C67   C135  S    
C17   C21   A    
C27   H33   S    
C112  C122  A    
C41   O51   S    
C1    O1    A    
C42   O52   S    
C10   C75   S    
C39   O49   S    
C95   H30   S    
C48   C62   T    
C23   C104  A    
C88   C91   A    
C33   H49   S    
C2    C43   A    
C16   C20   A    
C65   O26   A    
C72   O38   A    
C26   C27   S    
C84   O6    A    
Cu10  O35   S    
C60   O11   A    
C36   H58   S    
C78   O43   A    
C17   C46   S    
C12   C35   A    
C8    H5    S    
C29   H37   S    
C37   H61   S    
C114  C118  A    
C86   C96   A    
C11   H8    S    
Cu4   O3    S    
C64   O22   A    
C74   O15   A    
Cu11  O39   S    
C80   O2    A    
C41   H75   S    
C62   C81   S    
C87   H56   S    
C9    H6    S    
C30   C31   S    
C66   O27   A    
C40   H71   S    
Cu3   O7    S    
C91   C100  S    
C22   C93   A    
C113  C117  A    
Cu2   O6    S    
Cu12  O2    S    
C9    C74   S    
C22   H19   S    
C38   H65   S    
C122  C124  A    
C7    O52   S    
C49   C56   S    
C90   C99   S    
C136  H3    S    
C108  H23   S    
C70   O37   A    
Cu10  Cu11  S    
C54   C58   T    
C42   H77   S    
C25   H21   S    
Cu6   O10   S    
Cu8   O22   S    
C87   C95   A    
Cu1   O14   S    
Cu7   O21   S    
Cu3   O54   S    
C40   H70   S    
C85   O7    A    
C51   C126  S    
C32   C121  S    
C92   H28   S    
C2    C93   A    
C41   H73   S    
C81   O54   A    
C67   O32   A    
C27   H31   S    
C49   O10   A    
C85   C111  S    
C28   C119  S    
C128  C130  T    
C10   H7    S    
C47   C61   T    
Cu3   Cu4   S    
C116  C119  A    
C104  H25   S    
C119  C123  A    
C32   H51   S    
C135  H2    S    
Cu11  O26   S    
C2    C52   S    
C112  C117  A    
C3    C109  D    
C32   C33   S    
Cu12  O40   S    
Cu1   O12   S    
C25   C115  A    
C84   O5    A    
C1    C55   S    
Cu10  O25   S    
C32   H52   S    
C30   H47   S    
C98   C102  S    
C37   O47   S    
C74   O19   A    
C125  C132  T    
C38   O48   S    
C123  C128  S    
C30   H46   S    
C117  C125  S    
C33   H50   S    
Cu11  O30   S    
Cu4   O43   S    
Cu5   O23   S    
Cu2   O53   S    
C8    C73   S    
C37   H60   S    
C28   H40   S    
C116  C118  A    
C124  C129  S    
C34   H54   S    
C77   O41   A    
C36   H57   S    
C78   O42   A    
Cu8   O32   S    
C78   C133  S    
C97   C101  S    
C37   H62   S    
C83   O55   A    
C6    C10   D    
C16   C45   A    
C12   H14   S    
C23   H20   S    
Cu1   O15   S    
C64   O24   A    
C106  C134  D    
C113  C121  A    
C21   C82   A    
C24   C115  A    
C101  C103  T    
C89   C91   A    
C81   O3    A    
C87   C90   A    
C63   C83   S    
C96   H29   S    
Cu4   O8    S    
C44   H11   S    
C6    C108  S    
Cu12  O45   S    
C14   C43   A    
Cu10  O29   S    
Cu9   O37   S    
C5    C9    D    
Cu4   O55   S    
C38   H64   S    
C66   C134  S    
C16   H17   S    
C100  C111  T    
C77   C132  S    
Cu6   O9    S    
C114  C120  A    
C75   O20   A    
C52   C56   T    
C26   H36   S    
C69   O30   A    
C129  C131  T    
Cu2   O41   S    
Cu8   O36   S    
