data_mof_unit_10279.cif
_audit_creation_date              2012-12-10T19:08:04-0500
_audit_creation_method            fapswitch 2.2
_symmetry_space_group_name_H-M    P1
_symmetry_Int_Tables_number       1
_space_group_crystal_system       triclinic
_cell_length_a                    9.071588
_cell_length_b                    10.848287
_cell_length_c                    9.585412
_cell_angle_alpha                 90.56798
_cell_angle_beta                  90.334858
_cell_angle_gamma                 90.833706
_cell_volume                      943.148679531

loop_
_atom_site_label
_atom_site_type_symbol
_atom_type_description
_atom_site_fract_x
_atom_site_fract_y
_atom_site_fract_z
_atom_type_partial_charge
C1    C     C_R   0.501989 0.262811 0.499579 0.791251
C2    C     C_R   0.541973 0.934383 0.376448 -0.191413
C3    C     C_R   0.509273 0.869781 0.499939 -0.106180
C4    C     C_R   0.483433 0.938769 0.619563 0.032461
C5    C     C_3   0.438949 0.931010 0.768821 -0.177380
C6    C     C_3   0.437356 0.073356 0.767875 -0.549967
C7    C     C_R   0.567682 0.593406 0.075045 0.241234
C8    C     C_R   0.418854 0.414661 0.070177 0.243455
C9    C     C_R   0.419743 0.416226 0.921978 -0.057364
C10   C     C_R   0.567784 0.593245 0.928113 0.295025
C11   C     C_3   0.726545 0.630238 0.923433 -0.498750
C12   C     C_R   0.220813 0.499949 0.499735 0.840864
C13   C     C_3   0.726605 0.630249 0.081937 -0.499858
C14   C     C_R   0.502302 0.737151 0.500402 0.796183
C15   C     C_R   0.779191 0.500200 0.500270 0.840126
C16   C     C_1   0.065589 0.500079 0.499644 -0.181799
C17   C     C_1   0.934414 0.500174 0.500353 -0.190518
C18   C     C_R   0.482986 0.063003 0.618952 0.110068
C19   C     C_R   0.508702 0.130182 0.498796 -0.079923
C20   C     C_R   0.542666 0.063744 0.376174 -0.222812
Cu1   Cu    Cu3+1 0.499990 0.499980 0.640670 0.963632
Cu2   Cu    Cu3+1 0.500010 0.500020 0.359330 0.947973
H1    H     H_    0.569897 0.110783 0.280601 0.156351
H2    H     H_    0.742757 0.723636 0.878858 0.194603
H3    H     H_    0.797273 0.557524 0.126679 0.225857
H4    H     H_    0.743081 0.723647 0.128703 0.195760
H5    H     H_    0.566480 0.885664 0.280358 0.163560
H6    H     H_    0.526566 0.891980 0.836264 0.168004
H7    H     H_    0.326247 0.114303 0.778775 0.182480
H8    H     H_    0.524820 0.116832 0.834381 0.203616
H9    H     H_    0.358839 0.347057 0.862309 0.143470
H10   H     H_    0.797159 0.557544 0.877684 0.225040
N1    N     N_R   0.500920 0.500930 0.147930 -0.189917
N2    N     N_R   0.500930 0.500890 0.852020 -0.203301
O1    O     O_R   0.500000 0.319640 0.618810 -0.586534
O2    O     O_R   0.500020 0.319680 0.381230 -0.590228
O3    O     O_R   0.288380 0.499980 0.618770 -0.562400
O4    O     O_R   0.288400 0.500020 0.381190 -0.582483
O5    O     O_R   0.499980 0.680320 0.618770 -0.568327
O6    O     O_R   0.500000 0.680360 0.381190 -0.580833
O7    O     O_R   0.711600 0.499980 0.618810 -0.582803
O8    O     O_R   0.711620 0.500020 0.381230 -0.582160
C21   C     C_2   0.289091 0.872564 0.785956 0.425415
H11   H     H_    0.196494 0.902834 0.723374 0.059408
O9    O     O_2   0.270694 0.790213 0.870157 -0.547281
C22   C     C_3   0.333412 0.309848 0.134372 -0.779145
H12   H     H_    0.268021 0.338529 0.224815 0.263279
H13   H     H_    0.252392 0.269046 0.059071 0.177652
H14   H     H_    0.409458 0.235089 0.161685 0.224606

loop_
_geom_bond_atom_site_label_1
_geom_bond_atom_site_label_2
_ccdc_geom_bond_type
C7    C10   A    
C21   H11   S    
C2    H5    S    
Cu1   O1    S    
C5    H6    S    
C21   O9    D    
C15   O8    A    
C19   C20   A    
Cu1   O5    S    
C20   H1    S    
Cu2   O6    S    
C2    C3    A    
C5    C21   S    
C4    C18   A    
C10   N2    A    
Cu1   Cu2   S    
C11   C13   S    
C22   H14   S    
C13   H3    S    
Cu2   O8    S    
C3    C14   S    
Cu1   O7    S    
C6    H8    S    
C11   H10   S    
C8    C22   S    
C8    N1    A    
C12   O4    A    
C5    C6    S    
C6    C18   S    
C22   H13   S    
C13   H4    S    
C1    C19   S    
C16   C17   T    
C10   C11   S    
C7    N1    A    
C2    C20   A    
C3    C4    A    
Cu2   O4    S    
C11   H2    S    
C7    C13   S    
C6    H7    S    
Cu1   O3    S    
C15   O7    A    
C18   C19   A    
C12   O3    A    
C15   C17   S    
Cu2   N1    S    
C9    H9    S    
C22   H12   S    
C8    C9    A    
Cu1   N2    S    
C1    O1    A    
C14   O5    A    
C14   O6    A    
Cu2   O2    S    
C12   C16   S    
C1    O2    A    
C9    N2    A    
C4    C5    S    
