data_mof_unit_51645.cif
_audit_creation_date              2012-12-11T15:08:48-0500
_audit_creation_method            fapswitch 2.2
_symmetry_space_group_name_H-M    P1
_symmetry_Int_Tables_number       1
_space_group_crystal_system       triclinic
_cell_length_a                    19.546152
_cell_length_b                    11.44282
_cell_length_c                    18.692558
_cell_angle_alpha                 89.749634
_cell_angle_beta                  90.022212
_cell_angle_gamma                 90.057382
_cell_volume                      4180.79313208

loop_
_atom_site_label
_atom_site_type_symbol
_atom_type_description
_atom_site_fract_x
_atom_site_fract_y
_atom_site_fract_z
_atom_type_partial_charge
C1    C     C_R   0.273052 0.041380 0.854207 0.580370
C2    C     C_3   0.689135 0.525946 0.956853 -0.233352
C3    C     C_R   0.226879 0.543489 0.353754 0.571884
C4    C     C_R   0.467710 0.822970 0.645001 0.539772
C5    C     C_R   0.529694 0.822755 0.353183 0.537081
C6    C     C_R   0.968159 0.322831 0.645439 0.545567
C7    C     C_R   0.031033 0.322749 0.354088 0.539871
C8    C     C_R   0.261242 0.641545 0.643328 0.539792
C9    C     C_R   0.739082 0.640844 0.356421 0.540357
C10   C     C_R   0.761003 0.141763 0.643495 0.536404
C11   C     C_R   0.239617 0.139126 0.355689 0.541537
C12   C     C_3   0.471396 0.919221 0.030373 -0.146766
C13   C     C_3   0.810136 0.025857 0.043988 -0.237955
C14   C     C_3   0.525084 0.921239 0.969168 -0.150623
C15   C     C_3   0.971396 0.419222 0.030372 -0.146669
C16   C     C_3   0.025086 0.421239 0.969167 -0.150775
C17   C     C_3   0.432245 0.821053 0.991188 -0.108206
C18   C     C_3   0.566182 0.825004 0.008117 -0.110967
C19   C     C_3   0.932246 0.321053 0.991186 -0.108158
C20   C     C_3   0.066183 0.325003 0.008117 -0.111179
C21   C     C_3   0.485711 0.824646 0.931336 0.050308
C22   C     C_3   0.512876 0.824639 0.068403 0.056478
C23   C     C_3   0.985713 0.324646 0.931335 0.050123
C24   C     C_3   0.189136 0.025946 0.956853 -0.233476
C25   C     C_3   0.012876 0.324639 0.068402 0.056608
C26   C     C_1   0.305184 0.760025 0.099682 0.212253
C27   C     C_1   0.691485 0.754042 0.892541 0.214671
C28   C     C_1   0.805183 0.260027 0.099677 0.211836
C29   C     C_1   0.191485 0.254044 0.892543 0.216610
C30   C     C_3   0.318052 0.545326 0.963103 0.213540
C31   C     C_3   0.680150 0.553861 0.036615 0.218304
C32   C     C_3   0.818051 0.045324 0.963102 0.213623
C33   C     C_3   0.180151 0.053859 0.036616 0.218255
C34   C     C_3   0.178562 0.538792 0.027533 -0.251211
C35   C     C_3   0.819028 0.541533 0.975278 -0.257716
C36   C     C_3   0.678561 0.038791 0.027532 -0.251118
C37   C     C_R   0.727663 0.044046 0.146703 0.572515
C38   C     C_3   0.319029 0.041533 0.975277 -0.258048
C39   C     C_3   0.245866 0.712322 0.060718 0.298424
C40   C     C_3   0.751729 0.712410 0.933009 0.301726
C41   C     C_3   0.745865 0.212322 0.060716 0.298539
C42   C     C_3   0.251728 0.212410 0.933010 0.301247
C43   C     C_3   0.241969 0.579623 0.071985 0.029885
C44   C     C_3   0.756971 0.579335 0.927728 0.025949
C45   C     C_3   0.741968 0.079622 0.071984 0.029810
C46   C     C_3   0.256971 0.079336 0.927728 0.025321
C47   C     C_3   0.256425 0.616288 0.933897 0.014682
C48   C     C_R   0.773052 0.541378 0.854208 0.577535
C49   C     C_3   0.740061 0.631401 0.063425 0.009361
C50   C     C_3   0.756424 0.116284 0.933895 0.014671
C51   C     C_3   0.240062 0.131398 0.063426 0.009636
C52   C     C_3   0.192334 0.542480 0.946910 -0.333727
C53   C     C_3   0.804990 0.557435 0.055338 -0.318106
C54   C     C_3   0.692333 0.042477 0.946910 -0.333844
C55   C     C_3   0.304991 0.057432 0.055338 -0.317997
C56   C     C_3   0.245873 0.731377 0.977749 -0.180398
C57   C     C_3   0.751954 0.740706 0.014291 -0.198190
C58   C     C_3   0.745872 0.231375 0.977746 -0.180254
C59   C     C_R   0.227663 0.544046 0.146703 0.572487
C60   C     C_3   0.251955 0.240704 0.014292 -0.198513
C61   C     C_3   0.493588 0.702972 0.457892 -0.233344
C62   C     C_3   0.491013 0.702733 0.537790 -0.230364
C63   C     C_3   0.996717 0.202154 0.459233 -0.242714
C64   C     C_3   0.998888 0.201810 0.539402 -0.242380
C65   C     C_R   0.466119 0.820349 0.855878 0.575589
C66   C     C_R   0.533544 0.820530 0.144024 0.571130
C67   C     C_R   0.966120 0.320349 0.855877 0.576140
C68   C     C_R   0.033544 0.320530 0.144024 0.571397
C69   C     C_3   0.567155 0.882920 0.471899 -0.227370
C70   C     C_3   0.525966 0.729421 0.969170 -0.001575
C71   C     C_3   0.436814 0.908871 0.526168 -0.221924
C72   C     C_3   0.067302 0.386439 0.473589 -0.234387
C73   C     C_3   0.931803 0.389698 0.526007 -0.234094
C74   C     C_3   0.444876 0.901107 0.443958 -0.256310
C75   C     C_3   0.557756 0.881241 0.554257 -0.259631
C76   C     C_3   0.946023 0.400180 0.444825 -0.253932
C77   C     C_3   0.053329 0.396834 0.554529 -0.253905
C78   C     C_3   0.507922 0.827871 0.429367 0.041940
C79   C     C_3   0.487737 0.828767 0.568156 0.048026
C80   C     C_3   0.009472 0.328214 0.430268 0.044260
C81   C     C_3   0.474118 0.727379 0.030423 0.000599
C82   C     C_3   0.988648 0.328241 0.568948 0.047203
C83   C     C_3   0.185616 0.660782 0.456680 -0.290066
C84   C     C_3   0.817718 0.656617 0.541412 -0.291361
C85   C     C_3   0.681757 0.155423 0.458445 -0.290984
C86   C     C_3   0.323335 0.140609 0.538644 -0.285217
C87   C     C_3   0.186840 0.664821 0.536708 -0.247848
C88   C     C_3   0.818647 0.652339 0.460967 -0.256055
C89   C     C_3   0.681009 0.152850 0.539085 -0.255183
C90   C     C_3   0.320493 0.146001 0.458626 -0.252047
C91   C     C_3   0.238280 0.459208 0.474056 -0.210037
C92   C     C_3   0.025967 0.229421 0.969169 -0.001700
C93   C     C_3   0.757440 0.459879 0.527197 -0.197483
C94   C     C_3   0.739764 0.958180 0.475584 -0.197804
C95   C     C_3   0.246933 0.954069 0.526333 -0.215883
C96   C     C_3   0.310257 0.627299 0.442192 0.206287
C97   C     C_3   0.692045 0.634005 0.557700 0.221562
C98   C     C_3   0.807893 0.128378 0.442656 0.216843
C99   C     C_3   0.200010 0.145844 0.558486 0.202171
C100  C     C_3   0.240567 0.573701 0.429437 0.090988
C101  C     C_3   0.759850 0.574450 0.570647 0.083309
C102  C     C_3   0.739064 0.071733 0.430229 0.085890
C103  C     C_3   0.974119 0.227379 0.030422 0.000599
C104  C     C_3   0.262039 0.069182 0.569116 0.088899
C105  C     C_3   0.252997 0.607136 0.567249 0.024681
C106  C     C_3   0.747958 0.606981 0.432576 0.028397
C107  C     C_3   0.751606 0.107519 0.567761 0.032359
C108  C     C_3   0.249259 0.103607 0.431535 0.026990
C109  C     C_3   0.244311 0.476586 0.555816 -0.271367
C110  C     C_3   0.744326 0.476752 0.446539 -0.256107
C111  C     C_3   0.755431 0.977007 0.555422 -0.250472
C112  C     C_3   0.245106 0.972944 0.444658 -0.271215
C113  C     C_R   0.263331 0.646665 0.856300 0.574117
C114  C     C_3   0.310136 0.525857 0.043989 -0.237864
C115  C     C_R   0.730553 0.669296 0.139410 0.573334
C116  C     C_R   0.763331 0.146661 0.856299 0.573653
C117  C     C_R   0.230554 0.169292 0.139411 0.572954
C118  C     C_3   0.318794 0.640683 0.524065 -0.184610
C119  C     C_3   0.689211 0.661754 0.476817 -0.170879
C120  C     C_3   0.809645 0.162090 0.522441 -0.176513
C121  C     C_3   0.191967 0.161482 0.476512 -0.182263
C122  C     C_R   0.274605 0.040364 0.644912 0.584441
C123  C     C_R   0.725999 0.041533 0.354608 0.558345
C124  C     C_R   0.773214 0.543739 0.646244 0.562363
Cr1   Cr    Cr6+3 0.229620 0.836040 0.749110 1.047040
Cr2   Cr    Cr6+3 0.613980 0.676590 0.250790 1.082322
Cr3   Cr    Cr6+3 0.886020 0.176590 0.749210 1.086603
Cr4   Cr    Cr6+3 0.113980 0.176590 0.250790 1.079429
Cr5   Cr    Cr6+3 0.770380 0.836040 0.250890 1.045556
Cr6   Cr    Cr6+3 0.729620 0.336040 0.749110 1.047695
Cr7   Cr    Cr6+3 0.270380 0.336040 0.250890 1.050441
Cr8   Cr    Cr6+3 0.387630 0.990680 0.750730 1.044510
Cr9   Cr    Cr6+3 0.612370 0.990680 0.249270 1.040449
Cr10  Cr    Cr6+3 0.887630 0.490680 0.750730 1.043209
Cr11  Cr    Cr6+3 0.112370 0.490680 0.249270 1.040109
Cr12  Cr    Cr6+3 0.386020 0.676590 0.749210 1.085291
F1    F     F_    0.188469 0.765837 0.089331 -0.660395
F2    F     F_    0.617547 0.603797 0.049592 -0.664621
F3    F     F_    0.879555 0.098765 0.948124 -0.658363
F4    F     F_    0.117547 0.103796 0.049593 -0.664653
F5    F     F_    0.808408 0.764702 0.901684 -0.657462
F6    F     F_    0.688469 0.265837 0.089328 -0.660258
F7    F     F_    0.308407 0.264703 0.901685 -0.657005
F8    F     F_    0.359455 0.552289 0.414922 -0.667178
F9    F     F_    0.638761 0.560701 0.577420 -0.667307
F10   F     F_    0.859216 0.048757 0.427060 -0.668539
F11   F     F_    0.144136 0.091699 0.589376 -0.680044
F12   F     F_    0.379556 0.598767 0.948125 -0.658335
H1    H     H_    0.379249 0.798982 0.983888 0.157294
H2    H     H_    0.805109 0.767651 0.025642 0.161346
H3    H     H_    0.188588 0.932524 0.949005 0.113732
H4    H     H_    0.354532 0.562683 0.072807 0.154592
H5    H     H_    0.644381 0.556079 0.925606 0.155213
H6    H     H_    0.854532 0.062683 0.072806 0.154215
H7    H     H_    0.144381 0.056080 0.925607 0.155568
H8    H     H_    0.319809 0.459633 0.936279 0.227337
H9    H     H_    0.680088 0.470730 0.067170 0.232213
H10   H     H_    0.819809 0.959630 0.936278 0.227269
H11   H     H_    0.180089 0.970728 0.067170 0.232184
H12   H     H_    0.660959 0.955664 0.047445 0.102467
H13   H     H_    0.693109 0.258517 0.964224 0.165402
H14   H     H_    0.332373 0.953199 0.963299 0.095979
H15   H     H_    0.160960 0.455665 0.047444 0.102457
H16   H     H_    0.832370 0.453197 0.963302 0.096145
H17   H     H_    0.700747 0.954916 0.926726 0.156425
H18   H     H_    0.297581 0.973448 0.082238 0.166756
H19   H     H_    0.200748 0.454919 0.926725 0.156097
H20   H     H_    0.797581 0.473452 0.082240 0.166930
H21   H     H_    0.305109 0.267649 0.025644 0.161444
H22   H     H_    0.633727 0.096343 0.037860 0.212258
H23   H     H_    0.365453 0.093358 0.961281 0.205959
H24   H     H_    0.133728 0.596343 0.037861 0.212271
H25   H     H_    0.865453 0.593355 0.961281 0.205970
H26   H     H_    0.147470 0.579585 0.918277 0.152361
H27   H     H_    0.850092 0.599742 0.080641 0.159001
H28   H     H_    0.647469 0.079582 0.918277 0.152349
H29   H     H_    0.619696 0.804646 0.011831 0.154406
H30   H     H_    0.350092 0.099738 0.080641 0.158992
H31   H     H_    0.531012 0.635536 0.442010 0.164555
H32   H     H_    0.449639 0.646513 0.555140 0.147574
H33   H     H_    0.033168 0.134565 0.441175 0.160636
H34   H     H_    0.963507 0.133636 0.558589 0.160814
H35   H     H_    0.444769 0.674371 0.435693 0.218081
H36   H     H_    0.536913 0.658470 0.559171 0.220440
H37   H     H_    0.946363 0.173689 0.440317 0.218239
H38   H     H_    0.048723 0.171127 0.557002 0.232183
H39   H     H_    0.608484 0.827567 0.457209 0.108152
H40   H     H_    0.879250 0.298982 0.983883 0.157328
H41   H     H_    0.384286 0.895463 0.543179 0.111464
H42   H     H_    0.107319 0.324377 0.467779 0.113311
H43   H     H_    0.890469 0.330385 0.533125 0.105930
H44   H     H_    0.598550 0.830212 0.580906 0.123718
H45   H     H_    0.398966 0.861564 0.419061 0.108843
H46   H     H_    0.096116 0.359609 0.586297 0.128856
H47   H     H_    0.901781 0.367944 0.413170 0.108413
H48   H     H_    0.449682 0.996963 0.056998 0.133347
H49   H     H_    0.544394 0.001219 0.942596 0.132659
H50   H     H_    0.949682 0.496963 0.056996 0.133341
H51   H     H_    0.119697 0.304645 0.011834 0.154185
H52   H     H_    0.044396 0.501219 0.942596 0.132638
H53   H     H_    0.452717 0.989283 0.420287 0.126307
H54   H     H_    0.559789 0.970576 0.576627 0.116629
H55   H     H_    0.955815 0.492733 0.429701 0.130844
H56   H     H_    0.046669 0.489943 0.569850 0.126476
H57   H     H_    0.451182 0.998932 0.540525 0.128240
H58   H     H_    0.575972 0.973400 0.453616 0.133855
H59   H     H_    0.920677 0.476194 0.548465 0.135404
H60   H     H_    0.080310 0.473044 0.451178 0.135646
H61   H     H_    0.132498 0.638998 0.440982 0.152872
H62   H     H_    0.277992 0.801553 0.958440 0.067268
H63   H     H_    0.870121 0.636977 0.559878 0.155110
H64   H     H_    0.629268 0.134578 0.440507 0.154769
H65   H     H_    0.373110 0.108712 0.555230 0.149504
H66   H     H_    0.195765 0.748210 0.433769 0.110768
H67   H     H_    0.807965 0.747088 0.559618 0.109769
H68   H     H_    0.691972 0.245292 0.438841 0.112262
H69   H     H_    0.322209 0.230992 0.560415 0.111939
H70   H     H_    0.179298 0.754743 0.553190 0.151068
H71   H     H_    0.834321 0.740012 0.442127 0.172746
H72   H     H_    0.665747 0.240724 0.557046 0.167148
H73   H     H_    0.721824 0.815177 0.028975 0.054787
H74   H     H_    0.333494 0.236861 0.443278 0.167271
H75   H     H_    0.141111 0.618570 0.558245 0.133387
H76   H     H_    0.859509 0.593038 0.442420 0.129519
H77   H     H_    0.640034 0.094551 0.558512 0.128331
H78   H     H_    0.360928 0.091443 0.434963 0.132946
H79   H     H_    0.688522 0.929416 0.473322 0.085536
H80   H     H_    0.279437 0.881101 0.541760 0.082530
H81   H     H_    0.189224 0.426119 0.462320 0.086098
H82   H     H_    0.807550 0.427350 0.533836 0.084872
H83   H     H_    0.718006 0.929479 0.589702 0.097799
H84   H     H_    0.777992 0.301549 0.958437 0.067388
H85   H     H_    0.287894 0.926574 0.418237 0.108893
H86   H     H_    0.198409 0.443796 0.584145 0.110838
H87   H     H_    0.782865 0.428813 0.414303 0.098971
H88   H     H_    0.314636 0.713268 0.414798 0.103569
H89   H     H_    0.689092 0.714923 0.590036 0.102361
H90   H     H_    0.814527 0.206882 0.408006 0.103144
H91   H     H_    0.206548 0.231824 0.585093 0.117279
H92   H     H_    0.545880 0.651286 0.941515 0.188155
H93   H     H_    0.455638 0.647281 0.057519 0.185572
H94   H     H_    0.045881 0.151286 0.941515 0.188266
H95   H     H_    0.221825 0.315175 0.028978 0.054657
H96   H     H_    0.955638 0.147281 0.057517 0.185351
H97   H     H_    0.338334 0.727047 0.537835 0.067364
H98   H     H_    0.698990 0.752897 0.471593 0.041232
H99   H     H_    0.798776 0.253330 0.524156 0.043368
H100  H     H_    0.199336 0.251649 0.464555 0.052570
H101  H     H_    0.357411 0.575622 0.540497 0.171212
H102  H     H_    0.639021 0.637152 0.454757 0.160770
H103  H     H_    0.859390 0.141167 0.545803 0.156786
H104  H     H_    0.141284 0.130384 0.459038 0.156472
H105  H     H_    0.277980 0.397612 0.455969 0.180273
H106  H     H_    0.193110 0.758518 0.964227 0.165426
H107  H     H_    0.719811 0.398413 0.549530 0.183633
H108  H     H_    0.774906 0.893163 0.452998 0.181783
H109  H     H_    0.194701 0.927419 0.541225 0.198059
H110  H     H_    0.288751 0.427248 0.577467 0.123655
H111  H     H_    0.692705 0.443445 0.432050 0.147256
H112  H     H_    0.807599 0.944686 0.568583 0.153534
H113  H     H_    0.196344 0.939505 0.421945 0.131217
H114  H     H_    0.313771 0.433959 0.057542 0.112380
H115  H     H_    0.688588 0.432524 0.949006 0.113841
H116  H     H_    0.813771 0.933959 0.057542 0.112376
N1    N     N_1   0.351071 0.794646 0.132581 -0.343006
N2    N     N_1   0.645018 0.785265 0.859147 -0.337853
N3    N     N_1   0.851071 0.294648 0.132574 -0.344301
N4    N     N_1   0.145017 0.285268 0.859150 -0.332844
O1    O     O_R   0.214130 0.708570 0.829890 -0.538516
O2    O     O_R   0.542830 0.717300 0.331620 -0.521408
O3    O     O_R   0.957170 0.217300 0.668380 -0.517238
O4    O     O_R   0.042830 0.217300 0.331620 -0.521985
O5    O     O_R   0.320870 0.624890 0.673130 -0.514705
O6    O     O_R   0.679130 0.624890 0.326870 -0.512221
O7    O     O_R   0.820870 0.124890 0.673130 -0.516154
O8    O     O_R   0.179130 0.124890 0.326870 -0.512390
O9    O     O_3   0.334430 0.834430 0.749680 -0.319539
O10   O     O_3   0.665570 0.834430 0.250320 -0.322035
O11   O     O_3   0.834430 0.334430 0.749680 -0.317525
O12   O     O_R   0.785870 0.708570 0.170110 -0.534595
O13   O     O_3   0.165570 0.334430 0.250320 -0.322734
O14   O     O_R   0.236050 0.959150 0.825270 -0.527729
O15   O     O_R   0.763950 0.959150 0.174730 -0.534760
O16   O     O_R   0.736050 0.459150 0.825270 -0.529477
O17   O     O_R   0.263950 0.459150 0.174730 -0.534199
O18   O     O_R   0.332100 0.076650 0.832310 -0.443742
O19   O     O_R   0.667900 0.076650 0.167690 -0.449421
O20   O     O_R   0.832100 0.576650 0.832310 -0.444211
O21   O     O_R   0.167900 0.576650 0.167690 -0.450135
O22   O     O_R   0.446500 0.918620 0.826240 -0.515589
O23   O     O_R   0.714130 0.208570 0.829890 -0.538328
O24   O     O_R   0.553500 0.918620 0.173760 -0.515051
O25   O     O_R   0.946500 0.418620 0.826240 -0.515577
O26   O     O_R   0.053500 0.418620 0.173760 -0.514705
O27   O     O_R   0.457310 0.715830 0.831280 -0.459198
O28   O     O_R   0.542690 0.715830 0.168720 -0.462434
O29   O     O_R   0.957310 0.215830 0.831280 -0.458438
O30   O     O_R   0.042690 0.215830 0.168720 -0.463065
O31   O     O_R   0.321000 0.623520 0.824130 -0.430403
O32   O     O_R   0.679000 0.623520 0.175870 -0.436981
O33   O     O_R   0.821000 0.123520 0.824130 -0.430873
O34   O     O_R   0.285870 0.208570 0.170110 -0.535033
O35   O     O_R   0.179000 0.123520 0.175870 -0.437576
O36   O     O_R   0.213990 0.710040 0.667000 -0.525804
O37   O     O_R   0.786010 0.710040 0.333000 -0.521743
O38   O     O_R   0.713990 0.210040 0.667000 -0.524593
O39   O     O_R   0.286010 0.210040 0.333000 -0.521402
O40   O     O_R   0.235920 0.960520 0.674260 -0.458462
O41   O     O_R   0.764080 0.960520 0.325740 -0.458696
O42   O     O_R   0.735920 0.460520 0.674260 -0.460670
O43   O     O_R   0.264080 0.460520 0.325740 -0.448627
O44   O     O_R   0.331960 0.078120 0.669410 -0.542420
O45   O     O_R   0.446360 0.919990 0.675230 -0.515808
O46   O     O_R   0.668040 0.078120 0.330590 -0.541037
O47   O     O_R   0.831960 0.578120 0.669410 -0.541724
O48   O     O_R   0.168040 0.578120 0.330590 -0.544807
O49   O     O_R   0.553640 0.919990 0.324770 -0.515009
O50   O     O_R   0.946360 0.419990 0.675230 -0.516182
O51   O     O_R   0.053640 0.419990 0.324770 -0.514107
O52   O     O_R   0.457170 0.717300 0.668380 -0.519483

loop_
_geom_bond_atom_site_label_1
_geom_bond_atom_site_label_2
_ccdc_geom_bond_type
C8    O36   A    
C29   C42   S    
C35   C53   S    
C111  H112  S    
Cr7   O34   S    
C114  H4    S    
C10   O7    A    
C48   O16   A    
C5    O49   A    
C38   H23   S    
C57   H73   S    
Cr2   O10   S    
C7    O51   A    
C69   H58   S    
Cr10  O11   S    
C14   C21   S    
Cr11  O26   S    
C1    C46   S    
C112  H85   S    
C10   O38   A    
C94   C111  S    
C54   H28   S    
Cr5   O15   S    
Cr1   O36   S    
Cr5   O37   S    
C3    C100  S    
C38   C55   S    
C18   H29   S    
Cr10  O20   S    
C120  H99   S    
C91   C100  S    
C93   C110  S    
C99   C121  S    
C30   H8    S    
C12   H48   S    
Cr9   O46   S    
C1    O18   A    
C75   H54   S    
Cr2   O2    S    
C24   C33   S    
Cr2   O28   S    
C32   F3    S    
C86   C90   S    
C119  H102  S    
C93   C101  S    
Cr7   O17   S    
Cr6   O38   S    
C98   C102  S    
C68   O30   A    
C17   C21   S    
C87   H75   S    
C19   C23   S    
C24   H3    S    
C19   H40   S    
C96   F8    S    
C20   C92   S    
C30   C47   S    
C39   C56   S    
C66   O28   A    
C16   C20   S    
C123  O46   A    
Cr11  O21   S    
C31   H9    S    
C94   H79   S    
C49   C115  S    
C61   H31   S    
C75   H44   S    
C83   C100  S    
Cr4   O8    S    
C55   H30   S    
C105  C118  S    
C54   H17   S    
C37   C45   S    
C102  C123  S    
C77   H56   S    
C107  C120  S    
C110  H87   S    
C99   F11   S    
C60   H95   S    
C97   F9    S    
C90   H78   S    
C84   C88   S    
Cr3   O7    S    
C98   C120  S    
C47   C52   S    
C59   O21   A    
C74   H53   S    
C97   H89   S    
C36   H22   S    
C88   H71   S    
C24   C46   S    
Cr1   O40   S    
C114  H114  S    
Cr9   O49   S    
C52   H19   S    
C13   C45   S    
C77   C82   S    
C49   C53   S    
C51   C55   S    
C13   H6    S    
C58   H84   S    
C71   H57   S    
C94   C102  S    
C42   F7    S    
C29   N4    T    
C41   C45   S    
C55   H18   S    
C75   C79   S    
C64   H38   S    
C44   C48   S    
C115  O12   A    
C63   H33   S    
C56   H106  S    
C111  H83   S    
C13   C32   S    
Cr12  O5    S    
C86   C104  S    
C8    C105  S    
C37   O19   A    
C71   C79   S    
C84   H63   S    
C72   H60   S    
C59   O17   A    
C5    O2    A    
Cr1   O9    S    
C60   H21   S    
C7    O4    A    
C113  O1    A    
C41   C58   S    
C15   C25   S    
C27   N2    T    
C104  C122  S    
C12   C22   S    
C49   C57   S    
C23   C67   S    
Cr6   O11   S    
C121  H100  S    
C2    C44   S    
Cr6   O23   S    
C88   H76   S    
C4    O52   A    
C16   H52   S    
C43   C59   S    
C64   H34   S    
C6    O50   A    
Cr2   O6    S    
Cr3   O3    S    
C40   F5    S    
C122  O40   A    
Cr4   O4    S    
C117  O35   A    
C70   H92   S    
C72   H42   S    
C63   C80   S    
C14   H49   S    
C101  C124  S    
C11   O39   A    
C35   H25   S    
Cr5   O41   S    
Cr4   O35   S    
C91   H105  S    
C97   C119  S    
C124  O47   A    
C53   H20   S    
C87   C105  S    
C27   C40   S    
C32   C50   S    
C103  H96   S    
Cr5   O10   S    
C16   C23   S    
C52   H26   S    
Cr7   O13   S    
C83   H66   S    
C53   H27   S    
Cr6   O42   S    
Cr7   O39   S    
C6    O3    A    
C18   C22   S    
C107  C111  S    
C34   C43   S    
C76   C80   S    
C4    O45   A    
Cr12  O31   S    
C90   C108  S    
C41   F6    S    
C72   C80   S    
Cr11  O51   S    
Cr12  O52   S    
C96   C100  S    
C51   C117  S    
C61   C62   S    
C11   O8    A    
C38   C46   S    
C36   C54   S    
C62   H36   S    
C63   C64   S    
C40   C44   S    
C11   C108  S    
C23   C92   S    
C51   C60   S    
Cr3   O11   S    
Cr10  O47   S    
C85   C102  S    
C47   C56   S    
C93   H82   S    
C65   O22   A    
C83   C87   S    
C106  C119  S    
C108  C121  S    
C76   H55   S    
C15   C19   S    
C50   C54   S    
C28   N3    T    
C91   H81   S    
C95   C112  S    
C43   C114  S    
C26   C39   S    
C20   C25   S    
C28   C41   S    
Cr5   O12   S    
C42   C46   S    
C87   H70   S    
C81   H93   S    
C109  H110  S    
C105  C109  S    
C63   H37   S    
C12   C17   S    
C124  O42   A    
C37   O15   A    
C8    O5    A    
C84   H67   S    
C112  H113  S    
C99   H91   S    
C99   C104  S    
C73   H59   S    
C74   H45   S    
C113  O31   A    
C67   O29   A    
C25   C68   S    
C31   C49   S    
C50   C58   S    
C22   C81   S    
C85   H68   S    
C15   H50   S    
C85   C89   S    
C121  H104  S    
Cr9   O10   S    
C108  C112  S    
C115  O32   A    
Cr8   O45   S    
C77   H46   S    
C56   H62   S    
Cr3   O29   S    
C2    H115  S    
C89   C107  S    
C122  O44   A    
C123  O41   A    
C71   H41   S    
C31   F2    S    
C73   C76   S    
Cr8   O22   S    
C73   C82   S    
C34   H24   S    
C30   C114  S    
C47   C113  S    
C40   C57   S    
C21   C65   S    
C3    O43   A    
C89   H77   S    
C118  H101  S    
C71   C74   S    
C93   H107  S    
C30   F12   S    
C98   H90   S    
C33   C51   S    
C34   C52   S    
C35   H16   S    
C110  H111  S    
C89   H72   S    
C48   O20   A    
Cr7   O43   S    
C116  O33   A    
C69   C75   S    
C17   C81   S    
C13   H116  S    
Cr10  O25   S    
Cr11  O48   S    
C9    O37   A    
C74   C78   S    
C5    C78   S    
C58   H13   S    
C33   H11   S    
C7    C80   S    
C18   C70   S    
C39   F1    S    
C6    C82   S    
C14   C18   S    
Cr11  O13   S    
C120  H103  S    
Cr10  O50   S    
C118  H97   S    
Cr8   O9    S    
C96   C118  S    
C76   H47   S    
C90   H74   S    
C62   H32   S    
C1    O14   A    
Cr2   O32   S    
C33   F4    S    
C15   C16   S    
C70   C81   S    
C65   O27   A    
C95   H80   S    
C22   C66   S    
Cr6   O16   S    
C92   C103  S    
C92   H94   S    
Cr8   O18   S    
Cr9   O19   S    
C68   O26   A    
C24   H7    S    
C26   N1    T    
C109  H86   S    
C66   O24   A    
C84   C101  S    
C69   C78   S    
C19   C103  S    
Cr4   O13   S    
C32   H10   S    
C119  H98   S    
C61   H35   S    
Cr9   O24   S    
C9    O6    A    
C4    C79   S    
C34   H15   S    
C42   C60   S    
C25   C103  S    
C39   C43   S    
C98   F10   S    
C9    C106  S    
Cr1   O1    S    
C2    C31   S    
C86   H69   S    
C117  O34   A    
C20   H51   S    
C72   C77   S    
Cr12  O27   S    
C94   H108  S    
C88   C106  S    
C61   C78   S    
C57   H2    S    
C67   O25   A    
C96   H88   S    
C36   C45   S    
C83   H61   S    
Cr8   O44   S    
C35   C44   S    
C64   C82   S    
C73   H43   S    
C12   C14   S    
C2    H5    S    
C85   H64   S    
C10   C107  S    
C95   C104  S    
C106  C110  S    
C95   H109  S    
C69   H39   S    
C17   H1    S    
Cr3   O33   S    
Cr4   O30   S    
C116  O23   A    
C21   C70   S    
C3    O48   A    
C91   C109  S    
Cr12  O9    S    
C86   H65   S    
C50   C116  S    
C36   H12   S    
C38   H14   S    
Cr1   O14   S    
C62   C79   S    
C97   C101  S    
