data_mof_unit_18495.cif
_audit_creation_date              2012-10-26T17:12:46-0400
_audit_creation_method            fapswitch 2.2
_symmetry_space_group_name_H-M    P1
_symmetry_Int_Tables_number       1
_space_group_crystal_system       triclinic
_cell_length_a                    27.753313
_cell_length_b                    18.70439
_cell_length_c                    16.692418
_cell_angle_alpha                 90.224137
_cell_angle_beta                  62.886257
_cell_angle_gamma                 90.354355
_cell_volume                      7712.75463352

loop_
_atom_site_label
_atom_site_type_symbol
_atom_type_description
_atom_site_fract_x
_atom_site_fract_y
_atom_site_fract_z
_atom_type_partial_charge
C1    C     C_R   0.297346 0.733535 0.327786 0.590768
C2    C     C_R   0.613756 0.999642 0.457628 -0.068866
C3    C     C_R   0.685217 0.726963 0.912341 -0.047191
C4    C     C_R   0.168256 0.913561 0.984821 0.253092
C5    C     C_R   0.891591 0.185479 0.946901 0.263258
C6    C     C_R   0.888508 0.815207 0.948454 0.262308
C7    C     C_R   0.122568 0.178749 0.041866 0.260053
C8    C     C_R   0.668080 0.412952 0.984832 0.251669
C9    C     C_R   0.391952 0.685944 0.946805 0.262932
C10   C     C_R   0.399457 0.298805 0.944965 0.254419
C11   C     C_R   0.613012 0.682589 0.050951 0.262796
C12   C     C_R   0.197213 0.897590 0.033010 -0.123847
C13   C     C_R   0.898989 0.498458 0.499721 -0.074037
C14   C     C_R   0.858771 0.195060 0.904087 -0.133147
C15   C     C_R   0.855438 0.806941 0.905563 -0.131300
C16   C     C_R   0.155528 0.185257 0.085159 -0.142454
C17   C     C_R   0.696869 0.396738 0.033166 -0.125938
C18   C     C_R   0.359183 0.695762 0.903952 -0.133186
C19   C     C_R   0.372314 0.274998 0.895950 -0.127654
C20   C     C_R   0.646493 0.689601 0.093240 -0.139055
C21   C     C_R   0.240957 0.700428 0.802332 0.258910
C22   C     C_R   0.772337 0.325489 0.198656 0.261648
C23   C     C_R   0.760178 0.688590 0.204277 0.263012
C24   C     C_R   0.084299 0.499391 0.557866 -0.058641
C25   C     C_R   0.283270 0.199955 0.753510 0.252826
C26   C     C_R   0.740607 0.199802 0.802277 0.260472
C27   C     C_R   0.273287 0.826629 0.198271 0.257018
C28   C     C_R   0.263776 0.182571 0.205383 0.262654
C29   C     C_R   0.741302 0.809140 0.795294 0.261850
C30   C     C_R   0.275448 0.691340 0.842296 -0.130272
C31   C     C_R   0.745697 0.347653 0.148586 -0.126445
C32   C     C_R   0.726021 0.680083 0.163454 -0.140707
C33   C     C_R   0.314108 0.217236 0.798232 -0.126582
C34   C     C_R   0.775056 0.190571 0.842291 -0.129323
C35   C     C_R   0.624675 0.873271 0.424139 0.249247
C36   C     C_R   0.246827 0.849208 0.147966 -0.124547
C37   C     C_R   0.230699 0.172673 0.163774 -0.075710
C38   C     C_R   0.775918 0.816534 0.835382 -0.139548
C39   C     C_R   0.928745 0.899119 0.064022 0.580238
C40   C     C_R   0.072270 0.099823 0.935267 0.616800
C41   C     C_R   0.077887 0.909965 0.929724 0.603715
C42   C     C_R   0.928646 0.100597 0.064327 0.585813
C43   C     C_R   0.429441 0.398263 0.063531 0.583252
C44   C     C_R   0.571366 0.600750 0.935918 0.613416
C45   C     C_R   0.577809 0.409808 0.929766 0.606996
C46   C     C_R   0.427168 0.128714 0.402807 0.252555
C47   C     C_R   0.428696 0.600660 0.064302 0.587353
C48   C     C_R   0.022663 0.624814 0.588374 0.069927
C49   C     C_R   0.961252 0.373610 0.470939 0.014206
C50   C     C_R   0.923755 0.619831 0.576121 0.017398
C51   C     C_R   0.040796 0.369989 0.532044 0.011038
C52   C     C_R   0.574943 0.128454 0.422383 0.011301
C53   C     C_R   0.475726 0.870769 0.407868 0.018578
C54   C     C_R   0.475996 0.129607 0.410750 0.014439
C55   C     C_R   0.574650 0.871280 0.419920 0.016297
C56   C     C_R   0.988306 0.684528 0.611908 -0.102484
C57   C     C_R   0.426736 0.871974 0.400598 0.252863
C58   C     C_R   0.986826 0.308994 0.471661 -0.142127
C59   C     C_R   0.939322 0.681805 0.606985 -0.158262
C60   C     C_R   0.024648 0.306789 0.505110 -0.146042
C61   C     C_R   0.553428 0.192882 0.409835 -0.145594
C62   C     C_R   0.504076 0.806828 0.400361 -0.140261
C63   C     C_R   0.504513 0.193540 0.404896 -0.143662
C64   C     C_R   0.552892 0.807157 0.405696 -0.143749
C65   C     C_R   0.958673 0.560685 0.549527 0.004020
C66   C     C_R   0.017654 0.435120 0.527040 0.008468
C67   C     C_R   0.006637 0.562098 0.559851 -0.005214
C68   C     C_R   0.625123 0.126056 0.425555 0.254523
C69   C     C_R   0.974512 0.435892 0.504488 0.007828
C70   C     C_R   0.496934 0.064973 0.424467 0.006741
C71   C     C_R   0.545918 0.935117 0.429831 0.008554
C72   C     C_R   0.545987 0.064638 0.431286 0.007019
C73   C     C_R   0.496841 0.935123 0.422996 0.007713
C74   C     C_R   0.470742 0.000115 0.425611 -0.016429
C75   C     C_R   0.568404 0.999762 0.439992 -0.016928
C76   C     C_R   0.944427 0.498631 0.516760 -0.013855
C77   C     C_R   0.036116 0.499055 0.548539 -0.015295
C78   C     C_R   0.393880 0.934366 0.426697 -0.007839
C79   C     C_R   0.079324 0.369983 0.565035 0.261494
C80   C     C_R   0.637883 0.064894 0.462958 0.004305
C81   C     C_R   0.638089 0.934463 0.461494 -0.007067
C82   C     C_R   0.394104 0.066116 0.426969 0.007872
C83   C     C_R   0.885560 0.436042 0.465476 0.006407
C84   C     C_R   0.106387 0.564972 0.568733 -0.055809
C85   C     C_R   0.109249 0.433652 0.558145 0.008182
C86   C     C_R   0.866120 0.559953 0.519487 -0.011450
C87   C     C_R   0.338657 0.934341 0.443166 0.040552
C88   C     C_R   0.675158 0.064779 0.500929 -0.016672
C89   C     C_R   0.676112 0.934854 0.498261 0.029581
C90   C     C_R   0.874061 0.615365 0.571271 0.252766
C91   C     C_R   0.339019 0.065881 0.441727 -0.006723
C92   C     C_R   0.836587 0.435079 0.457408 -0.001986
C93   C     C_R   0.160913 0.565612 0.556643 -0.000293
C94   C     C_R   0.161551 0.434042 0.554927 -0.011239
C95   C     C_R   0.826349 0.562916 0.487353 0.032922
C96   C     C_R   0.314096 0.999736 0.441600 0.166332
C97   C     C_R   0.688633 0.999517 0.527220 0.162170
C98   C     C_R   0.813284 0.500578 0.453641 0.174750
C99   C     C_R   0.184745 0.500259 0.561087 0.182311
C100  C     C_R   0.921485 0.377071 0.440254 0.259357
C101  C     C_R   0.703751 0.268658 0.671993 0.576651
C102  C     C_R   0.071496 0.626011 0.595867 0.252929
C103  C     C_R   0.234781 0.792706 0.940665 0.014189
C104  C     C_R   0.795381 0.261019 0.033045 0.014409
C105  C     C_R   0.784557 0.756793 0.041488 0.014969
C106  C     C_R   0.234638 0.204506 0.941932 0.017417
C107  C     C_R   0.734310 0.291804 0.940841 0.013930
C108  C     C_R   0.295983 0.762050 0.032765 0.014002
C109  C     C_R   0.296398 0.235312 0.033152 0.014483
C110  C     C_R   0.717322 0.739695 0.957175 0.016092
C111  C     C_R   0.274128 0.738447 0.909054 -0.007136
C112  C     C_R   0.703238 0.732501 0.672137 0.593752
C113  C     C_R   0.755298 0.314407 0.066790 -0.006208
C114  C     C_R   0.735523 0.718239 0.085234 -0.006856
C115  C     C_R   0.290046 0.223654 0.892412 -0.004357
C116  C     C_R   0.773664 0.237550 0.909197 -0.007036
C117  C     C_R   0.256060 0.815667 0.066396 -0.005175
C118  C     C_R   0.245012 0.202663 0.078996 -0.024006
C119  C     C_R   0.766487 0.777980 0.913285 -0.008284
C120  C     C_R   0.309038 0.729952 0.948874 -0.007451
C121  C     C_R   0.728054 0.334293 0.015483 -0.004815
C122  C     C_R   0.700343 0.713259 0.045074 -0.006249
C123  C     C_R   0.296882 0.267533 0.328004 0.546871
C124  C     C_R   0.319678 0.245556 0.939292 -0.005150
C125  C     C_R   0.808545 0.229035 0.949064 -0.006581
C126  C     C_R   0.228622 0.835342 0.015208 -0.004242
C127  C     C_R   0.211693 0.195846 0.035942 -0.014834
C128  C     C_R   0.801657 0.782925 0.953458 -0.006140
C129  C     C_R   0.165228 0.862525 0.924200 0.043710
C130  C     C_R   0.868481 0.193782 0.041748 0.048863
C131  C     C_R   0.865077 0.809641 0.043491 0.049313
C132  C     C_R   0.146778 0.173997 0.946819 0.059777
C133  C     C_R   0.664985 0.361965 0.924251 0.042466
C134  C     C_R   0.797272 0.233396 0.327800 0.604946
C135  C     C_R   0.368843 0.694303 0.041624 0.048372
C136  C     C_R   0.372002 0.299078 0.040405 0.051530
C137  C     C_R   0.636082 0.688550 0.955980 0.057033
C138  C     C_R   0.127950 0.867536 0.887399 -0.003569
C139  C     C_R   0.889087 0.160443 0.096749 -0.003151
C140  C     C_R   0.888317 0.839901 0.096799 -0.005081
C141  C     C_R   0.117797 0.151958 0.898685 0.015103
C142  C     C_R   0.627766 0.367184 0.887432 -0.003137
C143  C     C_R   0.389289 0.660705 0.096685 -0.003901
C144  C     C_R   0.390567 0.336927 0.095966 -0.003871
C145  C     C_R   0.203814 0.768794 0.672014 0.566557
C146  C     C_R   0.612141 0.659483 0.903074 0.008232
C147  C     C_R   0.138664 0.830900 0.808207 -0.178671
C148  C     C_R   0.866113 0.177614 0.188415 -0.179932
C149  C     C_R   0.866570 0.821442 0.187897 -0.190822
C150  C     C_R   0.138716 0.169565 0.808108 -0.178343
C151  C     C_R   0.638482 0.330635 0.808188 -0.181857
C152  C     C_R   0.366296 0.677856 0.188369 -0.180057
C153  C     C_R   0.366518 0.322058 0.188341 -0.174085
C154  C     C_R   0.633554 0.678447 0.812200 -0.180813
C155  C     C_R   0.181883 0.783758 0.769936 0.000469
C156  C     C_R   0.208786 0.220834 0.667904 0.601390
C157  C     C_R   0.824474 0.227783 0.227524 0.004608
C158  C     C_R   0.822585 0.774409 0.228211 0.000639
C159  C     C_R   0.191374 0.195632 0.760454 -0.004310
C160  C     C_R   0.681672 0.283415 0.769930 0.001009
C161  C     C_R   0.324757 0.728185 0.227445 0.002747
C162  C     C_R   0.323991 0.272836 0.228250 -0.034099
C163  C     C_R   0.677870 0.724912 0.771720 0.001661
C164  C     C_R   0.208705 0.762584 0.821599 0.049436
C165  C     C_R   0.805893 0.264142 0.171465 0.053365
C166  C     C_R   0.799223 0.744428 0.174917 0.056657
C167  C     C_R   0.796868 0.767296 0.327862 0.586388
C168  C     C_R   0.226043 0.196996 0.802386 0.043793
C169  C     C_R   0.708375 0.262001 0.821642 0.049449
C170  C     C_R   0.306457 0.764918 0.171249 0.047589
C171  C     C_R   0.303888 0.237476 0.173663 -0.009164
C172  C     C_R   0.701924 0.753720 0.824620 0.053920
C173  C     C_R   0.195448 0.632088 0.531929 0.573137
C174  C     C_R   0.804124 0.368152 0.470537 0.586600
C175  C     C_R   0.799896 0.630702 0.484479 0.631456
C176  C     C_R   0.195707 0.367974 0.531438 0.577800
C177  C     C_R   0.700288 0.131150 0.513516 0.581700
C178  C     C_R   0.419095 0.000229 0.427775 -0.069422
C179  C     C_R   0.304408 0.867888 0.468240 0.625803
C180  C     C_R   0.304585 0.132131 0.467442 0.604874
C181  C     C_R   0.700791 0.868829 0.512022 0.628216
C182  C     C_R   0.202639 0.805602 0.895925 -0.052837
C183  C     C_R   0.822972 0.239203 0.082576 -0.048658
C184  C     C_R   0.816238 0.770514 0.086816 -0.048672
C185  C     C_R   0.202408 0.192264 0.897142 -0.048598
C186  C     C_R   0.702278 0.304901 0.896028 -0.053231
C187  C     C_R   0.323501 0.740025 0.082350 -0.050286
C188  C     C_R   0.324102 0.257690 0.082468 -0.039866
Cu1   Cu    Cu3+1 0.209920 0.785290 0.495070 1.056230
Cu2   Cu    Cu3+1 0.504760 0.500000 0.075850 0.997997
Cu3   Cu    Cu3+1 0.995240 0.000000 0.924150 1.009893
Cu4   Cu    Cu3+1 0.004760 0.000000 0.075850 1.004130
Cu5   Cu    Cu3+1 0.790080 0.214710 0.504930 1.028361
Cu6   Cu    Cu3+1 0.790080 0.785290 0.504930 1.043007
Cu7   Cu    Cu3+1 0.209920 0.214710 0.495070 1.042559
Cu8   Cu    Cu3+1 0.709920 0.285290 0.495070 1.021389
Cu9   Cu    Cu3+1 0.290080 0.714710 0.504930 1.042795
Cu10  Cu    Cu3+1 0.290080 0.285290 0.504930 1.021578
Cu11  Cu    Cu3+1 0.709920 0.714710 0.495070 1.048397
Cu12  Cu    Cu3+1 0.495240 0.500000 0.924150 1.005727
H1    H     H_    0.114258 0.841163 0.774069 0.172163
H2    H     H_    0.874961 0.182456 0.833197 0.090874
H3    H     H_    0.873282 0.814729 0.833526 0.085027
H4    H     H_    0.136398 0.186997 0.157962 0.090446
H5    H     H_    0.697145 0.436194 0.080219 0.088438
H6    H     H_    0.375346 0.683090 0.833086 0.093013
H7    H     H_    0.393194 0.280934 0.823834 0.088524
H8    H     H_    0.628833 0.681525 0.165204 0.083883
H9    H     H_    0.572467 0.756426 0.401611 0.114088
H10   H     H_    0.488714 0.244813 0.398570 0.120557
H11   H     H_    0.488127 0.755717 0.392720 0.116316
H12   H     H_    0.879624 0.149317 0.230966 0.163543
H13   H     H_    0.573352 0.243503 0.406697 0.117453
H14   H     H_    0.042895 0.255983 0.506047 0.117882
H15   H     H_    0.914742 0.729545 0.624640 0.115567
H16   H     H_    0.975861 0.259198 0.450816 0.118188
H17   H     H_    0.999005 0.733696 0.634554 0.164455
H18   H     H_    0.270084 0.027114 0.385942 0.347699
H19   H     H_    0.698654 0.035484 0.627469 0.346500
H20   H     H_    0.787144 0.467258 0.370469 0.357009
H21   H     H_    0.225365 0.468402 0.621396 0.333543
H22   H     H_    0.656709 0.798288 0.333509 0.312365
H23   H     H_    0.882812 0.846418 0.229150 0.161327
H24   H     H_    0.448644 0.208570 0.318400 0.316164
H25   H     H_    0.447502 0.793103 0.314510 0.320187
H26   H     H_    0.657335 0.200681 0.334328 0.313465
H27   H     H_    0.050146 0.281803 0.633357 0.314562
H28   H     H_    0.835198 0.676060 0.676594 0.315670
H29   H     H_    0.955871 0.304466 0.347322 0.316898
H30   H     H_    0.101297 0.666513 0.670929 0.329856
H31   H     H_    0.154515 0.011105 0.032413 0.315489
H32   H     H_    0.956145 0.175079 0.831491 0.311657
H33   H     H_    0.953686 0.821315 0.833164 0.315586
H34   H     H_    0.114383 0.160278 0.773451 0.168021
H35   H     H_    0.056778 0.188210 0.155723 0.314171
H36   H     H_    0.654452 0.510501 0.032483 0.314511
H37   H     H_    0.456472 0.675042 0.831471 0.312818
H38   H     H_    0.467430 0.309716 0.834714 0.313228
H39   H     H_    0.548103 0.677226 0.166730 0.308019
H40   H     H_    0.259331 0.606267 0.745646 0.320607
H41   H     H_    0.746515 0.409262 0.276875 0.314960
H42   H     H_    0.731569 0.601904 0.275651 0.316438
H43   H     H_    0.348523 0.182164 0.640828 0.317413
H44   H     H_    0.758975 0.105708 0.745405 0.319618
H45   H     H_    0.614149 0.341087 0.773972 0.162846
H46   H     H_    0.248324 0.910820 0.276047 0.327971
H47   H     H_    0.295188 0.131223 0.270226 0.320418
H48   H     H_    0.770005 0.896241 0.724854 0.318976
H49   H     H_    0.300805 0.644352 0.825065 0.093799
H50   H     H_    0.717311 0.390960 0.175666 0.085744
H51   H     H_    0.694567 0.639717 0.189612 0.082366
H52   H     H_    0.357419 0.220880 0.758371 0.090713
H53   H     H_    0.800440 0.143603 0.824964 0.092448
H54   H     H_    0.218816 0.892938 0.174757 0.093855
H55   H     H_    0.197317 0.135137 0.193360 0.127378
H56   H     H_    0.379671 0.649371 0.230974 0.164220
H57   H     H_    0.807548 0.856659 0.809196 0.088707
H58   H     H_    0.379736 0.351549 0.230830 0.164462
H59   H     H_    0.616747 0.654351 0.771252 0.162547
H60   H     H_    0.197350 0.937045 0.080166 0.091791
O1    O     O_R   0.255040 0.869590 0.478480 -0.431798
O2    O     O_R   0.817950 0.203450 0.375560 -0.518472
O3    O     O_R   0.817950 0.796550 0.375560 -0.544753
O4    O     O_R   0.182050 0.203450 0.624440 -0.504116
O5    O     O_R   0.682050 0.296550 0.624440 -0.529672
O6    O     O_R   0.317950 0.703450 0.375560 -0.510083
O7    O     O_R   0.317950 0.296550 0.375560 -0.500224
O8    O     O_R   0.682050 0.703450 0.624440 -0.539782
O9    O     O_R   0.250530 0.763330 0.367210 -0.464534
O10   O     O_R   0.749470 0.236670 0.632790 -0.461559
O11   O     O_R   0.749470 0.763330 0.632790 -0.428796
O12   O     O_R   0.744960 0.130410 0.521520 -0.480691
O13   O     O_R   0.250530 0.236670 0.367210 -0.479749
O14   O     O_R   0.750530 0.263330 0.367210 -0.424896
O15   O     O_R   0.249470 0.736670 0.632790 -0.466034
O16   O     O_R   0.249470 0.263330 0.632790 -0.476741
O17   O     O_R   0.750530 0.736670 0.367210 -0.424573
O18   O     O_R   0.177260 0.690030 0.513710 -0.495312
O19   O     O_R   0.822740 0.309970 0.486290 -0.464864
O20   O     O_R   0.822740 0.690030 0.486290 -0.484313
O21   O     O_R   0.177260 0.309970 0.513710 -0.456231
O22   O     O_R   0.677260 0.190030 0.513710 -0.466063
O23   O     O_R   0.744960 0.869590 0.521520 -0.440779
O24   O     O_R   0.322740 0.809970 0.486290 -0.480983
O25   O     O_R   0.322740 0.190030 0.486290 -0.429001
O26   O     O_R   0.677260 0.809970 0.513710 -0.480389
O27   O     O_R   0.051640 0.926880 0.885090 -0.507917
O28   O     O_R   0.948360 0.073120 0.114910 -0.516131
O29   O     O_R   0.948360 0.926880 0.114910 -0.530478
O30   O     O_R   0.051640 0.073120 0.885090 -0.514014
O31   O     O_R   0.551640 0.426880 0.885090 -0.507827
O32   O     O_R   0.448360 0.573120 0.114910 -0.512636
O33   O     O_R   0.448360 0.426880 0.114910 -0.532472
O34   O     O_R   0.255040 0.130410 0.478480 -0.484438
O35   O     O_R   0.551640 0.573120 0.885090 -0.515624
O36   O     O_R   0.940620 0.926560 0.986760 -0.458471
O37   O     O_R   0.059380 0.073440 0.013240 -0.433086
O38   O     O_R   0.059380 0.926560 0.013240 -0.467161
O39   O     O_R   0.940620 0.073440 0.986760 -0.462213
O40   O     O_R   0.440620 0.426560 0.986760 -0.456832
O41   O     O_R   0.559380 0.573440 0.013240 -0.431416
O42   O     O_R   0.559380 0.426560 0.013240 -0.467982
O43   O     O_R   0.440620 0.573440 0.986760 -0.461811
O44   O     O_3   0.265302 0.998031 0.438652 -0.644697
O45   O     O_R   0.755040 0.369590 0.478480 -0.483174
O46   O     O_3   0.714319 0.997462 0.581282 -0.649543
O47   O     O_3   0.777459 0.504652 0.417424 -0.653112
O48   O     O_3   0.230956 0.502308 0.572328 -0.650999
O49   O     O_3   0.663965 0.822535 0.379777 -0.680693
O50   O     O_3   0.414930 0.183632 0.359968 -0.692873
O51   O     O_3   0.413986 0.817696 0.356866 -0.677920
O52   O     O_3   0.665366 0.175550 0.378944 -0.674936
O53   O     O_3   0.081618 0.314097 0.617351 -0.673779
O54   O     O_3   0.830791 0.658459 0.624287 -0.687671
O55   O     O_3   0.920163 0.327917 0.379090 -0.678302
O56   O     O_R   0.244960 0.630410 0.521520 -0.432777
O57   O     O_3   0.080071 0.683306 0.640390 -0.689549
O58   O     O_3   0.147749 0.981415 0.989181 -0.681736
O59   O     O_3   0.946902 0.177597 0.896261 -0.663412
O60   O     O_3   0.944104 0.820059 0.898104 -0.664380
O61   O     O_3   0.066937 0.184073 0.090723 -0.673145
O62   O     O_3   0.647841 0.480958 0.988973 -0.681556
O63   O     O_3   0.447233 0.677708 0.896228 -0.664994
O64   O     O_3   0.454197 0.314266 0.900603 -0.673890
O65   O     O_3   0.557405 0.678952 0.101919 -0.671315
O66   O     O_3   0.234509 0.646103 0.751545 -0.670131
O67   O     O_R   0.244960 0.369590 0.521520 -0.498196
O68   O     O_3   0.770741 0.367979 0.267704 -0.687703
O69   O     O_3   0.760304 0.637964 0.264334 -0.654296
O70   O     O_3   0.308696 0.178632 0.664452 -0.676117
O71   O     O_3   0.734217 0.145617 0.751260 -0.676937
O72   O     O_3   0.271810 0.868819 0.267544 -0.659668
O73   O     O_3   0.260018 0.132280 0.268207 -0.689417
O74   O     O_3   0.740934 0.860665 0.736386 -0.651685
O75   O     O_R   0.755040 0.630410 0.478480 -0.438550
O76   O     O_R   0.182050 0.796550 0.624440 -0.515346

loop_
_geom_bond_atom_site_label_1
_geom_bond_atom_site_label_2
_ccdc_geom_bond_type
C54   C70   A    
C108  C120  A    
C129  C182  A    
C88   C177  S    
C7    C132  A    
C97   O46   S    
C34   H53   S    
C50   C59   A    
Cu12  O40   S    
Cu1   O9    S    
C145  O15   A    
C181  O23   A    
Cu8   O22   S    
C52   C61   A    
C148  H12   S    
C59   H15   S    
C12   C126  A    
C54   C63   A    
C6    O60   S    
C27   O72   S    
C47   C143  S    
H27   O53   S    
C44   O41   A    
Cu9   O6    S    
C61   C63   A    
C103  C126  A    
C95   C175  S    
C62   C64   A    
C131  C140  A    
C91   C96   A    
C50   C90   A    
C162  C171  A    
C170  C187  A    
C70   C74   A    
C11   O65   S    
C4    C12   A    
C147  C155  A    
C24   C85   A    
C112  O8    A    
C88   C97   A    
Cu7   Cu10  S    
C119  C128  A    
Cu11  O75   S    
C49   C69   A    
Cu4   O38   S    
C43   C144  S    
H40   O66   S    
C109  C118  A    
H25   O51   S    
C11   C20   A    
C150  C159  A    
Cu3   Cu4   S    
C165  C183  A    
C137  C146  A    
C166  C184  A    
C175  O20   A    
C86   C90   A    
C152  H56   S    
C150  H34   S    
C106  C127  A    
C82   C91   A    
C51   C66   A    
C89   C181  S    
C142  C151  A    
H28   O54   S    
C8    O62   S    
C52   C72   A    
C41   O38   A    
C105  C114  A    
C74   C178  A    
C147  H1    S    
C82   C178  A    
H42   O69   S    
C163  C172  A    
C41   C138  S    
C38   C119  A    
Cu7   O34   S    
C5    C130  A    
C83   C100  A    
C43   O33   A    
C45   C142  S    
C63   H10   S    
C177  O12   A    
C4    O58   S    
C79   C85   A    
C100  O55   S    
C5    O59   S    
C173  O18   A    
Cu1   Cu9   S    
C66   C77   A    
C39   C140  S    
C98   O47   S    
C57   C78   A    
C15   H3    S    
C8    C17   A    
C56   C59   A    
C106  C115  A    
Cu10  O7    S    
C80   C88   A    
C179  O1    A    
C93   C173  S    
Cu12  O31   S    
C84   C93   A    
C105  C184  A    
C156  O16   A    
C86   C95   A    
C24   C77   A    
C104  C183  A    
C42   O39   A    
C2    C81   A    
C16   H4    S    
C58   C60   A    
C55   C71   A    
C2    C75   A    
C78   C87   A    
Cu5   O19   S    
Cu6   O20   S    
C7    O61   S    
C84   C102  A    
C67   C77   A    
Cu3   O27   S    
C46   O50   S    
C133  C142  A    
C130  C183  A    
C1    O9    A    
C3    C110  A    
H36   O62   S    
C69   C76   A    
C85   C94   A    
Cu12  O43   S    
C180  O25   A    
C60   H14   S    
C46   C82   A    
C101  C160  S    
Cu4   O29   S    
C29   C38   A    
C149  C158  A    
C167  O17   A    
C20   C122  A    
C152  C161  A    
C135  C143  A    
C174  O19   A    
C48   C67   A    
C40   C141  S    
C136  C188  A    
C174  O45   A    
C61   H13   S    
C72   C75   A    
C112  O11   A    
C135  C187  A    
H21   O48   S    
C141  C150  A    
C25   C168  A    
H26   O52   S    
C139  C148  A    
C104  C125  A    
C57   O51   S    
C157  C165  A    
C92   C174  S    
Cu2   O41   S    
C36   H54   S    
C33   H52   S    
Cu7   O13   S    
Cu10  O67   S    
C35   O49   S    
Cu5   Cu8   S    
C91   C180  S    
C45   O31   A    
C167  O3    A    
C9    C135  A    
C116  C125  A    
C118  C127  A    
H19   O46   S    
Cu8   O14   S    
C25   O70   S    
C117  C126  A    
C132  C141  A    
C180  O34   A    
C108  C117  A    
C145  O76   A    
H46   O72   S    
C110  C119  A    
Cu11  O8    S    
Cu1   O18   S    
Cu5   O2    S    
C30   H49   S    
C17   H5    S    
Cu7   O4    S    
H48   O74   S    
C41   O27   A    
C28   C37   A    
C23   O69   S    
C14   H2    S    
C148  C157  A    
C16   C127  A    
C51   C79   A    
C107  C116  A    
C104  C113  A    
C9    C18   A    
C102  O57   S    
C113  C121  A    
C51   C60   A    
C96   O44   S    
C140  C149  A    
C31   C113  A    
C123  O13   A    
C25   C33   A    
C43   O40   A    
C18   C120  A    
C73   C74   A    
Cu4   O28   S    
Cu2   Cu12  S    
Cu9   O56   S    
C65   C76   A    
C171  C188  A    
C40   O37   A    
C169  C186  A    
C3    C172  A    
C39   O29   A    
C153  H58   S    
Cu8   O45   S    
H44   O71   S    
C103  C111  A    
C90   O54   S    
Cu2   O32   S    
C1    O6    A    
C65   C67   A    
C158  C167  S    
C160  C169  A    
C173  O56   A    
C40   O30   A    
C3    C137  A    
C10   O64   S    
C93   C99   A    
C21   O66   S    
C81   C89   A    
C8    C133  A    
C1    C161  S    
C21   C164  A    
H39   O65   S    
C47   O32   A    
C56   H17   S    
C179  O24   A    
C53   C73   A    
C33   C115  A    
Cu6   O3    S    
C53   C57   A    
H32   O59   S    
C132  C185  A    
C28   O73   S    
Cu3   O39   S    
C10   C19   A    
C48   C102  A    
C46   C54   A    
Cu1   O1    S    
C99   O48   S    
C27   C170  A    
C5    C14   A    
C17   C121  A    
C143  C152  A    
C15   C128  A    
C64   H9    S    
C107  C121  A    
H43   O70   S    
C158  C166  A    
C71   C73   A    
C112  C163  S    
C101  O5    A    
C115  C124  A    
C78   C178  A    
C29   O74   S    
C106  C185  A    
H24   O50   S    
C6    C131  A    
C151  H45   S    
C4    C129  A    
H47   O73   S    
C32   H51   S    
C27   C36   A    
C21   C30   A    
C13   C83   A    
Cu7   O21   S    
C153  C162  A    
C23   C32   A    
C11   C137  A    
C136  C144  A    
C110  C122  A    
Cu11  O17   S    
C107  C186  A    
H41   O68   S    
H37   O63   S    
C164  C182  A    
C123  O7    A    
C68   O52   S    
C79   O53   S    
H29   O55   S    
C154  H59   S    
C94   C176  S    
C68   C80   A    
Cu3   O30   S    
C9    O63   S    
C103  C182  A    
C108  C187  A    
C26   O71   S    
C35   C81   A    
C95   C98   A    
C92   C98   A    
H31   O58   S    
C83   C92   A    
C14   C125  A    
C10   C136  A    
Cu9   O15   S    
C66   C69   A    
Cu10  O16   S    
C34   C116  A    
Cu2   O42   S    
H35   O61   S    
C159  C168  A    
C131  C184  A    
C144  C153  A    
C6    C15   A    
C22   C165  A    
C26   C34   A    
C129  C138  A    
C26   C169  A    
C37   H55   S    
C44   O35   A    
C146  C154  A    
C13   C86   A    
C44   C146  S    
C62   H11   S    
C52   C68   A    
C175  O75   A    
Cu10  O25   S    
C134  O2    A    
C156  O4    A    
C19   H7    S    
Cu5   O10   S    
H33   O60   S    
Cu8   O5    S    
C130  C139  A    
C50   C65   A    
C109  C188  A    
C19   C124  A    
C22   C31   A    
C37   C118  A    
Cu1   O76   S    
C35   C55   A    
C154  C163  A    
C123  C162  S    
C49   C58   A    
C31   H50   S    
C89   C97   A    
C111  C120  A    
C114  C122  A    
C55   C64   A    
C176  O21   A    
C36   C117  A    
H20   O47   S    
C23   C166  A    
C53   C62   A    
C177  O22   A    
C28   C171  A    
Cu6   Cu11  S    
C13   C76   A    
C138  C147  A    
C87   C96   A    
Cu2   O33   S    
C181  O26   A    
C45   O42   A    
C133  C186  A    
C161  C170  A    
Cu3   O36   S    
H38   O64   S    
Cu6   O23   S    
C134  O14   A    
Cu12  O35   S    
C20   H8    S    
C38   H57   S    
H18   O44   S    
H30   O57   S    
Cu4   O37   S    
C48   C56   A    
C7    C16   A    
C168  C185  A    
C105  C128  A    
C42   C139  S    
C156  C159  S    
C47   O43   A    
C109  C124  A    
H22   O49   S    
C155  C164  A    
C149  H23   S    
C101  O10   A    
C30   C111  A    
C18   H6    S    
C151  C160  A    
C24   C84   A    
Cu11  O26   S    
C49   C100  A    
C71   C75   A    
C94   C99   A    
C22   O68   S    
C29   C172  A    
Cu9   O24   S    
C2    C80   A    
C176  O67   A    
C87   C179  S    
C145  C155  S    
C134  C157  S    
C39   O36   A    
Cu5   O12   S    
C70   C72   A    
Cu6   O11   S    
C12   H60   S    
C32   C114  A    
C42   O28   A    
C58   H16   S    
