data_mof_unit_33349.cif
_audit_creation_date              2013-03-05T15:41:00-0500
_audit_creation_method            fapswitch 2.2
_symmetry_space_group_name_H-M    P1
_symmetry_Int_Tables_number       1
_space_group_crystal_system       triclinic
_cell_length_a                    28.066411
_cell_length_b                    18.543798
_cell_length_c                    16.847171
_cell_angle_alpha                 90.104761
_cell_angle_beta                  61.387768
_cell_angle_gamma                 90.16539
_cell_volume                      7697.43832873

loop_
_atom_site_label
_atom_site_type_symbol
_atom_site_description
_atom_site_fract_x
_atom_site_fract_y
_atom_site_fract_z
_atom_type_partial_charge
O1    O     O_R   0.746490 0.236330 0.638080 -0.611145
O2    O     O_R   0.253510 0.763670 0.361920 -0.619930
O3    O     O_R   0.253510 0.236330 0.361920 -0.606414
O4    O     O_R   0.746490 0.763670 0.638080 -0.614082
O5    O     O_R   0.246490 0.736330 0.638080 -0.622391
O6    O     O_R   0.753510 0.263670 0.361920 -0.608091
O7    O     O_R   0.753510 0.736330 0.361920 -0.607008
O8    O     O_R   0.246490 0.263670 0.638080 -0.625208
O9    O     O_R   0.674170 0.186160 0.516270 -0.625330
O10   O     O_R   0.325830 0.813840 0.483730 -0.627213
O11   O     O_R   0.325830 0.186160 0.483730 -0.631240
O12   O     O_R   0.674170 0.813840 0.516270 -0.617687
O13   O     O_R   0.174170 0.686160 0.516270 -0.622591
O14   O     O_R   0.825830 0.313840 0.483730 -0.621810
O15   O     O_R   0.825830 0.686160 0.483730 -0.620631
O16   O     O_R   0.174170 0.313840 0.516270 -0.624900
O17   O     O_R   0.739960 0.127620 0.525000 -0.626296
O18   O     O_R   0.260040 0.872380 0.475000 -0.602370
O19   O     O_R   0.260040 0.127620 0.475000 -0.617008
O20   O     O_R   0.739960 0.872380 0.525000 -0.605801
O21   O     O_R   0.239960 0.627620 0.525000 -0.617243
O22   O     O_R   0.760040 0.372380 0.475000 -0.603340
O23   O     O_R   0.760040 0.627620 0.475000 -0.616587
O24   O     O_R   0.239960 0.372380 0.525000 -0.597819
O25   O     O_R   0.680700 0.294870 0.629350 -0.615038
O26   O     O_R   0.319300 0.705130 0.370650 -0.612341
O27   O     O_R   0.319300 0.294870 0.370650 -0.609344
O28   O     O_R   0.680700 0.705130 0.629350 -0.613592
O29   O     O_R   0.180700 0.794870 0.629350 -0.612529
O30   O     O_R   0.819300 0.205130 0.370650 -0.615576
O31   O     O_R   0.819300 0.794870 0.370650 -0.616674
O32   O     O_R   0.180700 0.205130 0.629350 -0.620056
C1    C     C_R   0.700105 0.264509 0.677465 0.882832
C2    C     C_R   0.299357 0.734480 0.323025 0.873292
C3    C     C_R   0.298960 0.265998 0.322915 0.890280
C4    C     C_R   0.700743 0.734453 0.677098 0.864857
C5    C     C_R   0.201098 0.766128 0.677044 0.867586
C6    C     C_R   0.798662 0.232930 0.322713 0.864764
C7    C     C_R   0.799140 0.765772 0.322838 0.867382
C8    C     C_R   0.200666 0.234371 0.677120 0.854257
C9    C     C_R   0.691286 0.129440 0.535653 0.893861
C10   C     C_R   0.303373 0.871729 0.484062 0.881487
C11   C     C_R   0.303300 0.128266 0.484293 0.893040
C12   C     C_R   0.691278 0.870611 0.535674 0.869751
C13   C     C_R   0.196048 0.627988 0.518459 0.887792
C14   C     C_R   0.808694 0.370465 0.464138 0.876456
C15   C     C_R   0.808900 0.629402 0.463832 0.877018
C16   C     C_R   0.191816 0.371103 0.531621 0.875117
Zn1   Zn    Zn3+2 0.792340 0.208750 0.507670 1.098542
Zn2   Zn    Zn3+2 0.207660 0.791250 0.492330 1.119784
Zn3   Zn    Zn3+2 0.207660 0.208750 0.492330 1.112556
Zn4   Zn    Zn3+2 0.792340 0.791250 0.507670 1.118440
Zn5   Zn    Zn3+2 0.292340 0.708750 0.507670 1.104052
Zn6   Zn    Zn3+2 0.707660 0.291250 0.492330 1.121917
Zn7   Zn    Zn3+2 0.707660 0.708750 0.492330 1.116870
Zn8   Zn    Zn3+2 0.292340 0.291250 0.507670 1.116045
C17   C     C_R   0.522673 0.131434 0.591891 -0.079669
C18   C     C_R   0.428466 0.869056 0.570338 -0.086035
C19   C     C_R   0.428404 0.131163 0.572041 -0.086900
C20   C     C_R   0.523273 0.868446 0.588263 -0.077540
C21   C     C_R   0.070977 0.626341 0.436557 -0.084443
C22   C     C_R   0.967487 0.367123 0.440607 -0.069953
C23   C     C_R   0.976965 0.629237 0.416238 -0.076962
C24   C     C_R   0.046057 0.368664 0.499125 -0.081164
C25   C     C_R   0.497171 0.197250 0.592572 0.368741
C26   C     C_R   0.451058 0.802925 0.577396 0.383429
C27   C     C_R   0.450529 0.197145 0.581565 0.380832
C28   C     C_R   0.498349 0.802605 0.586423 0.383631
C29   C     C_R   0.052424 0.692379 0.419830 0.372844
C30   C     C_R   0.985970 0.301449 0.458443 0.372754
C31   C     C_R   0.005209 0.693971 0.410430 0.368414
C32   C     C_R   0.023691 0.302429 0.491047 0.351512
C33   C     C_R   0.453522 0.065793 0.572202 -0.015208
C34   C     C_R   0.500690 0.934211 0.580857 -0.017814
C35   C     C_R   0.500438 0.065817 0.582473 -0.017687
C36   C     C_R   0.453663 0.934402 0.571010 -0.014576
C37   C     C_R   0.996003 0.563667 0.432816 -0.018425
C38   C     C_R   0.031422 0.433041 0.472464 -0.016706
C39   C     C_R   0.041484 0.562779 0.446867 -0.013762
C40   C     C_R   0.989769 0.432808 0.448885 -0.018270
C41   C     C_R   0.969847 0.498551 0.434561 0.051493
C42   C     C_R   0.057532 0.498069 0.471291 0.053521
C43   C     C_R   0.431473 0.000150 0.562486 0.055424
C44   C     C_R   0.525304 0.999989 0.583010 0.052778
C45   C     C_R   0.896821 0.433572 0.426857 0.028391
C46   C     C_R   0.129538 0.562089 0.483881 0.028465
C47   C     C_R   0.114118 0.434694 0.523150 0.043945
C48   C     C_R   0.897792 0.565242 0.425003 0.034249
C49   C     C_R   0.365590 0.934645 0.533386 0.033518
C50   C     C_R   0.601600 0.065806 0.580110 0.031331
C51   C     C_R   0.601715 0.934086 0.579058 0.038502
C52   C     C_R   0.365797 0.065738 0.533306 0.031775
C53   C     C_R   0.843185 0.434697 0.438807 -0.121244
C54   C     C_R   0.169211 0.562763 0.513940 -0.097148
C55   C     C_R   0.160401 0.435639 0.537908 -0.115987
C56   C     C_R   0.843508 0.564873 0.438723 -0.100210
C57   C     C_R   0.327213 0.935908 0.499894 -0.103610
C58   C     C_R   0.656773 0.065018 0.561249 -0.070925
C59   C     C_R   0.656803 0.934986 0.560899 -0.121321
C60   C     C_R   0.327264 0.064269 0.499946 -0.098765
C61   C     C_R   0.818378 0.499834 0.441390 -0.257699
C62   C     C_R   0.183770 0.500106 0.540490 -0.275159
C63   C     C_R   0.310563 0.000025 0.481079 -0.286228
C64   C     C_R   0.682500 0.000051 0.554882 -0.268190
H1    H     H_    0.776961 0.499888 0.452792 0.200183
H2    H     H_    0.216179 0.500772 0.558234 0.193120
H3    H     H_    0.282807 0.999925 0.453163 0.194560
H4    H     H_    0.724795 0.000091 0.538737 0.195484
C65   C     C_R   0.921814 0.499188 0.427531 0.079568
C66   C     C_R   0.100047 0.498409 0.493668 0.074096
C67   C     C_R   0.388167 0.000200 0.541738 0.075969
C68   C     C_R   0.576021 0.999954 0.581550 0.078118
C69   C     C_R   0.082868 0.372058 0.533053 -0.128785
C70   C     C_R   0.928846 0.628785 0.409702 -0.133492
C71   C     C_R   0.925639 0.369092 0.418097 -0.132388
C72   C     C_R   0.118191 0.622596 0.444503 -0.140372
C73   C     C_R   0.571503 0.869905 0.593893 -0.133405
C74   C     C_R   0.382121 0.129342 0.560672 -0.143123
C75   C     C_R   0.381680 0.871084 0.560694 -0.142500
C76   C     C_R   0.571219 0.129869 0.596656 -0.132922
H5    H     H_    0.085411 0.325972 0.569556 0.215745
H6    H     H_    0.916451 0.677788 0.390755 0.212449
H7    H     H_    0.915114 0.319951 0.396049 0.216378
H8    H     H_    0.146320 0.666697 0.416620 0.212237
H9    H     H_    0.584831 0.820794 0.610834 0.213279
H10   H     H_    0.358450 0.177691 0.577398 0.220877
H11   H     H_    0.357576 0.822912 0.578439 0.220168
H12   H     H_    0.584870 0.178785 0.613847 0.214501
C77   C     C_R   0.704539 0.242167 0.968790 -0.030226
C78   C     C_R   0.286563 0.746825 0.040069 -0.026473
C79   C     C_R   0.277863 0.265947 0.046434 -0.021036
C80   C     C_R   0.716537 0.743520 0.957872 -0.018616
C81   C     C_R   0.222123 0.766776 0.953894 -0.021857
C82   C     C_R   0.765467 0.211328 0.058539 -0.022126
C83   C     C_R   0.781713 0.761310 0.042935 -0.027124
C84   C     C_R   0.213055 0.246881 0.960853 -0.026251
C85   C     C_R   0.741462 0.185064 0.937332 0.023297
C86   C     C_R   0.238579 0.787580 0.083833 0.014960
C87   C     C_R   0.228341 0.227426 0.091820 0.023091
C88   C     C_R   0.765888 0.782162 0.912646 0.011496
C89   C     C_R   0.271032 0.727247 0.909222 0.021489
C90   C     C_R   0.725528 0.265800 0.092577 0.021598
C91   C     C_R   0.732401 0.722727 0.087948 0.025355
C92   C     C_R   0.261659 0.286555 0.916496 0.014722
C93   C     C_R   0.773915 0.170820 0.980436 0.017539
C94   C     C_R   0.203671 0.791681 0.043656 -0.000339
C95   C     C_R   0.193112 0.225213 0.051878 0.019842
C96   C     C_R   0.801127 0.784452 0.952380 -0.000888
C97   C     C_R   0.306099 0.724535 0.949433 0.020445
C98   C     C_R   0.690095 0.273093 0.054059 0.007195
C99   C     C_R   0.697029 0.720891 0.048498 0.016915
C100  C     C_R   0.296659 0.290152 0.956416 0.001078
C101  C     C_R   0.633405 0.310769 0.959135 0.026782
C102  C     C_R   0.364202 0.688936 0.043298 0.029701
C103  C     C_R   0.358676 0.318174 0.046282 0.025276
C104  C     C_R   0.637388 0.687804 0.956261 0.032242
C105  C     C_R   0.141698 0.819306 0.953519 0.026054
C106  C     C_R   0.837092 0.143100 0.069636 0.006327
C107  C     C_R   0.861534 0.814675 0.044227 0.019377
C108  C     C_R   0.135074 0.189831 0.957676 0.029191
C109  C     C_R   0.612160 0.340404 0.904473 -0.111603
C110  C     C_R   0.387319 0.660200 0.095947 -0.114665
C111  C     C_R   0.384808 0.342269 0.096791 -0.111257
C112  C     C_R   0.613279 0.660154 0.904245 -0.114238
C113  C     C_R   0.115505 0.842917 0.902972 -0.111797
C114  C     C_R   0.871411 0.134106 0.110363 -0.106925
C115  C     C_R   0.886270 0.840746 0.095935 -0.105790
C116  C     C_R   0.112171 0.160796 0.904712 -0.118627
C117  C     C_R   0.633353 0.320827 0.814956 -0.268219
C118  C     C_R   0.367009 0.680325 0.184968 -0.267685
C119  C     C_R   0.366158 0.319519 0.184302 -0.272271
C120  C     C_R   0.632999 0.681143 0.815709 -0.266931
C121  C     C_R   0.134134 0.819960 0.815523 -0.273207
C122  C     C_R   0.860625 0.169483 0.188734 -0.271241
C123  C     C_R   0.866787 0.819188 0.184204 -0.271237
C124  C     C_R   0.132737 0.180528 0.815473 -0.269132
H13   H     H_    0.618960 0.347618 0.773299 0.201381
H14   H     H_    0.383661 0.656372 0.225055 0.198538
H15   H     H_    0.385263 0.339776 0.222688 0.197364
H16   H     H_    0.615401 0.658384 0.776234 0.200419
H17   H     H_    0.115072 0.840007 0.777108 0.197726
H18   H     H_    0.884034 0.157251 0.222897 0.198768
H19   H     H_    0.884922 0.840942 0.223372 0.201097
H20   H     H_    0.116085 0.156433 0.775312 0.198557
C125  C     C_R   0.673951 0.269934 0.776987 -0.080088
C126  C     C_R   0.324164 0.727843 0.224655 -0.068119
C127  C     C_R   0.321910 0.274246 0.224940 -0.083928
C128  C     C_R   0.676573 0.727681 0.775451 -0.076250
C129  C     C_R   0.178204 0.774624 0.775050 -0.077978
C130  C     C_R   0.819169 0.218303 0.225917 -0.066789
C131  C     C_R   0.822886 0.773227 0.224516 -0.082648
C132  C     C_R   0.175866 0.227774 0.775628 -0.064508
C133  C     C_R   0.692564 0.233994 0.833149 -0.000621
C134  C     C_R   0.300529 0.758079 0.172902 0.014215
C135  C     C_R   0.295006 0.248622 0.175444 0.020592
C136  C     C_R   0.701612 0.756413 0.826266 0.023217
C137  C     C_R   0.204929 0.749093 0.824751 0.014681
C138  C     C_R   0.791895 0.240675 0.175962 0.026822
C139  C     C_R   0.797231 0.745937 0.173885 0.022358
C140  C     C_R   0.199586 0.257923 0.827498 0.016642
C141  C     C_R   0.677509 0.263356 0.919560 0.064454
C142  C     C_R   0.316618 0.730570 0.085976 0.059010
C143  C     C_R   0.309948 0.278461 0.090076 0.060892
C144  C     C_R   0.685578 0.728691 0.912993 0.066406
C145  C     C_R   0.190195 0.779346 0.909983 0.059554
C146  C     C_R   0.797887 0.198260 0.101598 0.060172
C147  C     C_R   0.813014 0.774706 0.087594 0.059541
C148  C     C_R   0.182980 0.230923 0.914872 0.059224
C149  C     C_R   0.609814 0.321249 0.053694 -0.203650
C150  C     C_R   0.389128 0.684018 0.948446 -0.191535
C151  C     C_R   0.381578 0.326252 0.952032 -0.194478
C152  C     C_R   0.613075 0.682122 0.051057 -0.198536
C153  C     C_R   0.118999 0.828010 0.047686 -0.195393
C154  C     C_R   0.842412 0.101515 0.995472 -0.200167
C155  C     C_R   0.885577 0.820977 0.949486 -0.188265
C156  C     C_R   0.109832 0.185431 0.052746 -0.191410
C157  C     C_R   0.637371 0.302313 0.100989 0.356220
C158  C     C_R   0.361829 0.706183 0.901670 0.368675
C159  C     C_R   0.352176 0.309366 0.907123 0.358150
C160  C     C_R   0.641135 0.702824 0.097305 0.354694
C161  C     C_R   0.148379 0.811620 0.092656 0.358477
C162  C     C_R   0.816858 0.120560 0.945581 0.395452
C163  C     C_R   0.857088 0.801985 0.903433 0.370023
C164  C     C_R   0.137074 0.207720 0.099889 0.365553
C165  C     C_R   0.718839 0.165527 0.814425 -0.113463
C166  C     C_R   0.265373 0.818748 0.199960 -0.097606
C167  C     C_R   0.257296 0.190309 0.203399 -0.094303
C168  C     C_R   0.738567 0.815545 0.798001 -0.103716
C169  C     C_R   0.242055 0.690341 0.797341 -0.096025
C170  C     C_R   0.761984 0.305662 0.193723 -0.095267
C171  C     C_R   0.760188 0.686872 0.201311 -0.093092
C172  C     C_R   0.235343 0.318130 0.800162 -0.097371
C173  C     C_R   0.736096 0.137381 0.875704 -0.065732
C174  C     C_R   0.232652 0.831743 0.157639 -0.065972
C175  C     C_R   0.221218 0.182921 0.166160 -0.096289
C176  C     C_R   0.773189 0.825944 0.837667 -0.117118
C177  C     C_R   0.277646 0.682297 0.835388 -0.098931
C178  C     C_R   0.727473 0.317020 0.154585 -0.074646
C179  C     C_R   0.725606 0.677599 0.161465 -0.084232
C180  C     C_R   0.268179 0.330594 0.842417 -0.067895
H21   H     H_    0.568480 0.339276 0.093583 0.200309
H22   H     H_    0.431318 0.668994 0.909212 0.196474
H23   H     H_    0.424060 0.339053 0.910775 0.203859
H24   H     H_    0.570816 0.667406 0.090838 0.195319
H25   H     H_    0.076575 0.840758 0.089077 0.205008
H26   H     H_    0.867409 0.054172 0.971860 0.215305
H27   H     H_    0.928067 0.834384 0.909376 0.198246
H28   H     H_    0.067552 0.170448 0.091680 0.195724
O33   O     O_R   0.062020 0.072840 0.007170 -0.616327
O34   O     O_R   0.937980 0.927160 0.992830 -0.634989
O35   O     O_R   0.937980 0.072840 0.992830 -0.624303
O36   O     O_R   0.062020 0.927160 0.007170 -0.621303
O37   O     O_R   0.562020 0.572840 0.007170 -0.619043
O38   O     O_R   0.437980 0.427160 0.992830 -0.619560
O39   O     O_R   0.437980 0.572840 0.992830 -0.617198
O40   O     O_R   0.562020 0.427160 0.007170 -0.623057
O41   O     O_R   0.947860 0.073950 0.109290 -0.617785
O42   O     O_R   0.052140 0.926050 0.890710 -0.611999
O43   O     O_R   0.052140 0.073950 0.890710 -0.602572
O44   O     O_R   0.947860 0.926050 0.109290 -0.615616
O45   O     O_R   0.447860 0.573950 0.109290 -0.613870
O46   O     O_R   0.552140 0.426050 0.890710 -0.610604
O47   O     O_R   0.552140 0.573950 0.890710 -0.610353
O48   O     O_R   0.447860 0.426050 0.109290 -0.613250
C181  C     C_R   0.071960 0.102893 0.936499 0.921534
C182  C     C_R   0.927405 0.897642 0.063978 0.876389
C183  C     C_R   0.919590 0.089608 0.071714 0.916453
C184  C     C_R   0.073390 0.898484 0.935301 0.899546
C185  C     C_R   0.572508 0.602547 0.936089 0.897279
C186  C     C_R   0.426775 0.398233 0.064485 0.899125
C187  C     C_R   0.427669 0.602523 0.063952 0.897108
C188  C     C_R   0.572668 0.398288 0.935636 0.907761
Zn9   Zn    Zn3+2 0.505960 0.500000 0.080520 1.022919
Zn10  Zn    Zn3+2 0.494040 0.500000 0.919480 1.039972
Zn11  Zn    Zn3+2 0.005960 1.000000 0.080520 1.033355
Zn12  Zn    Zn3+2 0.994040 1.000000 0.919480 1.038872
Cl1   Cl    Cl    0.044759 0.219716 0.516561 -0.452462
Cl2   Cl    Cl    0.980439 0.778128 0.396468 -0.458078
Cl3   Cl    Cl    0.959218 0.217718 0.447244 -0.461617
Cl4   Cl    Cl    0.083958 0.774665 0.422469 -0.417152
Cl5   Cl    Cl    0.527951 0.718827 0.588732 -0.448490
Cl6   Cl    Cl    0.423664 0.280635 0.570272 -0.414108
Cl7   Cl    Cl    0.423580 0.719628 0.566345 -0.412787
Cl8   Cl    Cl    0.525191 0.280922 0.600784 -0.459935
Cl9   Cl    Cl    0.599011 0.298465 0.219986 -0.530467
Cl10  Cl    Cl    0.401783 0.725128 0.786038 -0.558966
Cl11  Cl    Cl    0.390369 0.295325 0.789854 -0.528845
Cl12  Cl    Cl    0.601987 0.719518 0.214384 -0.535537
Cl13  Cl    Cl    0.110039 0.798494 0.209954 -0.515370
Cl14  Cl    Cl    0.848582 0.089406 0.832578 -0.536601
Cl15  Cl    Cl    0.896185 0.784617 0.786481 -0.541297
Cl16  Cl    Cl    0.096940 0.227417 0.216027 -0.541239
C189  C     C_2   0.718016 0.117355 0.744742 0.996852
O49   O     O_2   0.675875 0.107946 0.741352 -0.667081
O50   O     O_R   0.765611 0.082123 0.683724 -0.697232
H29   H     H_    0.759901 0.049278 0.640888 0.356967
C190  C     C_2   0.274117 0.876942 0.253137 0.944113
O51   O     O_2   0.235657 0.907534 0.314745 -0.558694
O52   O     O_R   0.327002 0.894552 0.234252 -0.793099
H30   H     H_    0.327995 0.933784 0.275450 0.348779
C191  C     C_2   0.266856 0.127646 0.249650 0.935842
O53   O     O_2   0.313177 0.105858 0.222759 -0.625530
O54   O     O_R   0.224015 0.095383 0.325047 -0.707882
H31   H     H_    0.236422 0.054231 0.350211 0.361203
C192  C     C_2   0.729555 0.875292 0.747357 0.994333
O55   O     O_2   0.767688 0.904696 0.683725 -0.546699
O56   O     O_R   0.676460 0.895795 0.771165 -0.798931
H32   H     H_    0.675109 0.936308 0.731967 0.353086
C193  C     C_2   0.232176 0.627884 0.750901 0.940800
O57   O     O_2   0.185813 0.605819 0.778231 -0.625337
O58   O     O_R   0.274792 0.596117 0.674866 -0.702312
H33   H     H_    0.262271 0.554700 0.649998 0.357970
C194  C     C_2   0.776583 0.367102 0.235612 0.932300
O59   O     O_2   0.741348 0.403391 0.295451 -0.561840
O60   O     O_R   0.831247 0.381449 0.208128 -0.801607
H34   H     H_    0.836246 0.423264 0.242346 0.352602
C195  C     C_2   0.768981 0.625702 0.250398 0.936226
O61   O     O_2   0.815173 0.604631 0.226319 -0.636474
O62   O     O_R   0.725437 0.593989 0.325254 -0.704061
H35   H     H_    0.737188 0.553110 0.351802 0.359342
C196  C     C_2   0.226950 0.376653 0.747295 0.940182
O63   O     O_2   0.265580 0.407299 0.685914 -0.560082
O64   O     O_R   0.174160 0.394674 0.766412 -0.798987
H36   H     H_    0.173356 0.434405 0.725808 0.344273
C197  C     C_2   0.728836 0.058747 0.899298 1.008816
O65   O     O_2   0.731986 0.013366 0.844442 -0.598165
O66   O     O_R   0.715657 0.036991 0.987014 -0.786462
H37   H     H_    0.710200 0.982918 0.995945 0.364886
C198  C     C_2   0.203196 0.900914 0.174268 0.967105
O67   O     O_2   0.213479 0.940983 0.110614 -0.612502
O68   O     O_R   0.162957 0.919044 0.261381 -0.647955
H38   H     H_    0.144499 0.966345 0.263613 0.377523
C199  C     C_2   0.183188 0.120627 0.192999 0.983595
O69   O     O_2   0.151611 0.109299 0.272779 -0.493970
O70   O     O_R   0.180516 0.078655 0.126270 -0.771953
H39   H     H_    0.147432 0.046079 0.151613 0.359944
C200  C     C_2   0.808904 0.890757 0.813389 1.055890
O71   O     O_2   0.807598 0.929535 0.873153 -0.612908
O72   O     O_R   0.845903 0.905384 0.723043 -0.668070
H40   H     H_    0.868376 0.950213 0.715817 0.399451
C201  C     C_2   0.314440 0.618951 0.810242 0.990495
O73   O     O_2   0.345554 0.605705 0.730862 -0.482955
O74   O     O_R   0.316616 0.578177 0.878049 -0.771699
H41   H     H_    0.349742 0.545928 0.853630 0.362084
C202  C     C_2   0.702078 0.388613 0.164363 0.964802
O75   O     O_2   0.713056 0.424430 0.096958 -0.611333
O76   O     O_R   0.664445 0.413576 0.250077 -0.668612
H42   H     H_    0.646928 0.460578 0.248096 0.376390
C203  C     C_2   0.690482 0.612605 0.182873 0.973122
O77   O     O_2   0.658270 0.597717 0.261229 -0.506837
O78   O     O_R   0.691160 0.572168 0.112259 -0.772027
H43   H     H_    0.658547 0.539120 0.133379 0.358888
C204  C     C_2   0.298180 0.399446 0.826047 0.968338
O79   O     O_2   0.288208 0.439146 0.889969 -0.613783
O80   O     O_R   0.338664 0.417574 0.739108 -0.647655
H44   H     H_    0.357787 0.464334 0.737416 0.379317

loop_
_geom_bond_atom_site_label_1
_geom_bond_atom_site_label_2
_geom_bond_distance
_ccdc_geom_bond_type
O4    C4    1.250255 A    
C155  H27   1.080599 S    
O5    C5    1.249434 A    
C138  C146  1.418408 A    
C198  O68   1.398318 S    
O7    Zn7   2.009231 S    
O31   Zn4   2.057456 S    
C193  O58   1.397291 S    
O8    Zn8   2.009231 S    
C136  C168  1.423803 A    
C200  O71   1.222434 D    
O38   Zn10  1.989666 S    
C152  H24   1.080676 S    
C199  O69   1.222773 D    
C106  C114  1.435500 A    
C44   C68   1.411841 A    
C118  H14   1.084628 S    
C105  C113  1.435306 A    
C46   C66   1.403948 A    
C177  C201  1.487256 S    
C12   C59   1.467268 S    
C135  C143  1.405130 A    
C133  C141  1.415478 A    
O30   C6    1.305658 A    
C2    C126  1.463228 S    
C139  C171  1.424522 A    
C154  C162  1.387632 A    
O44   Zn11  2.001755 S    
C6    C130  1.471227 S    
C172  C196  1.494142 S    
O33   Zn11  1.989666 S    
C169  C177  1.430187 A    
O34   Zn12  1.989666 S    
C136  C144  1.404741 A    
C19   C33   1.404735 A    
C78   C142  1.424012 A    
C55   C62   1.372521 A    
O2    C2    1.254318 A    
C91   C99   1.435333 A    
C140  C148  1.406759 A    
C33   C35   1.407844 A    
O6    Zn6   2.009077 S    
C168  C192  1.493716 S    
C36   C43   1.409135 A    
C204  O80   1.398216 S    
C101  C141  1.401239 A    
C37   C39   1.405465 A    
O46   Zn10  2.006983 S    
O41   Zn11  2.006982 S    
C31   Cl2   1.771530 S    
C71   H7    1.076059 S    
C111  C186  1.463411 S    
O42   Zn12  2.006983 S    
O64   H36   1.013894 S    
C91   C179  1.430852 A    
C105  C145  1.409759 A    
C150  H22   1.080877 S    
C10   C57   1.449265 S    
C53   C61   1.386106 A    
C94   C161  1.414806 A    
C152  C160  1.399840 A    
O27   C3    1.302168 A    
C191  O53   1.223488 D    
C101  C109  1.426647 A    
C4    C128  1.464666 S    
C156  C164  1.401705 A    
C7    C131  1.466315 S    
C38   C42   1.404505 A    
O80   H44   1.011667 S    
C8    C132  1.465441 S    
O47   Zn10  2.001754 S    
C20   C73   1.401731 A    
C107  C147  1.407413 A    
C57   C63   1.370759 A    
C48   C65   1.410390 A    
O30   Zn1   2.057323 S    
C23   C31   1.414075 A    
C87   C175  1.432711 A    
O24   Zn8   2.027303 S    
C149  H21   1.078859 S    
C78   C86   1.407588 A    
O35   C183  1.213145 A    
C123  H19   1.084783 S    
C129  C137  1.446690 A    
C124  H20   1.084628 S    
C52   C67   1.407782 A    
O23   Zn7   2.027303 S    
C171  C195  1.494007 S    
C156  H28   1.081145 S    
O9    C9    1.264155 A    
C135  C167  1.424483 A    
C149  C157  1.396125 A    
C115  C182  1.461388 S    
C133  C165  1.427041 A    
C102  C150  1.407284 A    
O13   C13   1.252084 A    
C90   C98   1.430916 A    
C18   C75   1.398835 A    
C107  C115  1.431895 A    
C108  C116  1.429979 A    
C47   C69   1.414529 A    
C170  C194  1.495095 S    
O70   H39   1.013612 S    
C77   C85   1.397971 A    
C54   C62   1.377211 A    
O12   C12   1.261688 A    
C196  O63   1.221723 D    
O7    C7    1.249566 A    
C63   H3    1.085797 S    
O9    Zn6   2.114965 S    
O8    C8    1.252590 A    
C33   C43   1.408342 A    
C95   C164  1.418701 A    
C108  C156  1.409695 A    
C112  C185  1.464752 S    
C203  O77   1.221900 D    
O78   H43   1.012747 S    
O41   C183  1.263983 A    
O16   Zn3   2.118603 S    
C109  C117  1.378435 A    
O42   C184  1.270301 A    
C122  H18   1.085299 S    
C18   C36   1.404022 A    
C157  Cl9   1.765262 S    
O22   Zn6   2.021790 S    
C47   C66   1.411160 A    
C22   C30   1.413091 A    
C34   C36   1.406908 A    
C22   C40   1.404538 A    
O18   C10   1.296353 A    
C38   C40   1.403307 A    
C35   C44   1.410057 A    
C194  O60   1.398815 S    
C92   C180  1.429007 A    
O33   C181  1.220395 A    
C197  O66   1.400423 S    
C52   C74   1.418020 A    
O2    Zn2   2.009077 S    
C19   C27   1.413777 A    
C45   C53   1.420207 A    
C192  O56   1.398689 S    
C47   C55   1.434814 A    
O6    C6    1.252313 A    
C161  Cl13  1.756675 S    
C77   C141  1.422451 A    
C83   C91   1.411925 A    
C190  O52   1.398683 S    
C119  H15   1.084865 S    
C103  C143  1.409560 A    
C117  H13   1.084655 S    
O20   C12   1.290244 A    
O21   C13   1.288899 A    
C201  O74   1.396669 S    
C109  C188  1.450445 S    
C110  C187  1.461935 S    
C107  C155  1.408997 A    
C5    C129  1.465409 S    
O39   Zn10  1.992761 S    
O24   C16   1.301655 A    
O35   Zn12  1.992761 S    
O17   Zn1   2.021790 S    
C132  C140  1.439685 A    
C103  C111  1.433904 A    
C164  Cl16  1.766186 S    
C50   C76   1.411764 A    
C51   C68   1.410556 A    
C189  O49   1.223153 D    
C108  C148  1.405696 A    
O3    C3    1.247443 A    
C15   C56   1.471601 S    
C153  H25   1.079670 S    
O28   C4    1.299698 A    
C17   C76   1.403083 A    
C19   C74   1.401145 A    
C112  C120  1.375812 A    
C111  C119  1.373838 A    
C83   C147  1.425005 A    
C179  C203  1.486158 S    
C116  C124  1.377317 A    
O48   C186  1.269139 A    
C180  C204  1.479147 S    
C24   C38   1.406093 A    
C126  C134  1.439614 A    
C34   C44   1.409027 A    
C39   C42   1.412287 A    
C137  C169  1.424699 A    
C106  C154  1.412995 A    
C151  C159  1.395370 A    
C162  Cl14  1.768160 S    
C159  Cl11  1.758250 S    
C166  C174  1.427862 A    
C160  Cl12  1.765705 S    
C17   C35   1.408880 A    
O23   C15   1.292166 A    
C22   C71   1.396963 A    
C92   C100  1.433140 A    
C174  C198  1.479935 S    
C86   C94   1.435115 A    
C173  C197  1.499539 S    
C98   C157  1.411032 A    
C25   Cl8   1.772393 S    
C26   Cl7   1.773396 S    
O45   C187  1.266127 A    
O12   Zn7   2.118603 S    
C79   C87   1.416029 A    
O11   Zn8   2.118603 S    
O46   C188  1.261192 A    
O13   Zn2   2.114965 S    
O47   C185  1.268004 A    
C69   H5    1.076076 S    
C51   C59   1.425191 A    
C73   H9    1.075152 S    
O25   C1    1.302665 A    
C75   H11   1.071810 S    
C48   C56   1.427357 A    
O10   C10   1.245060 A    
C137  C145  1.406148 A    
C167  C191  1.494911 S    
O74   H41   1.013529 S    
C116  C181  1.459344 S    
C204  O79   1.220519 D    
O14   C14   1.264550 A    
C115  C123  1.375634 A    
C96   C163  1.417804 A    
C45   C65   1.405491 A    
C82   C146  1.430729 A    
C104  C152  1.408448 A    
C134  C142  1.404989 A    
C100  C159  1.415289 A    
C46   C72   1.416915 A    
C198  O67   1.220932 D    
C195  O62   1.397240 S    
O10   Zn5   2.114965 S    
C200  O72   1.398105 S    
C153  C161  1.395320 A    
O36   C184  1.216207 A    
C49   C75   1.417352 A    
O37   C185  1.219838 A    
C25   C27   1.407327 A    
C113  C184  1.464235 S    
C114  C183  1.447263 S    
C51   C73   1.410765 A    
O15   C15   1.262664 A    
C202  O76   1.398116 S    
C79   C143  1.427468 A    
C120  H16   1.084739 S    
C199  O70   1.397300 S    
C59   C64   1.382607 A    
C121  H17   1.084857 S    
O60   H34   1.014139 S    
C56   C61   1.385285 A    
C88   C96   1.435920 A    
C79   C100  1.419358 A    
C102  C142  1.407426 A    
C102  C110  1.430568 A    
C191  O54   1.397484 S    
C80   C144  1.424560 A    
C114  C122  1.371294 A    
C89   C97   1.438431 A    
O56   H32   1.013859 S    
C106  C146  1.408552 A    
C151  H23   1.079977 S    
C45   C71   1.412908 A    
C11   C60   1.451168 S    
O34   C182  1.218689 A    
O50   H29   1.012947 S    
C84   C148  1.422708 A    
O3    Zn3   2.009231 S    
O27   Zn8   2.057456 S    
C93   C162  1.411650 A    
C201  O73   1.221837 D    
C29   Cl4   1.772926 S    
C60   C63   1.370431 A    
C30   Cl3   1.771487 S    
O52   H30   1.014078 S    
O32   Zn3   2.057456 S    
C82   C90   1.412254 A    
C85   C93   1.436086 A    
O72   H40   1.013659 S    
C110  C118  1.376164 A    
C37   C41   1.404333 A    
C131  C139  1.444532 A    
C118  C126  1.379631 A    
C21   C72   1.396142 A    
C176  C200  1.489558 S    
O15   Zn4   2.118603 S    
O25   Zn6   2.057323 S    
C122  C130  1.368085 A    
O22   C14   1.288550 A    
C41   C65   1.408755 A    
C43   C67   1.416478 A    
O40   Zn9   1.992763 S    
C86   C174  1.429487 A    
C64   H4    1.083465 S    
C169  C193  1.494324 S    
C130  C138  1.444479 A    
C90   C178  1.430776 A    
C82   C93   1.431943 A    
C72   H8    1.074795 S    
C17   C25   1.413916 A    
C76   H12   1.075540 S    
C80   C88   1.413501 A    
C81   C89   1.415046 A    
O48   Zn9   2.001755 S    
C165  C173  1.433584 A    
C134  C166  1.421565 A    
O66   H37   1.014462 S    
C84   C92   1.407301 A    
O37   Zn9   1.989666 S    
C101  C149  1.415402 A    
C194  O59   1.222147 D    
C165  C189  1.482795 S    
C97   C158  1.416501 A    
C48   C70   1.412292 A    
C197  O65   1.220396 D    
O62   H35   1.013638 S    
C20   C28   1.413038 A    
C3    C127  1.464532 S    
C192  O55   1.221423 D    
O29   C5    1.304354 A    
C88   C176  1.432356 A    
C80   C99   1.416798 A    
C99   C160  1.418384 A    
C1    C125  1.476894 S    
C81   C94   1.420243 A    
C113  C121  1.373438 A    
C158  Cl10  1.756101 S    
C26   C28   1.406498 A    
O58   H33   1.013502 S    
C16   C55   1.461835 S    
C163  Cl15  1.766047 S    
O19   C11   1.296450 A    
C190  O51   1.221722 D    
C50   C68   1.409086 A    
O68   H38   1.011451 S    
O16   C16   1.248353 A    
O1    C1    1.258368 A    
O39   C187  1.220172 A    
C193  O57   1.223284 D    
O40   C188  1.217360 A    
C87   C95   1.438420 A    
O4    Zn4   2.009231 S    
O18   Zn2   2.021790 S    
C42   C66   1.413072 A    
O5    Zn5   2.009077 S    
C21   C39   1.400725 A    
C123  C131  1.378554 A    
C124  C132  1.378857 A    
O14   Zn1   2.114965 S    
O45   Zn9   2.006982 S    
C81   C145  1.428773 A    
C171  C179  1.429976 A    
C32   Cl1   1.771455 S    
C121  C129  1.377603 A    
C29   C31   1.408270 A    
C178  C202  1.479820 S    
C46   C54   1.427024 A    
C23   C70   1.406582 A    
C18   C26   1.413242 A    
O54   H31   1.013629 S    
C196  O64   1.398596 S    
O11   C11   1.242132 A    
O32   C8    1.297818 A    
C203  O78   1.397520 S    
C27   Cl6   1.773947 S    
C13   C54   1.444089 S    
O28   Zn7   2.057456 S    
O26   C2    1.298751 A    
O29   Zn2   2.057323 S    
C61   H1    1.083639 S    
O43   Zn12  2.001754 S    
O38   C186  1.217265 A    
C49   C57   1.435751 A    
O43   C181  1.265035 A    
C78   C97   1.414283 A    
C139  C147  1.406749 A    
C154  H26   1.075252 S    
C104  C112  1.432800 A    
C170  C178  1.425015 A    
C175  C199  1.486836 S    
C85   C173  1.424121 A    
C104  C144  1.409756 A    
O26   Zn5   2.057323 S    
C52   C60   1.438115 A    
C28   Cl5   1.773114 S    
C23   C37   1.410617 A    
C21   C29   1.412665 A    
C89   C177  1.432655 A    
C24   C69   1.401117 A    
C127  C135  1.445983 A    
C166  C190  1.494276 S    
C125  C133  1.445704 A    
C40   C41   1.411164 A    
C155  C163  1.398878 A    
C138  C170  1.417921 A    
C167  C175  1.430017 A    
C49   C67   1.406901 A    
C105  C153  1.407265 A    
C150  C158  1.399382 A    
C119  C127  1.377529 A    
O20   Zn4   2.027303 S    
C103  C151  1.406998 A    
C117  C125  1.379886 A    
C77   C98   1.413308 A    
C189  O50   1.398362 S    
O76   H42   1.010355 S    
O21   Zn5   2.021790 S    
C14   C53   1.462015 S    
O1    Zn1   2.009077 S    
C120  C128  1.379158 A    
C58   C64   1.383708 A    
C20   C34   1.409009 A    
O31   C7    1.301256 A    
C62   H2    1.085011 S    
C24   C32   1.413481 A    
C195  O61   1.223355 D    
O36   Zn11  1.992763 S    
O17   C9    1.290359 A    
C168  C176  1.431223 A    
C84   C95   1.416066 A    
C70   H6    1.076069 S    
O19   Zn3   2.027303 S    
C140  C172  1.420742 A    
C128  C136  1.443241 A    
C83   C96   1.418948 A    
C172  C180  1.426894 A    
C9    C58   1.465108 S    
C30   C32   1.407001 A    
C74   H10   1.071370 S    
C202  O75   1.221515 D    
O44   C182  1.267414 A    
C50   C58   1.424042 A    
