data_mof_unit_33009.cif
_audit_creation_date              2013-03-05T16:12:08-0500
_audit_creation_method            fapswitch 2.2
_symmetry_space_group_name_H-M    P1
_symmetry_Int_Tables_number       1
_space_group_crystal_system       triclinic
_cell_length_a                    10.924245
_cell_length_b                    9.62356
_cell_length_c                    27.680157
_cell_angle_alpha                 88.276866
_cell_angle_beta                  85.84785
_cell_angle_gamma                 90.126671
_cell_volume                      2901.03992491

loop_
_atom_site_label
_atom_site_type_symbol
_atom_site_description
_atom_site_fract_x
_atom_site_fract_y
_atom_site_fract_z
_atom_type_partial_charge
O1    O     O_R   0.317570 0.620260 0.500030 -0.599014
O2    O     O_R   0.317570 0.379740 0.500030 -0.517294
C1    C     C_R   0.259425 0.499390 0.503123 0.845074
O3    O     O_R   0.499900 0.620250 0.430280 -0.515300
O4    O     O_R   0.499900 0.379750 0.430280 -0.580424
C2    C     C_R   0.492191 0.501716 0.408108 0.754369
Cu1   Cu    Cu3+1 0.499860 0.642410 0.500020 0.982325
Cu2   Cu    Cu3+1 0.499860 0.357590 0.500020 0.978957
O5    O     O_R   0.682190 0.620260 0.500010 -0.564917
O6    O     O_R   0.682190 0.379740 0.500010 -0.601178
O7    O     O_R   0.499860 0.620280 0.569750 -0.559630
O8    O     O_R   0.499860 0.379720 0.569750 -0.536391
C3    C     C_R   0.739073 0.500333 0.499629 0.915979
C4    C     C_R   0.500968 0.499218 0.592609 0.815625
C5    C     C_R   0.329589 0.555477 0.182172 0.530721
O9    O     O_2   0.230751 0.500044 0.207688 -0.574569
N1    N     N_R   0.433866 0.581362 0.205270 -0.463018
C6    C     C_R   0.537081 0.632891 0.179665 0.558453
C7    C     C_R   0.543785 0.479224 0.272543 -0.099671
C8    C     C_R   0.560698 0.465058 0.321682 -0.250251
C9    C     C_R   0.359378 0.559038 0.340634 -0.259624
C10   C     C_R   0.346215 0.585116 0.291225 -0.118392
C11   C     C_R   0.439810 0.547224 0.256469 0.325040
C12   C     C_R   0.439231 0.612085 0.104357 -0.144066
C13   C     C_R   0.327179 0.581241 0.131557 -0.035602
C14   C     C_R   0.217998 0.577241 0.106883 0.126212
C15   C     C_R   0.545952 0.636105 0.128747 -0.104828
C16   C     C_R   0.470177 0.506828 0.356234 0.006530
H1    H     H_    0.285227 0.585419 0.366742 0.116380
H2    H     H_    0.264608 0.637661 0.280471 0.162459
C17   C     C_R   0.506840 0.505071 0.646150 -0.068528
C18   C     C_R   0.346471 0.576911 0.977344 -0.043080
C19   C     C_R   0.563456 0.652993 0.974428 -0.024870
C20   C     C_R   0.459418 0.610443 0.950525 -0.040565
C21   C     C_R   0.249142 0.521669 0.951767 0.461326
C22   C     C_R   0.258541 0.521042 0.901249 -0.207941
C23   C     C_R   0.367821 0.558131 0.874773 -0.081721
C24   C     C_R   0.469290 0.599279 0.899311 -0.065847
C25   C     C_R   0.581359 0.627265 0.872502 -0.101366
C26   C     C_R   0.592321 0.603459 0.822541 0.615898
N2    N     N_R   0.491255 0.568170 0.798865 -0.444658
C27   C     C_R   0.379196 0.549554 0.824063 0.555314
C28   C     C_R   0.458776 0.422143 0.729356 -0.193548
C29   C     C_R   0.454080 0.403912 0.679398 0.115133
C30   C     C_R   0.557844 0.625500 0.664551 -0.310633
C31   C     C_R   0.551015 0.649547 0.714255 0.195955
C32   C     C_R   0.502737 0.546075 0.747266 0.314176
O10   O     O_2   0.278753 0.522450 0.800201 -0.550655
C33   C     C_R   0.337482 0.593541 0.028527 0.004795
C34   C     C_R   0.444912 0.617494 0.052781 0.058569
C35   C     C_R   0.558449 0.643733 0.025932 -0.014479
C36   C     C_R   0.224432 0.589110 0.056490 -0.137746
H3    H     H_    0.420807 0.342771 0.754744 0.160207
H4    H     H_    0.181241 0.482534 0.883081 0.208272
H5    H     H_    0.138251 0.597555 0.040002 0.222818
O11   O     O_2   0.631115 0.680761 0.203619 -0.506306
C37   C     C_R   0.659328 0.657945 0.101897 0.481296
H6    H     H_    0.646194 0.425347 0.332179 0.114235
H7    H     H_    0.615451 0.443543 0.246830 0.160164
C38   C     C_R   0.668674 0.703194 0.945375 0.468678
C39   C     C_R   0.679277 0.681191 0.895742 -0.204409
O12   O     O_2   0.703640 0.613218 0.798129 -0.533342
C40   C     C_R   0.664905 0.652197 0.051484 -0.262152
H8    H     H_    0.599202 0.705165 0.640124 0.184526
H9    H     H_    0.763283 0.713128 0.875126 0.207998
H10   H     H_    0.755243 0.646966 0.033311 0.223799
C41   C     C_3   0.058056 0.606918 0.542526 0.835946
C42   C     C_3   0.065562 0.343902 0.518557 0.904609
C43   C     C_3   0.917392 0.619931 0.533761 -0.109976
C44   C     C_3   0.918736 0.356410 0.521475 -0.188085
H11   H     H_    0.898949 0.715838 0.513179 0.178187
H12   H     H_    0.880141 0.279039 0.498309 0.169000
H13   H     H_    0.122590 0.630231 0.437817 0.160229
H14   H     H_    0.129303 0.457752 0.427526 0.230287
C45   C     C_3   0.083024 0.532332 0.452790 -0.594473
C46   C     C_3   0.119355 0.497445 0.505163 -0.214448
C47   C     C_3   0.876672 0.500298 0.500896 -0.155029
C48   C     C_3   0.941620 0.526854 0.448191 0.821258
C49   C     C_3   0.617712 0.080120 0.516405 -0.230831
C50   C     C_3   0.623364 0.916856 0.508529 -0.226005
H15   H     H_    0.631594 0.102350 0.554646 0.125565
H16   H     H_    0.664035 0.863822 0.539723 0.170676
H17   H     H_    0.698461 0.128621 0.495856 0.193899
H18   H     H_    0.687785 0.896065 0.476564 0.205469
C51   C     C_3   0.398600 0.078229 0.533533 -0.011586
C52   C     C_3   0.413794 0.912845 0.540325 0.008043
C53   C     C_3   0.487104 0.089560 0.451499 0.421869
C54   C     C_3   0.459906 0.926305 0.454685 0.491463
N3    N     N_3   0.500250 0.143650 0.501060 -0.181706
N4    N     N_3   0.500250 0.856350 0.501060 -0.173719
H19   H     H_    0.406623 0.142245 0.436533 0.058758
H20   H     H_    0.358188 0.917092 0.455876 -0.091410
H21   H     H_    0.312658 0.096007 0.515316 0.140136
H22   H     H_    0.323064 0.865421 0.537123 0.184413
O13   O     O_3   0.767449 0.664449 0.125043 -0.532776
C55   C     C_3   0.822271 0.796384 0.115645 -0.222243
H23   H     H_    0.756309 0.882080 0.123912 0.150983
H24   H     H_    0.862011 0.807147 0.077597 0.153763
H25   H     H_    0.898708 0.807308 0.139554 0.188221
O14   O     O_3   0.761490 0.778300 0.963962 -0.592106
C56   C     C_3   0.722515 0.917085 0.968899 -0.332440
H26   H     H_    0.641014 0.924568 0.995230 0.163569
H27   H     H_    0.702523 0.965273 0.933260 0.173863
H28   H     H_    0.797743 0.977814 0.983121 0.191870
N5    N     N_3   0.587934 0.781692 0.730880 -0.555744
H29   H     H_    0.679465 0.799033 0.718350 0.238687
H30   H     H_    0.534902 0.858355 0.714953 0.202398
O15   O     O_3   0.114140 0.742416 0.541054 -0.602964
C57   C     C_3   0.117437 0.822773 0.497385 -0.474598
H31   H     H_    0.033176 0.828367 0.478032 0.184827
H32   H     H_    0.194751 0.795731 0.472170 0.201893
H33   H     H_    0.138681 0.928959 0.506990 0.179431
O16   O     O_3   0.120080 0.256187 0.481480 -0.584969
C58   C     C_3   0.048775 0.149001 0.463737 -0.419211
H34   H     H_    0.989643 0.188354 0.435821 0.240416
H35   H     H_    0.993519 0.089917 0.492514 0.144083
H36   H     H_    0.112239 0.076528 0.444301 0.178294
O17   O     O_3   0.063680 0.547923 0.590414 -0.603041
C59   C     C_3   0.163799 0.593774 0.615510 -0.160146
H37   H     H_    0.149726 0.702600 0.626980 0.176485
H38   H     H_    0.252286 0.583769 0.593838 0.155598
H39   H     H_    0.168490 0.528181 0.648919 0.163938
O18   O     O_3   0.109631 0.301378 0.564040 -0.561161
C60   C     C_3   0.082102 0.161372 0.578205 -0.276617
H40   H     H_    0.145914 0.090144 0.559732 0.175866
H41   H     H_    0.988847 0.126389 0.571701 0.129909
H42   H     H_    0.092028 0.148547 0.617675 0.169817
N6    N     N_3   0.837499 0.636216 0.578584 -0.573439
H43   H     H_    0.858317 0.731412 0.593427 0.220448
H44   H     H_    0.850263 0.560483 0.605280 0.284248
N7    N     N_3   0.856295 0.332021 0.570165 -0.586540
H45   H     H_    0.813782 0.234420 0.573204 0.202151
H46   H     H_    0.912352 0.343692 0.598662 0.289681
O19   O     O_3   0.899722 0.655958 0.428290 -0.619995
C61   C     C_3   0.951861 0.689037 0.380868 -0.312382
H47   H     H_    0.877158 0.720370 0.357772 0.202094
H48   H     H_    0.003229 0.602702 0.362917 0.194391
H49   H     H_    0.014867 0.779197 0.382357 0.150776
O20   O     O_3   0.922645 0.413324 0.417762 -0.627398
C62   C     C_3   0.808520 0.409537 0.397598 -0.339122
H50   H     H_    0.753153 0.505707 0.400848 0.190444
H51   H     H_    0.754928 0.321553 0.414727 0.225938
H52   H     H_    0.826985 0.388074 0.358674 0.179492
N8    N     N_3   0.382549 0.147332 0.579558 -0.470057
H53   H     H_    0.462010 0.137733 0.597945 0.251033
H54   H     H_    0.312709 0.098424 0.601500 0.194658
N9    N     N_3   0.448726 0.869496 0.588868 -0.542993
H55   H     H_    0.522990 0.925566 0.599892 0.197478
H56   H     H_    0.374276 0.879336 0.614448 0.196540
O21   O     O_3   0.597814 0.118944 0.421980 -0.570853
C63   C     C_3   0.581346 0.138633 0.372043 -0.253123
H57   H     H_    0.491996 0.185836 0.364055 0.150069
H58   H     H_    0.597879 0.041030 0.352639 0.203090
H59   H     H_    0.655154 0.207432 0.356138 0.149197
O22   O     O_3   0.513799 0.865382 0.412536 -0.520522
C64   C     C_3   0.427570 0.861167 0.376555 -0.314704
H60   H     H_    0.390676 0.965540 0.367713 0.113371
H61   H     H_    0.348414 0.793770 0.388900 0.157764
H62   H     H_    0.473331 0.819863 0.342941 0.205740
N10   N     N_3   0.098008 0.567664 0.131464 -0.554359
H63   H     H_    0.089053 0.643747 0.157650 0.247695
H64   H     H_    0.085803 0.468668 0.147644 0.276826
N11   N     N_3   0.386105 0.289698 0.663099 -0.596303
H65   H     H_    0.361769 0.218976 0.691620 0.212459
H66   H     H_    0.304289 0.329333 0.651082 0.239372
O23   O     O_3   0.145755 0.460379 0.975058 -0.589885
C65   C     C_3   0.171133 0.318956 0.984629 -0.312994
H67   H     H_    0.248695 0.306488 0.008368 0.163865
H68   H     H_    0.190689 0.262475 0.950421 0.165652
H69   H     H_    0.088868 0.270240 0.004096 0.196497

loop_
_geom_bond_atom_site_label_1
_geom_bond_atom_site_label_2
_geom_bond_distance
_ccdc_geom_bond_type
C61   H49   1.109902 S    
C53   C54   1.596934 S    
C31   N5    1.432300 S    
C56   H26   1.112922 S    
C53   H19   1.115236 S    
N2    C27   1.372954 A    
C43   C47   1.571700 S    
O13   C55   1.411617 S    
C62   H52   1.107370 S    
C4    C17   1.490789 S    
C50   H18   1.113233 S    
C48   O20   1.423278 S    
C58   H34   1.101622 S    
O18   C60   1.417363 S    
C65   H68   1.113497 S    
N7    H46   1.041543 S    
C47   C48   1.588688 S    
Cu1   O7    1.935475 S    
N5    H30   1.045759 S    
N1    C11   1.451199 S    
C64   H60   1.110194 S    
N9    H56   1.045367 S    
C62   H51   1.103602 S    
C57   H32   1.093033 S    
C24   C25   1.406054 A    
O7    C4    1.309463 A    
C41   O15   1.437719 S    
C5    C13   1.417573 A    
C5    O9    1.346696 S    
C55   H25   1.109101 S    
C21   O23   1.381254 S    
C26   O12   1.349421 S    
O15   C57   1.413434 S    
C42   O18   1.428951 S    
C61   H48   1.112939 S    
C63   H59   1.100466 S    
C23   C27   1.405102 A    
C43   H11   1.096749 S    
O5    C3    1.311948 A    
O17   C59   1.414147 S    
C44   N7    1.477813 S    
C52   H22   1.100773 S    
N9    H55   1.042241 S    
C51   H21   1.108633 S    
C28   H3    1.083262 S    
C2    C16   1.472365 S    
C7    C8    1.388595 A    
C43   N6    1.476858 S    
C53   O21   1.432404 S    
C55   H24   1.111488 S    
C63   H57   1.111371 S    
C12   C15   1.410875 A    
C14   N10   1.433941 S    
C29   N11   1.427518 S    
C36   H5    1.077776 S    
C6    O11   1.349807 S    
C42   O16   1.444424 S    
C40   H10   1.076730 S    
C56   H27   1.113561 S    
O1    Cu1   2.002268 S    
C9    C10   1.400780 A    
C52   N9    1.471848 S    
C44   C47   1.564081 S    
H13   C45   1.093156 S    
O3    Cu1   1.948490 S    
C51   N8    1.454358 S    
C45   C48   1.560028 S    
C37   C40   1.395121 A    
C65   H69   1.109325 S    
C59   H38   1.106092 S    
C12   C34   1.423850 A    
C25   C39   1.394501 A    
O20   C62   1.403206 S    
C3    C47   1.506108 S    
C17   C29   1.411992 A    
C58   H36   1.107796 S    
C54   O22   1.412345 S    
C54   H20   1.112551 S    
C61   H47   1.109361 S    
C35   C40   1.407658 A    
C12   C13   1.415933 A    
N6    H43   1.046452 S    
N8    H54   1.042408 S    
Cu1   Cu2   2.740981 S    
C15   C37   1.409496 A    
C57   H33   1.092252 S    
C65   H67   1.113741 S    
C49   H15   1.107209 S    
C51   N3    1.501911 S    
C8    C16   1.393573 A    
C7    H7    1.082869 S    
C13   C14   1.417693 A    
C51   C52   1.607399 S    
Cu1   N4    2.059930 S    
C9    H1    1.081686 S    
C19   C35   1.422815 A    
C38   C39   1.392931 A    
O1    C1    1.321621 A    
C21   C22   1.394872 A    
C18   C20   1.424368 A    
C7    C11   1.405453 A    
C45   C46   1.557724 S    
C18   C21   1.429507 A    
C23   C24   1.403600 A    
C14   C36   1.392798 A    
Cu2   O8    1.948206 S    
C33   C36   1.409069 A    
C55   H23   1.114369 S    
N1    C6    1.371236 A    
N2    C32   1.446837 S    
C34   C35   1.417152 A    
C27   O10   1.349930 S    
C62   H50   1.109088 S    
C1    C46   1.527167 S    
C48   O19   1.433339 S    
C60   H42   1.108957 S    
C50   H16   1.110614 S    
C26   N2    1.371241 A    
C9    C16   1.403301 A    
C54   N4    1.525300 S    
C19   C38   1.428857 A    
C53   N3    1.498233 S    
C28   C29   1.403734 A    
C52   N4    1.502677 S    
O23   C65   1.410664 S    
O3    C2    1.316870 A    
C42   C46   1.611782 S    
C8    H6    1.066295 S    
N7    H45   1.045295 S    
C25   C26   1.405178 A    
C60   H41   1.101028 S    
O16   C58   1.412189 S    
C59   H39   1.108235 S    
Cu1   O5    2.003641 S    
C31   C32   1.406345 A    
C22   C23   1.394747 A    
C10   H2    1.081865 S    
N11   H66   1.044940 S    
C20   C24   1.421232 A    
C64   H62   1.108769 S    
O2    Cu2   2.003207 S    
C6    C15   1.405142 A    
O8    C4    1.329590 A    
N8    H53   1.040455 S    
C38   O14   1.381981 S    
O6    C3    1.314621 A    
N6    H44   1.039068 S    
O4    Cu2   1.935742 S    
C58   H35   1.106243 S    
C59   H37   1.111261 S    
C5    N1    1.371970 A    
O19   C61   1.419358 S    
C41   C46   1.611301 S    
C56   H28   1.109262 S    
N5    H29   1.045719 S    
C30   H8    1.082648 S    
O21   C63   1.413972 S    
N10   H63   1.045476 S    
C64   H61   1.107528 S    
O2    C1    1.318312 A    
C57   H31   1.098670 S    
C49   H17   1.108655 S    
O4    C2    1.313782 A    
O14   C56   1.410275 S    
C19   C20   1.421370 A    
C63   H58   1.104721 S    
C39   H9    1.083808 S    
C50   N4    1.494881 S    
C41   O17   1.431726 S    
C17   C30   1.409535 A    
C18   C33   1.426880 A    
C49   N3    1.505837 S    
N11   H65   1.045776 S    
C22   H4    1.083821 S    
C49   C50   1.593440 S    
C30   C31   1.398694 A    
H14   C45   1.113701 S    
Cu2   O6    2.002702 S    
C33   C34   1.415409 A    
C37   O13   1.386059 S    
O22   C64   1.420928 S    
C42   C44   1.605110 S    
C10   C11   1.408627 A    
C44   H12   1.099934 S    
Cu2   N3    2.058218 S    
C41   C43   1.577606 S    
C28   C32   1.402271 A    
N10   H64   1.044565 S    
C60   H40   1.090339 S    
