data_mof_unit_58539.cif
_audit_creation_date              2012-12-10T17:23:10-0500
_audit_creation_method            fapswitch 2.2
_symmetry_space_group_name_H-M    P1
_symmetry_Int_Tables_number       1
_space_group_crystal_system       triclinic
_cell_length_a                    15.848538
_cell_length_b                    10.869653
_cell_length_c                    9.702849
_cell_angle_alpha                 90.004477
_cell_angle_beta                  90.637326
_cell_angle_gamma                 90.5532
_cell_volume                      1671.31010561

loop_
_atom_site_label
_atom_site_type_symbol
_atom_type_description
_atom_site_fract_x
_atom_site_fract_y
_atom_site_fract_z
_atom_type_partial_charge
C1    C     C_R   0.489644 0.263009 0.501299 0.874216
C2    C     C_3   0.083931 0.496103 0.493983 -0.229552
C3    C     C_3   0.972282 0.612085 0.489030 0.270944
C4    C     C_3   0.916134 0.495331 0.497177 -0.215202
C5    C     C_3   0.026786 0.548732 0.378755 0.289754
C6    C     C_3   0.970148 0.432089 0.386679 0.281109
C7    C     C_1   0.175434 0.497726 0.495404 0.247957
C8    C     C_1   0.824625 0.495932 0.500231 0.262437
C9    C     C_R   0.473827 0.122617 0.767860 0.328284
C10   C     C_R   0.507665 0.060665 0.881345 0.401787
C11   C     C_R   0.503952 0.932884 0.881941 0.329925
C12   C     C_R   0.340364 0.499835 0.499273 0.819712
C13   C     C_R   0.469009 0.874222 0.765802 0.243792
C14   C     C_R   0.472125 0.934143 0.636104 -0.104842
C15   C     C_R   0.473291 0.064013 0.636900 -0.122446
C16   C     C_R   0.468570 0.129022 0.509244 -0.194207
C17   C     C_R   0.440937 0.063535 0.391367 0.367726
C18   C     C_R   0.442613 0.934508 0.389564 0.373570
C19   C     C_R   0.468784 0.869701 0.508106 -0.181875
C20   C     C_R   0.646704 0.584651 0.124146 0.344903
C21   C     C_R   0.724619 0.557362 0.063616 0.184943
C22   C     C_R   0.726456 0.474598 0.951520 0.271053
C23   C     C_R   0.489853 0.736600 0.501044 0.875232
C24   C     C_R   0.650306 0.441985 0.885166 0.414046
C25   C     C_R   0.573940 0.493289 0.930741 -0.107818
C26   C     C_R   0.572288 0.527935 0.071766 -0.065175
C27   C     C_R   0.428437 0.479256 0.070861 0.420405
C28   C     C_R   0.426876 0.498929 0.925719 0.564683
C29   C     C_R   0.659657 0.499532 0.500605 0.840049
C30   C     C_3   0.973778 0.443078 0.610717 0.259988
C31   C     C_3   0.027880 0.379332 0.501644 0.269510
C32   C     C_1   0.250882 0.498877 0.497302 0.007416
C33   C     C_1   0.749181 0.497533 0.501440 -0.039548
C34   C     C_3   0.029455 0.558653 0.602974 0.240317
Cu1   Cu    Cu3+1 0.499990 0.499990 0.640660 1.102569
Cu2   Cu    Cu3+1 0.500010 0.500010 0.359340 1.130419
N1    N     N_R   0.500800 0.501210 0.147910 -0.199936
N2    N     N_R   0.500830 0.501290 0.852040 -0.192338
O1    O     O_R   0.499990 0.319640 0.618810 -0.526902
O2    O     O_R   0.500000 0.319660 0.381240 -0.518710
O3    O     O_R   0.379070 0.499980 0.618770 -0.486255
O4    O     O_R   0.379080 0.500000 0.381190 -0.540162
O5    O     O_R   0.500000 0.680340 0.618760 -0.573686
O6    O     O_R   0.500010 0.680360 0.381190 -0.502274
O7    O     O_R   0.620920 0.500000 0.618810 -0.570149
O8    O     O_R   0.620930 0.500020 0.381230 -0.562753
Cl1   Cl    Cl    0.064911 0.225326 0.511572 -0.329952
O9    O     O_3   0.523012 0.869882 0.001288 -0.574963
H1    H     H_    0.519635 0.780432 0.981565 0.347249
Cl2   Cl    Cl    0.383794 0.773125 0.798227 -0.486315
Cl3   Cl    Cl    0.401788 0.855608 0.243346 -0.387503
Cl4   Cl    Cl    0.337422 0.408587 0.138570 -0.406313
Cl5   Cl    Cl    0.641992 0.719372 0.224590 -0.426120
Cl6   Cl    Cl    0.818442 0.625717 0.129564 -0.405723
O10   O     O_3   0.800316 0.425174 0.902775 -0.578153
H2    H     H_    0.847334 0.444187 0.967333 0.410536
Cl7   Cl    Cl    0.650554 0.304112 0.789150 -0.463524
O11   O     O_3   0.350305 0.503102 0.858148 -0.600772
H3    H     H_    0.307411 0.537251 0.920685 0.374890
O12   O     O_3   0.945399 0.388282 0.732106 -0.583586
H4    H     H_    0.997090 0.369584 0.786378 0.386799
Cl8   Cl    Cl    0.929913 0.347318 0.242747 -0.372617
Cl9   Cl    Cl    0.063019 0.618245 0.223706 -0.324390
Cl10  Cl    Cl    0.935418 0.766290 0.482051 -0.328656
O13   O     O_3   0.061641 0.623636 0.716591 -0.590548
H5    H     H_    0.011550 0.649858 0.768867 0.388344
Cl11  Cl    Cl    0.391068 0.140427 0.253665 -0.334740
Cl12  Cl    Cl    0.391335 0.224327 0.807122 -0.413045
Cl13  Cl    Cl    0.539988 0.142022 0.029629 -0.383818

loop_
_geom_bond_atom_site_label_1
_geom_bond_atom_site_label_2
_ccdc_geom_bond_type
Cu2   N1    S    
Cu1   O1    S    
O10   H2    S    
C26   N1    A    
Cu2   O8    S    
C12   O3    A    
C28   O11   S    
C25   N2    A    
Cu1   O5    S    
C9    C10   A    
C19   C23   S    
C2    C7    S    
C3    C34   S    
C28   N2    A    
C29   O8    A    
C4    C8    S    
C6    Cl8   S    
C17   C18   A    
C9    C15   A    
C9    Cl12  S    
C4    C30   S    
C1    C16   S    
C31   Cl1   S    
C21   C22   A    
C20   C21   A    
C11   C13   A    
C30   C31   S    
C2    C34   S    
C11   O9    S    
C22   O10   S    
C20   C26   A    
C27   N1    A    
C5    C6    S    
C20   Cl5   S    
C34   O13   S    
C24   C25   A    
O9    H1    S    
C18   Cl3   S    
C6    C31   S    
C8    C33   T    
C3    Cl10  S    
C21   Cl6   S    
Cu1   O3    S    
C22   C24   A    
Cu2   O6    S    
C2    C5    S    
C17   Cl11  S    
C10   C11   A    
C30   C34   S    
C13   Cl2   S    
Cu1   O7    S    
C10   Cl13  S    
C29   C33   S    
Cu2   O2    S    
Cu1   N2    S    
C23   O5    A    
C27   Cl4   S    
C5    Cl9   S    
C4    C6    S    
O13   H5    S    
C24   Cl7   S    
C27   C28   A    
C18   C19   A    
C1    O1    A    
C14   C15   A    
O12   H4    S    
C12   O4    A    
C7    C32   T    
C1    O2    A    
C25   C26   A    
C13   C14   A    
O11   H3    S    
Cu2   O4    S    
C14   C19   A    
C15   C16   A    
C12   C32   S    
C23   O6    A    
C3    C4    S    
C16   C17   A    
C29   O7    A    
C2    C31   S    
C3    C5    S    
Cu1   Cu2   S    
C30   O12   S    
