data_mof_unit_47801.cif
_audit_creation_date              2012-12-10T16:49:26-0500
_audit_creation_method            fapswitch 2.2
_symmetry_space_group_name_H-M    P1
_symmetry_Int_Tables_number       1
_space_group_crystal_system       triclinic
_cell_length_a                    7.74791
_cell_length_b                    8.636784
_cell_length_c                    12.80643
_cell_angle_alpha                 90.464525
_cell_angle_beta                  86.282745
_cell_angle_gamma                 93.421614
_cell_volume                      853.633099053

loop_
_atom_site_label
_atom_site_type_symbol
_atom_type_description
_atom_site_fract_x
_atom_site_fract_y
_atom_site_fract_z
_atom_type_partial_charge
C1    C     C_R   0.455175 0.205736 0.497353 0.877981
C2    C     C_R   0.650069 0.646002 0.144997 -0.165377
C3    C     C_R   0.523731 0.598604 0.870842 -0.198756
C4    C     C_R   0.476036 0.400889 0.129406 -0.199079
C5    C     C_R   0.539522 0.569743 0.977608 -0.099464
C6    C     C_R   0.462628 0.428878 0.022382 -0.098572
C7    C     C_2   0.431022 0.043360 0.496703 0.340782
C8    C     C_2   0.568972 0.956650 0.503349 0.324348
C9    C     C_2   0.386079 0.263028 0.183354 1.127667
C10   C     C_2   0.609800 0.738254 0.817185 1.116802
C11   C     C_2   0.746696 0.763090 0.208117 0.996354
C12   C     C_R   0.544820 0.794269 0.502671 0.889287
C13   C     C_2   0.266543 0.230535 0.790321 0.999214
C14   C     C_R   0.462362 0.497756 0.699322 0.870564
C15   C     C_R   0.537788 0.502227 0.300690 0.873779
C16   C     C_R   0.567402 0.510584 0.189193 -0.232403
C17   C     C_R   0.433578 0.488228 0.810850 -0.223967
C18   C     C_R   0.373747 0.320144 0.959182 0.618735
C19   C     C_R   0.631597 0.676979 0.040421 0.627215
C20   C     C_R   0.356075 0.350537 0.854473 -0.166559
F1    F     F_    0.307387 0.180840 0.996860 -0.595368
F2    F     F_    0.702508 0.814318 0.002067 -0.593337
F3    F     F_    0.265104 0.983399 0.489884 -0.597472
F4    F     F_    0.734885 0.016617 0.510195 -0.605727
H1    H     H_    0.999404 0.619026 0.425307 0.260861
H2    H     H_    0.000588 0.380760 0.574307 0.245582
H3    H     H_    0.147862 0.337460 0.165512 0.320491
H4    H     H_    0.849857 0.663745 0.827875 0.325711
H5    H     H_    0.790657 0.988553 0.246001 0.382031
H6    H     H_    0.080690 0.177700 0.691015 0.377268
N1    N     N_2   0.054030 0.541640 0.471970 -0.133715
N2    N     N_2   0.945970 0.458360 0.528030 -0.138692
O1    O     O_R   0.609680 0.261530 0.506880 -0.577762
O2    O     O_R   0.205265 0.246954 0.195729 -0.687175
O3    O     O_2   0.521428 0.836434 0.783479 -0.510199
O4    O     O_R   0.790076 0.754954 0.800474 -0.679293
O5    O     O_2   0.855848 0.722738 0.265242 -0.615897
O6    O     O_R   0.716572 0.920298 0.199594 -0.665922
O7    O     O_2   0.306412 0.095887 0.793069 -0.485240
O8    O     O_R   0.132990 0.270300 0.729577 -0.799698
O9    O     O_R   0.390320 0.738470 0.493120 -0.571845
O10   O     O_R   0.323330 0.288220 0.488910 -0.582517
O11   O     O_R   0.676670 0.711780 0.511090 -0.571819
O12   O     O_R   0.619510 0.488830 0.661140 -0.624669
O13   O     O_R   0.380490 0.511170 0.338860 -0.621428
O14   O     O_R   0.333160 0.515520 0.643180 -0.576960
O15   O     O_R   0.666840 0.484480 0.356820 -0.584749
O16   O     O_2   0.471423 0.165645 0.220791 -0.536106
Zn1   Zn    Zn3+2 0.691200 0.482180 0.511990 1.080577
Zn2   Zn    Zn3+2 0.308800 0.517820 0.488010 1.084518

loop_
_geom_bond_atom_site_label_1
_geom_bond_atom_site_label_2
_ccdc_geom_bond_type
H5    O6    S    
H1    N1    S    
C11   O6    S    
C4    C16   A    
C10   O3    D    
C5    C19   A    
C18   F1    S    
C2    C16   A    
O14   Zn2   S    
C14   O12   A    
N1    N2    D    
C15   O15   A    
C8    C12   S    
C19   F2    S    
C2    C19   A    
C1    O1    A    
C7    C8    D    
O15   Zn1   S    
C3    C10   S    
H2    N2    S    
C5    C6    A    
C14   C17   S    
C12   O9    A    
O13   Zn2   S    
O10   Zn2   S    
C7    F3    S    
C2    C11   S    
C4    C6    A    
C8    F4    S    
C3    C17   A    
C12   O11   A    
C18   C20   A    
H3    O2    S    
C9    O2    S    
C6    C18   A    
N2    Zn1   S    
C13   O7    D    
C15   O13   A    
N1    Zn2   S    
O1    Zn1   S    
C15   C16   S    
C1    O10   A    
H6    O8    S    
C17   C20   A    
H4    O4    S    
C9    O16   D    
C14   O14   A    
C11   O5    D    
O9    Zn2   S    
O11   Zn1   S    
C13   O8    S    
C10   O4    S    
C13   C20   S    
C4    C9    S    
C1    C7    S    
O12   Zn1   S    
C3    C5    A    
