data_mof_unit_40304.cif
_audit_creation_date              2012-12-10T16:37:47-0500
_audit_creation_method            fapswitch 2.2
_symmetry_space_group_name_H-M    P1
_symmetry_Int_Tables_number       1
_space_group_crystal_system       triclinic
_cell_length_a                    28.129012
_cell_length_b                    18.776995
_cell_length_c                    16.804156
_cell_angle_alpha                 89.93534
_cell_angle_beta                  60.970198
_cell_angle_gamma                 90.047638
_cell_volume                      7760.51286117

loop_
_atom_site_label
_atom_site_type_symbol
_atom_type_description
_atom_site_fract_x
_atom_site_fract_y
_atom_site_fract_z
_atom_type_partial_charge
C1    C     C_R   0.701353 0.267291 0.676811 0.948947
C2    C     C_R   0.299459 0.734418 0.322090 0.911477
C3    C     C_R   0.298565 0.267427 0.323265 0.945707
C4    C     C_R   0.700352 0.734682 0.677944 0.915555
C5    C     C_R   0.201382 0.767189 0.676799 0.943298
C6    C     C_R   0.799277 0.234202 0.322147 0.912528
C7    C     C_R   0.798557 0.767289 0.323300 0.945074
C8    C     C_R   0.200334 0.234990 0.677897 0.913339
C9    C     C_R   0.898161 0.500445 0.508900 -0.014589
C10   C     C_R   0.101421 0.500373 0.492042 -0.014960
C11   C     C_R   0.397985 0.000283 0.509560 -0.016424
C12   C     C_R   0.601537 0.000128 0.491442 -0.016953
C13   C     C_R   0.107444 0.373940 0.467825 0.455060
C14   C     C_R   0.891127 0.626535 0.535735 0.460429
C15   C     C_R   0.891496 0.374111 0.534451 0.454747
C16   C     C_R   0.108890 0.626422 0.464154 0.460347
C17   C     C_R   0.608203 0.873907 0.465375 0.462238
C18   C     C_R   0.391028 0.126384 0.536179 0.459288
C19   C     C_R   0.390853 0.874148 0.536282 0.461758
C20   C     C_R   0.608790 0.126266 0.464226 0.460816
C21   C     C_R   0.709587 0.245149 0.963767 -0.031777
C22   C     C_R   0.279961 0.732767 0.043332 -0.022806
C23   C     C_R   0.287368 0.250516 0.038777 -0.024105
C24   C     C_R   0.716653 0.737828 0.960129 -0.031675
C25   C     C_R   0.214512 0.754275 0.959516 -0.020580
C26   C     C_R   0.774517 0.222468 0.048710 -0.023637
C27   C     C_R   0.782141 0.759199 0.043878 -0.025565
C28   C     C_R   0.221235 0.230992 0.955524 -0.022042
C29   C     C_R   0.757257 0.202983 0.918776 -0.040380
C30   C     C_R   0.234074 0.777584 0.084338 -0.095665
C31   C     C_R   0.238739 0.210146 0.084946 -0.039471
C32   C     C_R   0.763223 0.781483 0.918163 -0.096386
C33   C     C_R   0.261212 0.710569 0.915725 -0.050893
C34   C     C_R   0.729203 0.267876 0.088661 -0.098681
C35   C     C_R   0.733920 0.718079 0.089743 -0.054488
C36   C     C_R   0.267549 0.275267 0.914305 -0.098888
C37   C     C_R   0.788111 0.188708 0.964690 0.059110
C38   C     C_R   0.198357 0.781884 0.046851 0.021794
C39   C     C_R   0.207085 0.197645 0.040175 0.060418
C40   C     C_R   0.798808 0.785839 0.955834 0.020155
C41   C     C_R   0.295197 0.702517 0.956922 0.052540
C42   C     C_R   0.693450 0.272429 0.051239 0.022721
C43   C     C_R   0.700040 0.710153 0.048300 0.047993
C44   C     C_R   0.303939 0.277617 0.950897 0.023316
C45   C     C_R   0.633597 0.309262 0.960637 -0.064163
C46   C     C_R   0.361546 0.682351 0.041833 -0.046912
C47   C     C_R   0.365208 0.310875 0.040216 -0.060658
C48   C     C_R   0.635959 0.685691 0.960194 -0.048437
C49   C     C_R   0.136347 0.813334 0.958642 -0.059939
C50   C     C_R   0.856568 0.173920 0.046586 -0.057147
C51   C     C_R   0.862103 0.815187 0.042475 -0.059498
C52   C     C_R   0.140098 0.179907 0.956071 -0.054950
C53   C     C_R   0.615031 0.344333 0.903864 -0.207057
C54   C     C_R   0.389454 0.663297 0.091591 -0.222403
C55   C     C_R   0.384539 0.344926 0.096516 -0.206937
C56   C     C_R   0.609292 0.664658 0.909179 -0.223178
C57   C     C_R   0.116351 0.846108 0.902715 -0.208306
C58   C     C_R   0.886885 0.159597 0.093553 -0.226144
C59   C     C_R   0.883049 0.846816 0.097733 -0.209088
C60   C     C_R   0.111376 0.162278 0.907400 -0.226511
C61   C     C_R   0.644770 0.337427 0.810214 0.392794
C62   C     C_R   0.375020 0.695609 0.174891 0.372822
C63   C     C_R   0.355019 0.337939 0.190138 0.391202
C64   C     C_R   0.624366 0.695882 0.824954 0.371639
C65   C     C_R   0.145542 0.838458 0.809207 0.394260
C66   C     C_R   0.873510 0.193421 0.175370 0.371293
C67   C     C_R   0.854204 0.838994 0.191198 0.393967
C68   C     C_R   0.125343 0.194890 0.824533 0.369815
C69   C     C_R   0.678763 0.279306 0.774323 -0.176641
C70   C     C_R   0.325304 0.730830 0.221083 -0.197798
C71   C     C_R   0.320648 0.280115 0.226105 -0.177415
C72   C     C_R   0.673983 0.731616 0.779075 -0.196597
C73   C     C_R   0.179566 0.780170 0.773822 -0.170970
C74   C     C_R   0.824008 0.228932 0.221576 -0.191223
C75   C     C_R   0.819867 0.780964 0.226701 -0.172983
C76   C     C_R   0.174603 0.231442 0.778801 -0.192140
C77   C     C_R   0.698108 0.243667 0.828416 -0.041775
C78   C     C_R   0.297824 0.753014 0.171746 -0.108818
C79   C     C_R   0.300199 0.245949 0.172709 -0.043196
C80   C     C_R   0.700762 0.754989 0.829094 -0.110146
C81   C     C_R   0.199848 0.745906 0.827707 -0.078742
C82   C     C_R   0.794985 0.248260 0.173531 -0.107144
C83   C     C_R   0.798344 0.748281 0.173796 -0.076962
C84   C     C_R   0.202529 0.253210 0.827936 -0.112184
C85   C     C_R   0.694691 0.128441 0.522433 0.959475
C86   C     C_R   0.305235 0.871609 0.477760 0.914142
C87   C     C_R   0.305326 0.128467 0.477456 0.956866
C88   C     C_R   0.694761 0.871586 0.522188 0.917220
C89   C     C_R   0.194687 0.628468 0.522534 0.953423
C90   C     C_R   0.805274 0.371604 0.477614 0.914294
C91   C     C_R   0.805342 0.628477 0.477329 0.955620
C92   C     C_R   0.194706 0.371593 0.522404 0.910555
C93   C     C_R   0.680773 0.266594 0.917519 -0.032556
C94   C     C_R   0.312663 0.721663 0.086372 -0.053894
C95   C     C_R   0.317231 0.269728 0.083991 -0.033728
C96   C     C_R   0.684836 0.725228 0.915859 -0.051376
C97   C     C_R   0.184177 0.772150 0.914887 -0.035056
C98   C     C_R   0.808048 0.213549 0.090727 -0.047977
C99   C     C_R   0.813564 0.775297 0.087131 -0.031629
C100  C     C_R   0.188344 0.220616 0.912490 -0.046821
C101  C     C_R   0.609739 0.315600 0.056901 0.387362
C102  C     C_R   0.381790 0.669273 0.947274 0.378401
C103  C     C_R   0.389158 0.316475 0.943878 0.385998
C104  C     C_R   0.614474 0.674473 0.055531 0.373798
C105  C     C_R   0.112857 0.819693 0.054793 0.387462
C106  C     C_R   0.872511 0.150909 0.956557 0.398095
C107  C     C_R   0.885221 0.821541 0.946379 0.390115
C108  C     C_R   0.122992 0.158697 0.047063 0.392027
C109  C     C_R   0.641379 0.302916 0.099311 -0.175456
C110  C     C_R   0.347996 0.675408 0.908658 -0.206566
C111  C     C_R   0.357263 0.304629 0.901668 -0.198483
C112  C     C_R   0.646893 0.683910 0.096321 -0.179373
C113  C     C_R   0.145224 0.809119 0.096256 -0.197937
C114  C     C_R   0.834717 0.145958 0.926585 -0.211263
C115  C     C_R   0.852379 0.811781 0.905629 -0.197589
C116  C     C_R   0.159710 0.156081 0.079394 -0.210721
C117  C     C_R   0.735708 0.187874 0.795702 0.298267
C118  C     C_R   0.261453 0.811773 0.197042 0.378495
C119  C     C_R   0.261656 0.191120 0.205823 0.306536
C120  C     C_R   0.737428 0.813614 0.802993 0.376191
C121  C     C_R   0.233773 0.685639 0.800402 0.338641
C122  C     C_R   0.759135 0.307432 0.196515 0.388252
C123  C     C_R   0.762609 0.689820 0.202460 0.333434
C124  C     C_R   0.239874 0.311113 0.802096 0.376547
C125  C     C_R   0.772914 0.178763 0.828777 0.395815
C126  C     C_R   0.230912 0.825168 0.152255 0.431373
C127  C     C_R   0.223483 0.184761 0.174419 0.389231
C128  C     C_R   0.767373 0.827950 0.848556 0.433605
C129  C     C_R   0.268833 0.672008 0.837068 0.371656
C130  C     C_R   0.728076 0.318519 0.151949 0.416068
C131  C     C_R   0.725179 0.680421 0.169770 0.385233
C132  C     C_R   0.271298 0.322976 0.845837 0.432798
C133  C     C_R   0.071681 0.103299 0.936861 0.915328
C134  C     C_R   0.926693 0.899017 0.064438 0.980655
C135  C     C_R   0.927788 0.102602 0.063509 0.913530
C136  C     C_R   0.073188 0.898922 0.935671 0.979757
C137  C     C_R   0.570549 0.604413 0.937933 0.935363
C138  C     C_R   0.427368 0.398299 0.063799 0.982759
C139  C     C_R   0.428882 0.603919 0.062525 0.932843
C140  C     C_R   0.572610 0.398277 0.936245 0.982440
C141  C     C_R   0.554245 0.129817 0.483481 -0.137628
C142  C     C_R   0.445326 0.870828 0.517143 -0.134254
C143  C     C_R   0.445534 0.129884 0.517236 -0.139386
C144  C     C_R   0.553635 0.870681 0.484831 -0.131977
C145  C     C_R   0.054357 0.630069 0.483225 -0.139073
C146  C     C_R   0.945846 0.371161 0.515443 -0.136768
C147  C     C_R   0.945652 0.630120 0.516729 -0.138944
C148  C     C_R   0.052969 0.371114 0.487571 -0.137022
C149  C     C_R   0.527245 0.195112 0.491136 0.361926
C150  C     C_R   0.472340 0.805637 0.508974 0.361401
C151  C     C_R   0.472706 0.195144 0.509388 0.361900
C152  C     C_R   0.526370 0.805548 0.492999 0.360673
C153  C     C_R   0.027404 0.695363 0.490553 0.364452
C154  C     C_R   0.972859 0.306136 0.507476 0.375977
C155  C     C_R   0.972844 0.695386 0.508797 0.364716
C156  C     C_R   0.025594 0.306138 0.496782 0.372800
C157  C     C_R   0.473407 0.065371 0.506421 -0.039357
C158  C     C_R   0.525932 0.935241 0.495174 -0.045349
C159  C     C_R   0.526169 0.065331 0.494736 -0.039623
C160  C     C_R   0.473235 0.935304 0.506658 -0.045222
C161  C     C_R   0.973504 0.565658 0.506064 -0.039258
C162  C     C_R   0.025774 0.435682 0.495888 -0.042113
C163  C     C_R   0.026232 0.565638 0.494616 -0.039380
C164  C     C_R   0.973352 0.435699 0.506341 -0.042614
C165  C     C_R   0.947708 0.500615 0.509809 0.061552
C166  C     C_R   0.051762 0.500574 0.491505 0.061576
C167  C     C_R   0.447578 0.000329 0.510299 0.060702
C168  C     C_R   0.551824 0.000233 0.491109 0.060507
C169  C     C_R   0.872815 0.435990 0.510031 -0.081532
C170  C     C_R   0.127041 0.564614 0.490120 -0.078298
C171  C     C_R   0.126617 0.435882 0.491159 -0.081752
C172  C     C_R   0.872819 0.564693 0.510113 -0.078661
C173  C     C_R   0.372543 0.935912 0.510902 -0.082375
C174  C     C_R   0.627040 0.064453 0.489871 -0.079594
C175  C     C_R   0.626888 0.935712 0.490121 -0.081404
C176  C     C_R   0.372721 0.064587 0.510584 -0.079814
C177  C     C_R   0.832012 0.436390 0.482727 -0.210801
C178  C     C_R   0.167892 0.563884 0.517437 -0.205984
C179  C     C_R   0.167837 0.436322 0.517517 -0.211170
C180  C     C_R   0.832119 0.563935 0.482427 -0.205730
C181  C     C_R   0.331901 0.936363 0.483182 -0.209822
C182  C     C_R   0.667874 0.063812 0.517205 -0.203395
C183  C     C_R   0.667944 0.936240 0.516973 -0.209519
C184  C     C_R   0.332092 0.063910 0.482751 -0.203757
C185  C     C_R   0.818170 0.500088 0.457096 0.300362
C186  C     C_R   0.181976 0.500020 0.542499 0.301519
C187  C     C_R   0.318212 0.000104 0.457358 0.302780
C188  C     C_R   0.681896 0.999974 0.542277 0.303501
H1    H     H_    0.623951 0.313207 0.171541 0.224041
H2    H     H_    0.366648 0.667659 0.836561 0.204762
H3    H     H_    0.375374 0.313096 0.828971 0.234376
H4    H     H_    0.627289 0.678254 0.169005 0.209922
H5    H     H_    0.127387 0.817771 0.168854 0.233092
H6    H     H_    0.846348 0.113727 0.867291 0.207926
H7    H     H_    0.870136 0.820037 0.832933 0.232129
H8    H     H_    0.147150 0.125124 0.139960 0.210392
O1    O     O_R   0.746490 0.236330 0.638080 -0.592383
O2    O     O_R   0.253510 0.763670 0.361920 -0.540634
O3    O     O_R   0.253510 0.236330 0.361920 -0.592245
O4    O     O_R   0.746490 0.763670 0.638080 -0.540725
O5    O     O_R   0.246490 0.736330 0.638080 -0.580210
O6    O     O_R   0.753510 0.263670 0.361920 -0.545023
O7    O     O_R   0.753510 0.736330 0.361920 -0.586750
O8    O     O_R   0.246490 0.263670 0.638080 -0.540225
O9    O     O_R   0.674170 0.186160 0.516270 -0.589862
O10   O     O_R   0.325830 0.813840 0.483730 -0.601596
O11   O     O_R   0.325830 0.186160 0.483730 -0.590138
O12   O     O_R   0.674170 0.813840 0.516270 -0.603309
O13   O     O_R   0.174170 0.686160 0.516270 -0.591332
O14   O     O_R   0.825830 0.313840 0.483730 -0.603772
O15   O     O_R   0.825830 0.686160 0.483730 -0.590565
O16   O     O_R   0.174170 0.313840 0.516270 -0.605900
O17   O     O_R   0.739960 0.127620 0.525000 -0.574345
O18   O     O_R   0.260040 0.872380 0.475000 -0.568449
O19   O     O_R   0.260040 0.127620 0.475000 -0.573594
O20   O     O_R   0.739960 0.872380 0.525000 -0.568058
O21   O     O_R   0.239960 0.627620 0.525000 -0.564647
O22   O     O_R   0.760040 0.372380 0.475000 -0.567472
O23   O     O_R   0.760040 0.627620 0.475000 -0.567324
O24   O     O_R   0.239960 0.372380 0.525000 -0.563262
O25   O     O_R   0.680700 0.294870 0.629350 -0.580953
O26   O     O_R   0.319300 0.705130 0.370650 -0.603858
O27   O     O_R   0.319300 0.294870 0.370650 -0.580874
O28   O     O_R   0.680700 0.705130 0.629350 -0.605953
O29   O     O_R   0.180700 0.794870 0.629350 -0.582626
O30   O     O_R   0.819300 0.205130 0.370650 -0.602233
O31   O     O_R   0.819300 0.794870 0.370650 -0.582290
O32   O     O_R   0.180700 0.205130 0.629350 -0.602935
O33   O     O_R   0.062020 0.072840 0.007170 -0.600594
O34   O     O_R   0.937980 0.927160 0.992830 -0.617303
O35   O     O_R   0.937980 0.072840 0.992830 -0.602041
O36   O     O_R   0.062020 0.927160 0.007170 -0.617511
O37   O     O_R   0.562020 0.572840 0.007170 -0.593903
O38   O     O_R   0.437980 0.427160 0.992830 -0.619927
O39   O     O_R   0.437980 0.572840 0.992830 -0.597178
O40   O     O_R   0.562020 0.427160 0.007170 -0.616459
O41   O     O_R   0.947860 0.073950 0.109290 -0.555683
O42   O     O_R   0.052140 0.926050 0.890710 -0.537417
O43   O     O_R   0.052140 0.073950 0.890710 -0.558687
O44   O     O_R   0.947860 0.926050 0.109290 -0.536821
O45   O     O_R   0.447860 0.573950 0.109290 -0.556507
O46   O     O_R   0.552140 0.426050 0.890710 -0.537498
O47   O     O_R   0.552140 0.573950 0.890710 -0.559060
O48   O     O_R   0.447860 0.426050 0.109290 -0.535997
Zn1   Zn    Zn3+2 0.792340 0.208750 0.507670 1.093108
Zn2   Zn    Zn3+2 0.207660 0.791250 0.492330 1.175947
Zn3   Zn    Zn3+2 0.207660 0.208750 0.492330 1.094897
Zn4   Zn    Zn3+2 0.792340 0.791250 0.507670 1.172904
Zn5   Zn    Zn3+2 0.292340 0.708750 0.507670 1.123757
Zn6   Zn    Zn3+2 0.707660 0.291250 0.492330 1.181652
Zn7   Zn    Zn3+2 0.707660 0.708750 0.492330 1.102345
Zn8   Zn    Zn3+2 0.292340 0.291250 0.507670 1.195254
Zn9   Zn    Zn3+2 0.505960 0.500000 0.080520 1.141907
Zn10  Zn    Zn3+2 0.494040 0.500000 0.919480 1.128855
Zn11  Zn    Zn3+2 0.005960 0.000000 0.080520 1.135449
Zn12  Zn    Zn3+2 0.994040 0.000000 0.919480 1.136772
Cl1   Cl    Cl    0.052976 0.225444 0.510494 -0.561498
Cl2   Cl    Cl    0.941451 0.777660 0.511231 -0.458619
Cl3   Cl    Cl    0.945133 0.225227 0.495162 -0.559175
Cl4   Cl    Cl    0.059073 0.777650 0.487394 -0.457423
Cl5   Cl    Cl    0.556607 0.723675 0.495306 -0.603633
Cl6   Cl    Cl    0.441343 0.277455 0.511875 -0.450135
Cl7   Cl    Cl    0.441736 0.724027 0.506373 -0.581306
Cl8   Cl    Cl    0.558839 0.277381 0.488376 -0.465280
Cl9   Cl    Cl    0.789547 0.499716 0.383394 -0.451093
Cl10  Cl    Cl    0.211202 0.499554 0.615159 -0.443584
Cl11  Cl    Cl    0.290036 0.000038 0.383127 -0.471536
Cl12  Cl    Cl    0.710644 0.999786 0.615558 -0.471752
Cl13  Cl    Cl    0.154196 0.324037 0.372262 -0.588782
Cl14  Cl    Cl    0.842991 0.674790 0.631752 -0.575991
Cl15  Cl    Cl    0.844143 0.324213 0.629806 -0.594715
Cl16  Cl    Cl    0.157183 0.674701 0.367998 -0.577525
Cl17  Cl    Cl    0.655866 0.824938 0.369623 -0.640883
Cl18  Cl    Cl    0.342865 0.174777 0.632003 -0.575664
Cl19  Cl    Cl    0.342833 0.825167 0.631995 -0.632348
Cl20  Cl    Cl    0.656957 0.174721 0.368150 -0.583955
O49   O     O_3   0.641333 0.389288 0.753826 -0.591751
C189  C     C_3   0.689126 0.432100 0.714735 0.112565
H9    H     H_    0.695344 0.451751 0.647953 0.190323
H10   H     H_    0.726774 0.402344 0.700228 0.125696
C190  C     C_3   0.682793 0.496493 0.774813 -0.414524
H11   H     H_    0.647250 0.527976 0.783894 0.257000
H12   H     H_    0.675954 0.478358 0.842513 0.207022
C191  C     C_3   0.733084 0.544132 0.731853 -0.859104
H13   H     H_    0.769942 0.513444 0.718668 0.282210
H14   H     H_    0.728014 0.588642 0.778757 0.275708
H15   H     H_    0.738570 0.566830 0.666914 0.261266
O50   O     O_3   0.410473 0.692070 0.210324 -0.586284
C192  C     C_3   0.428587 0.761571 0.216915 0.223744
H16   H     H_    0.454157 0.756092 0.250239 0.219210
H17   H     H_    0.394563 0.797110 0.262114 0.106494
C193  C     C_3   0.462236 0.797416 0.123323 -0.422474
H18   H     H_    0.491948 0.759050 0.074498 0.256188
H19   H     H_    0.434903 0.814447 0.096406 0.217865
C194  C     C_3   0.492641 0.862595 0.129620 -0.863067
H20   H     H_    0.463515 0.901994 0.177914 0.275307
H21   H     H_    0.515551 0.887902 0.061531 0.268649
H22   H     H_    0.521963 0.846790 0.152882 0.279484
O51   O     O_3   0.359040 0.389368 0.246346 -0.590185
C195  C     C_3   0.311364 0.432197 0.286438 0.116672
H23   H     H_    0.305630 0.451319 0.353078 0.192117
H24   H     H_    0.273512 0.402627 0.301416 0.122848
C196  C     C_3   0.317489 0.497046 0.226999 -0.414797
H25   H     H_    0.353001 0.528617 0.218097 0.256522
H26   H     H_    0.324264 0.479458 0.159190 0.207402
C197  C     C_3   0.267111 0.544284 0.270627 -0.855169
H27   H     H_    0.230209 0.513373 0.284287 0.282163
H28   H     H_    0.271842 0.588916 0.223958 0.276030
H29   H     H_    0.261944 0.566802 0.335377 0.259586
O52   O     O_3   0.589695 0.690442 0.788142 -0.590158
C198  C     C_3   0.570568 0.759033 0.780924 0.219882
H30   H     H_    0.545375 0.751980 0.747132 0.220157
H31   H     H_    0.604175 0.795376 0.735900 0.108401
C199  C     C_3   0.535938 0.794639 0.874201 -0.421568
H32   H     H_    0.506758 0.755601 0.922997 0.257302
H33   H     H_    0.562685 0.813254 0.901574 0.216664
C200  C     C_3   0.504649 0.858389 0.866984 -0.859140
H34   H     H_    0.533268 0.898394 0.818712 0.273195
H35   H     H_    0.481028 0.883602 0.934858 0.267540
H36   H     H_    0.475888 0.841025 0.843203 0.282704
O53   O     O_3   0.141211 0.889360 0.752671 -0.591929
C201  C     C_3   0.188752 0.932595 0.712084 0.117291
H37   H     H_    0.193867 0.952253 0.645983 0.190685
H38   H     H_    0.226772 0.903117 0.695961 0.126083
C202  C     C_3   0.183013 0.996968 0.771834 -0.417155
H39   H     H_    0.147080 0.028202 0.782313 0.258535
H40   H     H_    0.177161 0.978861 0.838955 0.205322
C203  C     C_3   0.233087 0.044884 0.727394 -0.854230
H41   H     H_    0.270361 0.014312 0.712067 0.281571
H42   H     H_    0.228716 0.089070 0.774288 0.275522
H43   H     H_    0.237280 0.068012 0.663505 0.260178
O54   O     O_3   0.908407 0.187701 0.211737 -0.594652
C204  C     C_3   0.930023 0.255525 0.214389 0.213040
H44   H     H_    0.954129 0.248636 0.250164 0.223788
H45   H     H_    0.897666 0.294732 0.255213 0.108893
C205  C     C_3   0.967240 0.285803 0.118716 -0.426660
H46   H     H_    0.995544 0.243964 0.074570 0.254732
H47   H     H_    0.942130 0.303344 0.087777 0.215861
C206  C     C_3   0.999946 0.349390 0.122331 -0.846572
H48   H     H_    0.972193 0.391815 0.166434 0.271231
H49   H     H_    0.025158 0.371347 0.052810 0.265282
H50   H     H_    0.027300 0.332784 0.149331 0.288995
O55   O     O_3   0.858965 0.889652 0.247488 -0.591978
C207  C     C_3   0.811443 0.932701 0.288946 0.122433
H51   H     H_    0.807494 0.953414 0.353796 0.190130
H52   H     H_    0.773217 0.902729 0.307568 0.124691
C208  C     C_3   0.815924 0.996122 0.228424 -0.421862
H53   H     H_    0.852061 0.028007 0.215592 0.255172
H54   H     H_    0.820688 0.977005 0.162419 0.206057
C209  C     C_3   0.765736 0.043556 0.273798 -0.854738
H55   H     H_    0.728315 0.012302 0.291656 0.281767
H56   H     H_    0.769038 0.086897 0.226416 0.277091
H57   H     H_    0.762643 0.067835 0.336308 0.259475
O56   O     O_3   0.091651 0.186209 0.786246 -0.597367
C210  C     C_3   0.068861 0.252562 0.781727 0.210705
H58   H     H_    0.045761 0.243335 0.744630 0.224527
H59   H     H_    0.100600 0.292775 0.741306 0.109013
C211  C     C_3   0.029935 0.282658 0.876534 -0.428700
H60   H     H_    0.002128 0.240142 0.920415 0.256712
H61   H     H_    0.053795 0.302209 0.908851 0.213744
C212  C     C_3   0.996533 0.344348 0.870523 -0.845020
H62   H     H_    0.023815 0.387489 0.826899 0.268121
H63   H     H_    0.969912 0.366122 0.939552 0.265677
H64   H     H_    0.970526 0.325807 0.841731 0.291882
Cl21  Cl    Cl    0.538874 0.320756 0.130322 -0.546299
Cl22  Cl    Cl    0.451515 0.667464 0.865725 -0.639194
Cl23  Cl    Cl    0.460108 0.320154 0.870594 -0.549014
Cl24  Cl    Cl    0.544520 0.668992 0.134645 -0.628278
Cl25  Cl    Cl    0.041940 0.820855 0.129066 -0.542396
Cl26  Cl    Cl    0.939932 0.158115 0.865635 -0.591355
Cl27  Cl    Cl    0.956055 0.821568 0.871349 -0.540194
Cl28  Cl    Cl    0.054591 0.161931 0.135088 -0.596278
Cl29  Cl    Cl    0.716588 0.113127 0.754654 -0.583883
Cl30  Cl    Cl    0.265877 0.882586 0.262251 -0.523920
Cl31  Cl    Cl    0.279986 0.114440 0.245105 -0.584669
Cl32  Cl    Cl    0.733682 0.883639 0.736156 -0.522521
Cl33  Cl    Cl    0.216539 0.614469 0.751098 -0.524802
Cl34  Cl    Cl    0.766327 0.381436 0.254722 -0.491652
Cl35  Cl    Cl    0.778112 0.615722 0.250321 -0.518977
Cl36  Cl    Cl    0.236696 0.382443 0.736181 -0.494967
O57   O     O_3   0.828503 0.170150 0.769152 -0.628930
C213  C     C_3   0.842824 0.131294 0.688656 0.182723
H65   H     H_    0.886134 0.143207 0.641867 0.237195
H66   H     H_    0.821021 0.148921 0.652052 0.199519
C214  C     C_3   0.839461 0.050838 0.705785 -0.433727
H67   H     H_    0.867620 0.035870 0.731856 0.237725
H68   H     H_    0.797852 0.035804 0.757662 0.277240
C215  C     C_3   0.854680 0.009213 0.618781 -0.656032
H69   H     H_    0.826308 0.022191 0.592500 0.289131
H70   H     H_    0.852143 0.951209 0.633284 0.307006
H71   H     H_    0.896891 0.022262 0.565958 0.250136
O58   O     O_3   0.202616 0.889170 0.170189 -0.615907
C216  C     C_3   0.225944 0.935324 0.093086 0.054497
H72   H     H_    0.197612 0.980737 0.108017 0.163060
H73   H     H_    0.229351 0.910377 0.030764 0.144149
C217  C     C_3   0.281823 0.964701 0.072536 -0.347309
H74   H     H_    0.279259 0.989299 0.134377 0.301234
H75   H     H_    0.311950 0.920710 0.050512 0.221033
C218  C     C_3   0.302022 0.020675 0.997177 -0.891135
H76   H     H_    0.272939 0.065703 0.017495 0.255834
H77   H     H_    0.306727 0.996908 0.933245 0.268961
H78   H     H_    0.342058 0.041531 0.984465 0.288836
O59   O     O_3   0.167939 0.178939 0.235968 -0.623642
C219  C     C_3   0.153837 0.135183 0.312808 0.192000
H79   H     H_    0.110601 0.146019 0.361094 0.235550
H80   H     H_    0.176032 0.149260 0.350051 0.199500
C220  C     C_3   0.157099 0.055900 0.289174 -0.458805
H81   H     H_    0.127296 0.043545 0.265629 0.235008
H82   H     H_    0.198066 0.042972 0.233438 0.267164
C221  C     C_3   0.144875 0.009257 0.371334 -0.649983
H83   H     H_    0.175171 0.019165 0.394476 0.294832
H84   H     H_    0.146919 0.952264 0.352399 0.309500
H85   H     H_    0.103473 0.020629 0.428050 0.249886
O60   O     O_3   0.795195 0.892446 0.830799 -0.615912
C222  C     C_3   0.771128 0.938555 0.907751 0.054505
H86   H     H_    0.797982 0.985821 0.891814 0.158784
H87   H     H_    0.769557 0.914722 0.969359 0.147303
C223  C     C_3   0.713989 0.964215 0.930321 -0.351367
H88   H     H_    0.715400 0.990180 0.869969 0.296968
H89   H     H_    0.685562 0.918264 0.950181 0.220959
C224  C     C_3   0.691696 0.017272 0.008845 -0.889803
H90   H     H_    0.719108 0.063999 0.991439 0.258292
H91   H     H_    0.687729 0.991685 0.071426 0.268723
H92   H     H_    0.650993 0.035968 0.022482 0.287076
O61   O     O_3   0.300306 0.610734 0.811555 -0.663604
C225  C     C_3   0.341219 0.614260 0.719026 0.113972
H93   H     H_    0.365082 0.664590 0.704257 0.184656
H94   H     H_    0.323780 0.611290 0.672413 0.218820
C226  C     C_3   0.379213 0.550577 0.699394 -0.356794
H95   H     H_    0.394092 0.549137 0.749767 0.236591
H96   H     H_    0.356184 0.500674 0.706525 0.287241
C227  C     C_3   0.428033 0.553772 0.603907 -0.756415
H97   H     H_    0.414427 0.558226 0.552116 0.284853
H98   H     H_    0.452495 0.504449 0.590598 0.275013
H99   H     H_    0.454231 0.599956 0.597984 0.304240
O62   O     O_3   0.708620 0.386678 0.152827 -0.609988
C228  C     C_3   0.743076 0.419357 0.067289 0.058130
H100  H     H_    0.731209 0.402255 0.016074 0.154118
H101  H     H_    0.786884 0.405976 0.041373 0.150081
C229  C     C_3   0.737905 0.499849 0.075188 -0.250679
H102  H     H_    0.694621 0.514956 0.101839 0.255693
H103  H     H_    0.752115 0.518135 0.122938 0.298209
C230  C     C_3   0.772405 0.535119 0.982484 -0.897972
H104  H     H_    0.757071 0.520275 0.934997 0.260521
H105  H     H_    0.815599 0.518652 0.952982 0.272488
H106  H     H_    0.770538 0.593723 0.989937 0.282954
O63   O     O_3   0.689982 0.622606 0.199865 -0.683014
C231  C     C_3   0.653878 0.624674 0.295007 0.121836
H107  H     H_    0.616153 0.653049 0.308135 0.193974
H108  H     H_    0.670366 0.652345 0.334979 0.206993
C232  C     C_3   0.639412 0.548037 0.329543 -0.302902
H109  H     H_    0.621895 0.520281 0.291258 0.244048
H110  H     H_    0.676967 0.519390 0.317087 0.297855
C233  C     C_3   0.598569 0.545126 0.430960 -0.776172
H111  H     H_    0.615043 0.572871 0.470749 0.277545
H112  H     H_    0.590355 0.488726 0.453608 0.281160
H113  H     H_    0.559673 0.570309 0.444366 0.289671
O64   O     O_3   0.301863 0.385287 0.825304 -0.615412
C234  C     C_3   0.280343 0.432715 0.900836 0.051182
H114  H     H_    0.311650 0.474169 0.886758 0.194099
H115  H     H_    0.272689 0.406914 0.965452 0.135606
C235  C     C_3   0.228233 0.469743 0.914780 -0.272342
H116  H     H_    0.236635 0.498976 0.851906 0.321563
H117  H     H_    0.196003 0.429583 0.929300 0.213074
C236  C     C_3   0.207098 0.521744 0.994489 -0.861284
H118  H     H_    0.239160 0.560534 0.985297 0.281574
H119  H     H_    0.193965 0.492311 0.059238 0.257931
H120  H     H_    0.171756 0.551416 0.998950 0.281570

loop_
_geom_bond_atom_site_label_1
_geom_bond_atom_site_label_2
_ccdc_geom_bond_type
C152  Cl5   S    
C201  H38   S    
C234  H114  S    
O19   Zn3   S    
C85   C182  S    
C136  O42   A    
O61   C225  S    
C9    C169  A    
C34   C42   A    
O4    Zn4   S    
C181  C187  A    
C196  H26   S    
O32   Zn3   S    
C228  H100  S    
O62   C228  S    
C190  C191  S    
C111  H3    S    
C27   C99   A    
C188  Cl12  S    
C12   C174  A    
C191  H13   S    
C42   C109  A    
C217  H75   S    
C65   O53   S    
C24   C96   A    
C235  H117  S    
C102  Cl22  S    
C201  C202  S    
C236  H120  S    
C30   C38   A    
C211  C212  S    
C1    O25   A    
C220  C221  S    
C208  H53   S    
C7    O7    A    
O28   Zn7   S    
O31   Zn4   S    
O40   Zn9   S    
C147  C155  A    
O11   Zn8   S    
C150  Cl7   S    
C143  C151  A    
C90   C177  S    
C11   C167  A    
C82   C98   A    
C76   C84   A    
C88   O12   A    
C73   C81   A    
C161  C163  A    
C162  C164  A    
C212  H64   S    
C84   C100  A    
C8    O8    A    
C121  C129  A    
C155  Cl2   S    
C37   C114  A    
C27   C35   A    
C10   C171  A    
C204  H44   S    
C21   C29   A    
C110  H2    S    
C135  O41   A    
C81   C121  A    
C23   C31   A    
C200  H36   S    
C20   Cl20  S    
C22   C41   A    
C228  C229  S    
C196  H25   S    
C146  C154  A    
C120  C128  A    
C197  H27   S    
C128  O60   S    
O54   C204  S    
O35   Zn12  S    
C203  H42   S    
C227  H97   S    
C63   C71   A    
O24   Zn8   S    
C139  O39   A    
O57   C213  S    
C36   C44   A    
C122  Cl34  S    
C32   C40   A    
C195  H23   S    
O30   Zn1   S    
C175  C183  A    
C204  C205  S    
C176  C184  A    
C48   C96   A    
C191  H15   S    
O39   Zn10  S    
C205  H46   S    
C17   Cl17  S    
O20   Zn4   S    
C216  H72   S    
C148  C162  A    
C231  H107  S    
C193  H19   S    
C183  C188  A    
C142  C150  A    
C7    O31   A    
C78   C94   A    
O1    Zn1   S    
C23   C95   A    
C209  H55   S    
C62   O50   S    
C230  H105  S    
C49   C97   A    
C21   C42   A    
C137  O47   A    
O25   Zn6   S    
C51   C107  A    
O53   C201  S    
C24   C43   A    
C101  C109  A    
O13   Zn2   S    
C82   C122  A    
C161  C165  A    
C17   C175  A    
C214  H68   S    
C18   C176  A    
O27   Zn8   S    
C224  H90   S    
C117  Cl29  S    
C69   C77   A    
C124  Cl36  S    
C31   C127  A    
C45   C93   A    
C174  C182  A    
C71   C79   A    
C8    O32   A    
C185  Cl9   S    
C194  H21   S    
C179  C186  A    
C226  H95   S    
C234  H115  S    
C62   C70   A    
C11   C176  A    
C21   C93   A    
C17   C144  A    
C105  C113  A    
C18   C143  A    
C78   C118  A    
C36   C132  A    
C5    O5    A    
C218  H76   S    
C66   C74   A    
C8    C76   S    
C49   C57   A    
C124  C132  A    
C202  H40   S    
O9    Zn6   S    
C52   C60   A    
C151  Cl6   S    
C59   C67   A    
C53   C61   A    
C221  H84   S    
C141  C159  A    
C227  H99   S    
C20   C174  A    
C5    O29   A    
C215  H69   S    
C55   C63   A    
C86   C181  S    
C222  H87   S    
C123  Cl35  S    
C233  H111  S    
C131  O63   S    
C35   C43   A    
O38   Zn10  S    
C4    O4    A    
C67   O55   S    
C195  C196  S    
C232  C233  S    
C108  Cl28  S    
C45   C53   A    
O49   C189  S    
C22   C94   A    
C171  C179  A    
O36   Zn11  S    
O21   Zn5   S    
C205  C206  S    
C169  C177  A    
C223  H89   S    
C216  C217  S    
C50   C98   A    
O64   C234  S    
C231  C232  S    
C219  H79   S    
C91   O15   A    
C104  C112  A    
C89   O13   A    
C145  C163  A    
C146  C164  A    
C14   C147  A    
C52   C100  A    
C127  O59   S    
C16   C145  A    
C178  C186  A    
O17   Zn1   S    
C86   O18   A    
C13   Cl13  S    
C25   C38   A    
C223  C224  S    
C135  O35   A    
C54   C139  S    
C46   C94   A    
C27   C40   A    
C10   C166  A    
C107  C115  A    
C91   C180  S    
C233  H113  S    
C192  H16   S    
C182  C188  A    
C89   C178  S    
C211  H61   S    
C28   C36   A    
C221  H83   S    
C106  Cl26  S    
O7    Zn7   S    
C129  O61   S    
C210  H59   S    
C224  H92   S    
O5    Zn5   S    
C198  H31   S    
C92   O16   A    
C67   C75   A    
C140  O40   A    
C156  Cl1   S    
C226  C227  S    
C25   C97   A    
O29   Zn2   S    
C3    O27   A    
C22   C30   A    
O6    Zn6   S    
C61   O49   S    
C20   C141  A    
C1    O1    A    
C203  H41   S    
C15   C146  A    
C64   O52   S    
C58   C135  S    
C68   C76   A    
C59   C134  S    
C63   O51   S    
C184  C187  A    
C32   C128  A    
C191  H14   S    
C126  O58   S    
C144  C152  A    
C208  C209  S    
C125  O57   S    
C56   C137  S    
C235  C236  S    
C186  Cl10  S    
C215  H71   S    
C227  H98   S    
C236  H119  S    
C189  H10   S    
C220  H82   S    
C5    C73   S    
C139  O45   A    
C90   O22   A    
C232  H109  S    
C116  H8    S    
C13   C171  A    
C206  H50   S    
O45   Zn9   S    
C207  H51   S    
O56   C210  S    
C31   C39   A    
C119  Cl31  S    
C189  H9    S    
C83   C99   A    
C133  O43   A    
C232  H110  S    
C29   C125  A    
C117  C125  A    
C25   C33   A    
C18   Cl18  S    
C119  C127  A    
C213  H65   S    
O22   Zn6   S    
C219  C220  S    
O55   C207  S    
C157  C167  A    
C118  Cl30  S    
C158  C168  A    
C212  H63   S    
C107  Cl27  S    
C103  Cl23  S    
C164  C165  A    
O34   Zn12  S    
C40   C115  A    
C225  H93   S    
C199  H33   S    
C2    O26   A    
C192  C193  S    
C177  C185  A    
C229  H102  S    
C103  C111  A    
C200  H35   S    
O33   Zn11  S    
C162  C166  A    
C189  C190  S    
C79   C119  A    
C197  H28   S    
C153  C155  A    
C154  C156  A    
C172  C180  A    
C199  C200  S    
C204  H45   S    
C201  H37   S    
C173  C181  A    
C157  C159  A    
O23   Zn7   S    
C158  C160  A    
C74   C82   A    
C203  H43   S    
C16   Cl16  S    
C195  H24   S    
C6    C74   S    
C196  C197  S    
C228  H101  S    
C68   O56   S    
C197  H29   S    
C47   C103  A    
C85   O9    A    
O63   C231  S    
C50   C58   A    
C163  C166  A    
C217  H74   S    
C205  H47   S    
C147  C161  A    
C194  H20   S    
C38   C113  A    
C235  H116  S    
C49   C105  A    
C54   C62   A    
C28   C39   A    
C1    C69   S    
C23   C44   A    
C231  H108  S    
C3    C71   S    
O51   C195  S    
C19   C173  A    
C79   C95   A    
C92   C179  S    
C112  H4    S    
C136  O36   A    
C213  C214  S    
C206  H48   S    
C207  C208  S    
C46   C54   A    
C209  H56   S    
C55   C138  S    
C45   C101  A    
C144  C158  A    
C19   C142  A    
O48   Zn9   S    
O60   C222  S    
C138  O38   A    
C190  H12   S    
C35   C131  A    
C4    C72   S    
C138  O48   A    
C214  H67   S    
C33   C129  A    
C115  H7    S    
O52   C198  S    
C120  Cl32  S    
C123  C131  A    
C113  H5    S    
O41   Zn11  S    
C57   C65   A    
O58   C216  S    
C14   Cl14  S    
C26   C37   A    
C10   C170  A    
C121  Cl33  S    
C209  H57   S    
C229  C230  S    
C33   C41   A    
C108  C116  A    
C149  C151  A    
C199  H32   S    
C75   C83   A    
O2    Zn2   S    
C6    O30   A    
C101  Cl21  S    
C77   C93   A    
C225  H94   S    
C202  H39   S    
C133  O33   A    
C44   C111  A    
C16   C170  A    
C60   C68   A    
C72   C80   A    
C39   C116  A    
C29   C37   A    
O43   Zn12  S    
C50   C106  A    
C87   O19   A    
C9    C172  A    
C233  H112  S    
C148  C156  A    
C83   C123  A    
C2    C70   S    
C153  Cl4   S    
C60   C133  S    
C154  Cl3   S    
C170  C178  A    
C218  H78   S    
C198  H30   S    
C30   C126  A    
C70   C78   A    
C53   C140  S    
O59   C219  S    
C217  C218  S    
C66   O54   S    
C86   O10   A    
C24   C32   A    
C141  C149  A    
C218  H77   S    
C216  H73   S    
O47   Zn10  S    
C130  O62   S    
C106  C114  A    
C193  H18   S    
C219  H80   S    
C6    O6    A    
C77   C117  A    
C48   C104  A    
C65   C73   A    
C159  C168  A    
C15   C169  A    
C160  C167  A    
C92   O24   A    
O10   Zn5   S    
C230  H106  S    
C58   C66   A    
C19   Cl19  S    
C210  H58   S    
C109  H1    S    
C3    O3    A    
C220  H81   S    
C57   C136  S    
C80   C96   A    
C149  Cl8   S    
C132  O64   S    
O3    Zn3   S    
C214  C215  S    
C145  C153  A    
C28   C100  A    
C134  O34   A    
C52   C108  A    
C224  H91   S    
C200  H34   S    
O16   Zn3   S    
C15   Cl15  S    
C26   C34   A    
C143  C157  A    
C194  H22   S    
C215  H70   S    
C226  H96   S    
C51   C99   A    
C234  C235  S    
C11   C173  A    
C9    C165  A    
C114  H6    S    
C221  H85   S    
C14   C172  A    
C87   C184  S    
C90   O14   A    
C88   C183  S    
C7    C75   S    
C190  H11   S    
C4    O28   A    
O42   Zn12  S    
O12   Zn7   S    
O15   Zn4   S    
C202  C203  S    
C85   O17   A    
C208  H54   S    
C222  H86   S    
C187  Cl11  S    
C56   C64   A    
C236  H118  S    
C222  C223  S    
O18   Zn2   S    
C87   O11   A    
C26   C98   A    
C12   C175  A    
C105  Cl25  S    
C206  H49   S    
C207  H52   S    
C41   C110  A    
O46   Zn10  S    
C150  C152  A    
C80   C120  A    
C51   C59   A    
C43   C112  A    
C137  O37   A    
C47   C55   A    
C223  H88   S    
C61   C69   A    
C48   C56   A    
O44   Zn11  S    
C213  H66   S    
C88   O20   A    
C2    O2    A    
C134  O44   A    
C193  C194  S    
C142  C160  A    
C12   C168  A    
O37   Zn9   S    
C84   C124  A    
C212  H62   S    
C13   C148  A    
O50   C192  S    
C230  H104  S    
C81   C97   A    
C192  H17   S    
C229  H103  S    
C140  O46   A    
C64   C72   A    
C91   O23   A    
C211  H60   S    
C102  C110  A    
C180  C185  A    
C89   O21   A    
O8    Zn8   S    
O26   Zn5   S    
C210  C211  S    
C34   C130  A    
C198  C199  S    
C104  Cl24  S    
C47   C95   A    
C118  C126  A    
O14   Zn1   S    
C122  C130  A    
C46   C102  A    
C225  C226  S    
