data_mof_unit_7627.cif
_audit_creation_date              2013-03-05T16:35:41-0500
_audit_creation_method            fapswitch 2.2
_symmetry_space_group_name_H-M    P1
_symmetry_Int_Tables_number       1
_space_group_crystal_system       triclinic
_cell_length_a                    8.59996
_cell_length_b                    19.304136
_cell_length_c                    18.470638
_cell_angle_alpha                 89.736287
_cell_angle_beta                  98.667172
_cell_angle_gamma                 90.35169
_cell_volume                      3031.30406099

loop_
_atom_site_label
_atom_site_type_symbol
_atom_site_description
_atom_site_fract_x
_atom_site_fract_y
_atom_site_fract_z
_atom_type_partial_charge
O1    O     O_R   0.500010 0.398180 0.560840 -0.628480
O2    O     O_R   0.499990 0.601820 0.439160 -0.628481
O3    O     O_R   0.499930 0.398180 0.439210 -0.627768
O4    O     O_R   0.500070 0.601820 0.560790 -0.627771
C1    C     C_R   0.499093 0.365602 0.500144 0.879596
C2    C     C_R   0.500894 0.634397 0.499854 0.879586
O5    O     O_R   0.271780 0.500000 0.546590 -0.618233
O6    O     O_R   0.728220 0.500000 0.453410 -0.618226
O7    O     O_R   0.271710 0.499990 0.424960 -0.627860
O8    O     O_R   0.728290 0.500010 0.575040 -0.627857
C3    C     C_R   0.200884 0.499970 0.480890 0.981826
C4    C     C_R   0.799116 0.500030 0.519110 0.981840
Zn1   Zn    Zn3+2 0.500050 0.500000 0.581210 0.951378
Zn2   Zn    Zn3+2 0.499950 0.500000 0.418790 0.951386
C5    C     C_2   0.035907 0.500034 0.470537 -0.372290
C6    C     C_2   0.964093 0.499966 0.529462 -0.372305
H1    H     H_    0.973974 0.500169 0.414637 0.179420
H2    H     H_    0.026025 0.499831 0.585363 0.179417
C7    C     C_R   0.494667 0.745682 0.432824 -0.191267
C8    C     C_R   0.505133 0.254311 0.567155 -0.191275
H3    H     H_    0.485442 0.718595 0.381111 0.160631
H4    H     H_    0.514386 0.281391 0.618872 0.160625
C9    C     C_R   0.495929 0.817429 0.432391 -0.044559
C10   C     C_R   0.503739 0.182563 0.567571 -0.044712
H5    H     H_    0.486920 0.845149 0.380791 0.151505
H6    H     H_    0.512689 0.154835 0.619163 0.151483
C11   C     C_R   0.506824 0.853210 0.498496 0.245708
C12   C     C_R   0.492803 0.146791 0.501458 0.245604
C13   C     C_R   0.517327 0.817768 0.565137 -0.079110
C14   C     C_R   0.482379 0.182243 0.434826 -0.078925
H7    H     H_    0.525525 0.845773 0.616294 0.148122
H8    H     H_    0.474152 0.154245 0.383663 0.148240
C15   C     C_R   0.515630 0.746006 0.565700 -0.184731
C16   C     C_R   0.484212 0.254003 0.434280 -0.184732
H9    H     H_    0.523328 0.719160 0.617734 0.159805
H10   H     H_    0.476576 0.280855 0.382252 0.159824
C17   C     C_R   0.503660 0.709636 0.499483 -0.042164
C18   C     C_R   0.496232 0.290365 0.500504 -0.042172
C19   C     C_R   0.368162 0.961931 0.516030 0.210876
C20   C     C_R   0.631386 0.038065 0.483900 0.211072
C21   C     C_R   0.366616 0.034202 0.518104 0.313076
C22   C     C_R   0.632934 0.965801 0.481816 0.312987
C23   C     C_R   0.497799 0.071765 0.502148 -0.284366
C24   C     C_R   0.501772 0.928235 0.497791 -0.284338
C25   C     C_R   0.597752 0.543818 0.732602 0.028851
C26   C     C_R   0.402248 0.456181 0.267398 0.028862
H11   H     H_    0.674967 0.578135 0.707934 0.126671
H12   H     H_    0.325034 0.421864 0.292066 0.126673
C27   C     C_R   0.599555 0.544699 0.808700 -0.268992
C28   C     C_R   0.400445 0.455301 0.191300 -0.268978
H13   H     H_    0.680083 0.579411 0.841727 0.139599
H14   H     H_    0.319918 0.420588 0.158273 0.139604
C29   C     C_R   0.499911 0.500015 0.841337 0.116823
C30   C     C_R   0.500089 0.499985 0.158663 0.116818
C31   C     C_R   0.400277 0.455329 0.795142 -0.269792
C32   C     C_R   0.599721 0.544671 0.204857 -0.269783
H15   H     H_    0.319700 0.420636 0.817195 0.140607
H16   H     H_    0.680298 0.579364 0.182804 0.140612
C33   C     C_R   0.402180 0.456176 0.719296 0.024844
C34   C     C_R   0.597819 0.543824 0.280704 0.024846
H17   H     H_    0.324939 0.421869 0.684121 0.129313
H18   H     H_    0.675060 0.578132 0.315879 0.129323
N1    N     N_R   0.500020 0.499980 0.689440 -0.096389
N2    N     N_R   0.499980 0.500020 0.310560 -0.096393
C35   C     C_R   0.479990 0.438036 0.960875 -0.174254
C36   C     C_R   0.520008 0.561964 0.039125 -0.174254
H19   H     H_    0.466993 0.389089 0.932177 0.137892
H20   H     H_    0.533006 0.610911 0.067822 0.137894
C37   C     C_R   0.480060 0.438026 0.036908 -0.174119
C38   C     C_R   0.519938 0.561973 0.963092 -0.174127
H21   H     H_    0.467107 0.389073 0.064247 0.137829
H22   H     H_    0.532892 0.610927 0.935753 0.137820
C39   C     C_R   0.500069 0.499991 0.077312 0.117726
C40   C     C_R   0.499930 0.500009 0.922688 0.117727
N3    N     N_R   0.233993 0.922774 0.531439 0.262281
O9    O     O_R   0.173848 0.874070 0.487182 -0.325945
O10   O     O_R   0.175117 0.933900 0.591205 -0.301851
N4    N     N_R   0.765521 0.077212 0.468448 0.262424
O11   O     O_R   0.823808 0.066295 0.408473 -0.302321
O12   O     O_R   0.825902 0.125832 0.512761 -0.325712
Cl1   Cl    Cl    0.195618 0.077849 0.535291 -0.432238
Cl2   Cl    Cl    0.803917 0.922185 0.464560 -0.432270

loop_
_geom_bond_atom_site_label_1
_geom_bond_atom_site_label_2
_geom_bond_distance
_ccdc_geom_bond_type
C36   H20   1.082449 S    
C31   C33   1.403514 A    
C11   C13   1.396731 A    
C29   C40   1.502584 S    
C22   Cl2   1.769652 S    
O7    Zn2   1.983230 S    
C19   C21   1.396039 A    
O5    C3    1.273334 A    
C28   C30   1.408410 A    
O1    C1    1.286918 A    
C7    H3    1.083180 S    
C10   H6    1.083619 S    
C35   C37   1.404294 A    
C5    C6    1.329872 D    
C13   C15   1.385291 A    
C34   H18   1.081885 S    
O4    Zn1   1.999704 S    
C37   H21   1.082448 S    
C7    C17   1.403645 A    
C3    C5    1.402785 S    
C11   C24   1.449143 S    
C20   C23   1.408741 A    
C4    C6    1.402785 S    
C35   H19   1.082449 S    
C38   C40   1.408667 A    
C28   H14   1.082356 S    
C37   C39   1.408667 A    
C19   N3    1.438758 S    
C16   H10   1.083209 S    
C25   H11   1.081854 S    
Zn2   N2    1.999116 S    
C1    C18   1.452460 S    
C21   C23   1.404849 A    
O2    C2    1.286912 A    
C22   C24   1.404851 A    
C26   H12   1.081854 S    
C29   C31   1.408428 A    
C30   C32   1.408428 A    
C33   H17   1.081886 S    
C14   C16   1.385275 A    
C8    C10   1.385005 A    
O4    C2    1.287697 A    
N4    O11   1.301402 A    
C27   H13   1.082356 S    
C36   C39   1.408656 A    
C25   N1    1.361502 A    
C15   C17   1.403024 A    
C35   C40   1.408656 A    
C32   C34   1.403515 A    
C26   N2    1.361503 A    
C7    C9    1.384995 A    
N3    O9    1.301308 A    
C30   C39   1.502584 S    
C8    C18   1.403635 A    
Zn1   N1    1.999116 S    
C25   C27   1.403512 A    
O6    C4    1.273334 A    
C21   Cl1   1.769639 S    
C2    C17   1.452463 S    
O7    C3    1.275878 A    
O3    Zn2   1.999708 S    
O8    C4    1.275878 A    
C8    H4    1.083184 S    
C9    C11   1.396145 A    
C31   H15   1.082357 S    
C20   N4    1.438664 S    
O1    Zn1   2.002924 S    
C5    H1    1.088135 S    
O6    Zn2   1.970882 S    
C16   C18   1.403032 A    
C10   C12   1.396158 A    
O3    C1    1.287690 A    
O8    Zn1   1.983230 S    
C19   C24   1.408820 A    
C26   C28   1.403512 A    
C12   C23   1.449153 S    
C33   N1    1.361592 A    
C34   N2    1.361591 A    
C12   C14   1.396722 A    
C13   H7    1.083627 S    
C14   H8    1.083635 S    
C36   C38   1.404294 A    
C27   C29   1.408411 A    
C20   C22   1.395897 A    
C15   H9    1.083215 S    
C32   H16   1.082358 S    
N4    O12   1.301335 A    
C9    H5    1.083629 S    
O2    Zn2   2.002920 S    
O5    Zn1   1.970882 S    
C6    H2    1.088135 S    
N3    O10   1.301209 A    
C38   H22   1.082449 S    
