data_mof_unit_10656.cif
_audit_creation_date              2012-12-11T15:50:37-0500
_audit_creation_method            fapswitch 2.2
_symmetry_space_group_name_H-M    P1
_symmetry_Int_Tables_number       1
_space_group_crystal_system       triclinic
_cell_length_a                    18.915163
_cell_length_b                    11.000132
_cell_length_c                    18.718955
_cell_angle_alpha                 90.048732
_cell_angle_beta                  91.009223
_cell_angle_gamma                 89.83404
_cell_volume                      3894.217896

loop_
_atom_site_label
_atom_site_type_symbol
_atom_type_description
_atom_site_fract_x
_atom_site_fract_y
_atom_site_fract_z
_atom_type_partial_charge
C1    C     C_R   0.274631 0.036224 0.855996 0.546161
C2    C     C_R   0.764321 0.555322 0.931898 0.018712
C3    C     C_R   0.228317 0.545000 0.354264 0.550245
C4    C     C_R   0.470033 0.822033 0.647301 0.546339
C5    C     C_R   0.530484 0.823627 0.353084 0.541710
C6    C     C_R   0.970511 0.323019 0.647654 0.548244
C7    C     C_R   0.031797 0.323969 0.353496 0.544269
C8    C     C_R   0.258626 0.634640 0.644927 0.539257
C9    C     C_R   0.741548 0.633168 0.354083 0.550575
C10   C     C_R   0.756942 0.130527 0.647521 0.546375
C11   C     C_R   0.241603 0.132889 0.354265 0.559960
C12   C     C_3   0.431811 0.891514 0.044390 -0.127200
C13   C     C_R   0.735260 0.054800 0.067563 0.009630
C14   C     C_3   0.474423 0.945060 0.981660 -0.104962
C15   C     C_3   0.931797 0.391511 0.044395 -0.127428
C16   C     C_3   0.974407 0.445064 0.981665 -0.104999
C17   C     C_3   0.415225 0.776773 0.999160 -0.146416
C18   C     C_3   0.542165 0.882945 0.011211 -0.118593
C19   C     C_3   0.915216 0.276770 0.999163 -0.146190
C20   C     C_3   0.042152 0.382957 0.011216 -0.118450
C21   C     C_3   0.458689 0.829168 0.938062 0.054605
C22   C     C_3   0.499131 0.829060 0.072200 0.049498
C23   C     C_3   0.958678 0.329170 0.938066 0.054282
C24   C     C_R   0.264326 0.055306 0.931903 0.018350
C25   C     C_3   0.999119 0.329065 0.072205 0.049834
C26   C     C_3   0.034752 0.811810 0.573901 -0.141976
C27   C     C_3   0.938054 0.772276 0.372373 -0.105604
C28   C     C_3   0.581263 0.346638 0.620242 -0.097305
C29   C     C_3   0.444890 0.298538 0.394264 -0.133254
C30   C     C_R   0.282800 0.483472 0.028942 0.031472
C31   C     C_R   0.716025 0.485654 0.970332 0.028278
C32   C     C_R   0.782793 0.983456 0.028935 0.030989
C33   C     C_R   0.216027 0.985646 0.970338 0.026919
C34   C     C_R   0.287904 0.495700 0.955524 0.010463
C35   C     C_R   0.710244 0.500970 0.043515 0.008722
C36   C     C_R   0.787898 0.995686 0.955517 0.010176
C37   C     C_R   0.725279 0.036116 0.143781 0.554755
C38   C     C_R   0.210246 0.000965 0.043521 0.008361
C39   C     C_R   0.183987 0.621432 0.954705 -0.161215
C40   C     C_R   0.814745 0.624218 0.044330 -0.166210
C41   C     C_R   0.683977 0.121406 0.954695 -0.160800
C42   C     C_R   0.314749 0.124207 0.044333 -0.165900
C43   C     C_R   0.182276 0.617008 0.028592 -0.174422
C44   C     C_R   0.817207 0.617347 0.970744 -0.157771
C45   C     C_R   0.682263 0.116977 0.028582 -0.174582
C46   C     C_R   0.317215 0.117325 0.970749 -0.157775
C47   C     C_3   0.360443 0.466459 0.038353 -0.276690
C48   C     C_R   0.774626 0.536236 0.855991 0.546170
C49   C     C_3   0.638054 0.472545 0.960472 -0.271540
C50   C     C_3   0.860437 0.966455 0.038349 -0.277023
C51   C     C_3   0.138053 0.972554 0.960483 -0.270190
C52   C     C_3   0.366016 0.476795 0.957385 -0.277775
C53   C     C_3   0.631770 0.492765 0.040514 -0.272691
C54   C     C_3   0.866011 0.976793 0.957381 -0.277039
C55   C     C_3   0.131772 0.992770 0.040524 -0.273375
C56   C     C_R   0.242824 0.575442 0.918162 0.016732
C57   C     C_R   0.756187 0.578556 0.080866 0.013109
C58   C     C_R   0.742818 0.075427 0.918155 0.017420
C59   C     C_R   0.225284 0.536129 0.143786 0.547433
C60   C     C_R   0.256189 0.078552 0.080869 0.013372
C61   C     C_R   0.504166 0.834083 0.424921 0.009568
C62   C     C_R   0.490237 0.822007 0.573496 0.023398
C63   C     C_R   0.014013 0.336586 0.427188 0.023691
C64   C     C_R   0.988406 0.329385 0.573539 0.029008
C65   C     C_R   0.438502 0.817958 0.862150 0.561194
C66   C     C_R   0.529199 0.821590 0.144726 0.546856
C67   C     C_R   0.938498 0.317958 0.862150 0.561113
C68   C     C_R   0.029193 0.321592 0.144729 0.545187
C69   C     C_R   0.464831 0.741252 0.455315 0.015859
C70   C     C_3   0.526153 0.768464 0.966733 -0.112883
C71   C     C_R   0.458809 0.735151 0.528658 0.049908
C72   C     C_R   0.947716 0.306480 0.451174 -0.025501
C73   C     C_R   0.935315 0.303206 0.523042 0.010805
C74   C     C_R   0.530007 0.913793 0.544228 -0.185750
C75   C     C_R   0.535399 0.921310 0.470182 -0.182656
C76   C     C_R   0.053571 0.372071 0.550256 -0.189684
C77   C     C_R   0.066439 0.375504 0.476762 -0.159909
C78   C     C_3   0.475004 0.606999 0.449065 -0.271781
C79   C     C_3   0.473393 0.601624 0.529304 -0.260387
C80   C     C_3   0.901243 0.200326 0.435640 -0.272682
C81   C     C_3   0.483196 0.714634 0.028078 -0.126388
C82   C     C_3   0.886837 0.197611 0.515238 -0.242408
C83   C     C_R   0.247207 0.584889 0.424741 -0.005685
C84   C     C_R   0.778040 0.523469 0.564202 0.029617
C85   C     C_R   0.724090 0.026496 0.436497 -0.000108
C86   C     C_R   0.278018 0.018184 0.563466 0.012647
C87   C     C_R   0.204586 0.670122 0.458848 -0.018185
C88   C     C_R   0.834934 0.528282 0.518245 -0.044990
C89   C     C_R   0.680817 0.106716 0.472047 -0.036450
C90   C     C_R   0.335231 0.036960 0.519717 -0.040909
C91   C     C_R   0.203652 0.672771 0.531563 0.097101
C92   C     C_3   0.026145 0.268476 0.966737 -0.112754
C93   C     C_R   0.824636 0.550717 0.446638 0.031236
C94   C     C_R   0.677149 0.108583 0.543672 0.044661
C95   C     C_R   0.326373 0.055905 0.447646 0.035787
C96   C     C_R   0.292812 0.516365 0.539876 -0.173881
C97   C     C_R   0.698138 0.550487 0.464151 -0.163099
C98   C     C_R   0.780284 0.980190 0.551526 -0.177211
C99   C     C_R   0.200310 0.027151 0.459839 -0.159970
C100  C     C_R   0.294020 0.512499 0.465828 -0.166593
C101  C     C_R   0.709288 0.532903 0.536382 -0.093797
C102  C     C_R   0.772355 0.957344 0.477926 -0.164095
C103  C     C_3   0.983189 0.214638 0.028082 -0.126249
C104  C     C_R   0.210407 0.007279 0.532471 -0.115068
C105  C     C_3   0.126105 0.693538 0.454120 -0.232918
C106  C     C_3   0.901524 0.600865 0.522109 -0.215805
C107  C     C_3   0.629941 0.207580 0.458319 -0.216164
C108  C     C_3   0.395642 0.122748 0.526752 -0.215161
C109  C     C_3   0.125473 0.690378 0.534839 0.154495
C110  C     C_3   0.894283 0.616585 0.441754 0.155285
C111  C     C_3   0.619183 0.204735 0.538866 0.162378
C112  C     C_3   0.392842 0.131579 0.445901 0.160459
C113  C     C_R   0.259655 0.633610 0.850490 0.537744
C114  C     C_R   0.235271 0.554824 0.067571 0.011314
C115  C     C_R   0.740124 0.634627 0.149188 0.545174
C116  C     C_R   0.759653 0.133606 0.850487 0.537396
C117  C     C_R   0.240123 0.134630 0.149187 0.542924
C118  C     C_R   0.246530 0.595938 0.573001 -0.015531
C119  C     C_R   0.755793 0.569942 0.419539 0.021156
C120  C     C_R   0.735571 0.065803 0.583883 0.005450
C121  C     C_R   0.257505 0.064506 0.418227 0.020413
C122  C     C_R   0.290029 0.998965 0.638499 0.574354
C123  C     C_R   0.711160 0.002068 0.362052 0.567584
C124  C     C_R   0.790214 0.499440 0.638464 0.579030
Cr1   Cr    Cr6+3 0.229640 0.835880 0.747370 1.037882
Cr2   Cr    Cr6+3 0.614230 0.677220 0.250660 0.993057
Cr3   Cr    Cr6+3 0.885770 0.177220 0.749340 0.997541
Cr4   Cr    Cr6+3 0.114230 0.177220 0.250660 1.000194
Cr5   Cr    Cr6+3 0.770360 0.835880 0.252630 1.006795
Cr6   Cr    Cr6+3 0.729640 0.335880 0.747370 1.006539
Cr7   Cr    Cr6+3 0.270360 0.335880 0.252630 1.024567
Cr8   Cr    Cr6+3 0.387390 0.989720 0.750850 0.995487
Cr9   Cr    Cr6+3 0.612610 0.989720 0.249150 0.994922
Cr10  Cr    Cr6+3 0.887390 0.489720 0.750850 1.000942
Cr11  Cr    Cr6+3 0.112610 0.489720 0.249150 0.992650
Cr12  Cr    Cr6+3 0.385770 0.677220 0.749340 0.992185
H1    H     H_    0.361469 0.737547 0.993430 0.114709
H2    H     H_    0.831750 0.224125 0.527605 0.153798
H3    H     H_    0.526596 0.577708 0.427980 0.153421
H4    H     H_    0.429651 0.547498 0.550388 0.148801
H5    H     H_    0.428588 0.564865 0.422439 0.130895
H6    H     H_    0.525862 0.579964 0.553930 0.127334
H7    H     H_    0.853984 0.225710 0.402732 0.146777
H8    H     H_    0.907596 0.114720 0.542380 0.157520
H9    H     H_    0.326985 0.456995 0.571162 0.128191
H10   H     H_    0.644427 0.564581 0.445514 0.132129
H11   H     H_    0.823687 0.938605 0.581158 0.133106
H12   H     H_    0.595159 0.924234 0.017643 0.128590
H13   H     H_    0.146487 0.028989 0.439060 0.145965
H14   H     H_    0.327045 0.445675 0.441107 0.202142
H15   H     H_    0.664241 0.535977 0.570824 0.159887
H16   H     H_    0.805613 0.891274 0.453073 0.214340
H17   H     H_    0.164555 0.995873 0.565197 0.200925
H18   H     H_    0.094270 0.618345 0.430788 0.125838
H19   H     H_    0.949134 0.549086 0.538186 0.108286
H20   H     H_    0.582675 0.181569 0.426127 0.089151
H21   H     H_    0.443977 0.081668 0.548987 0.108517
H22   H     H_    0.114336 0.784685 0.431124 0.143867
H23   H     H_    0.861460 0.237539 0.993432 0.115081
H24   H     H_    0.894257 0.686679 0.552660 0.157455
H25   H     H_    0.657136 0.290583 0.439217 0.164544
H26   H     H_    0.380251 0.208662 0.553931 0.162014
H27   H     H_    0.098629 0.610529 0.558572 0.099324
H28   H     H_    0.933810 0.562030 0.411646 0.100169
H29   H     H_    0.565904 0.167149 0.550132 0.071072
H30   H     H_    0.435582 0.079711 0.419037 0.101838
H31   H     H_    0.394561 0.937986 0.080280 0.119757
H32   H     H_    0.471352 0.039579 0.961191 0.112882
H33   H     H_    0.894544 0.437980 0.080285 0.119230
H34   H     H_    0.095142 0.424260 0.017648 0.128928
H35   H     H_    0.971331 0.539584 0.961197 0.113527
H36   H     H_    0.565387 0.723499 0.932549 0.122135
H37   H     H_    0.488502 0.619938 0.047297 0.115830
H38   H     H_    0.065381 0.223513 0.932556 0.122952
H39   H     H_    0.988499 0.119941 0.047299 0.115727
H40   H     H_    0.142894 0.673154 0.927582 0.138397
H41   H     H_    0.856161 0.674493 0.071578 0.131380
H42   H     H_    0.642883 0.173127 0.927570 0.137208
H43   H     H_    0.356164 0.174485 0.071580 0.132317
H44   H     H_    0.139045 0.662825 0.054742 0.139804
H45   H     H_    0.556258 0.977859 0.579133 0.108271
H46   H     H_    0.860633 0.662081 0.944671 0.132732
H47   H     H_    0.639028 0.162785 0.054731 0.139876
H48   H     H_    0.360644 0.162051 0.944676 0.132400
H49   H     H_    0.874592 0.875254 0.059048 0.138180
H50   H     H_    0.122924 0.879438 0.943632 0.137074
H51   H     H_    0.374593 0.375255 0.059051 0.138734
H52   H     H_    0.622933 0.379425 0.943620 0.135958
H53   H     H_    0.383821 0.542543 0.069290 0.131812
H54   H     H_    0.614757 0.545100 0.926666 0.130388
H55   H     H_    0.883810 0.042544 0.069286 0.132073
H56   H     H_    0.568156 0.989415 0.447923 0.134892
H57   H     H_    0.114759 0.045118 0.926682 0.132271
H58   H     H_    0.396381 0.556275 0.938941 0.162450
H59   H     H_    0.606831 0.580633 0.054415 0.164102
H60   H     H_    0.896372 0.056278 0.938938 0.162712
H61   H     H_    0.106833 0.080641 0.054427 0.164119
H62   H     H_    0.381116 0.389661 0.931674 0.131704
H63   H     H_    0.611802 0.411986 0.069421 0.130850
H64   H     H_    0.881117 0.889661 0.931670 0.132663
H65   H     H_    0.111802 0.911990 0.069431 0.130037
H66   H     H_    0.015603 0.741871 0.611817 0.119063
H67   H     H_    0.094763 0.397253 0.588310 0.111853
H68   H     H_    0.006443 0.804485 0.521562 0.132968
H69   H     H_    0.022175 0.902378 0.596591 0.142207
H70   H     H_    0.929105 0.720448 0.321969 0.130203
H71   H     H_    0.992686 0.757083 0.392894 0.085705
H72   H     H_    0.932171 0.870404 0.359945 0.133609
H73   H     H_    0.574571 0.274440 0.661206 0.121263
H74   H     H_    0.530380 0.362710 0.590990 0.081497
H75   H     H_    0.595329 0.431324 0.649158 0.136239
H76   H     H_    0.468311 0.236568 0.353905 0.106294
H77   H     H_    0.483661 0.319572 0.437818 0.111040
H78   H     H_    0.118436 0.401398 0.458869 0.131644
H79   H     H_    0.432076 0.383595 0.365233 0.130178
H80   H     H_    0.930937 0.119424 0.416698 0.152963
O1    O     O_R   0.214300 0.709080 0.827500 -0.528000
O2    O     O_R   0.543340 0.717710 0.330180 -0.524823
O3    O     O_R   0.956660 0.217710 0.669820 -0.513244
O4    O     O_R   0.043340 0.217710 0.330180 -0.518097
O5    O     O_R   0.320590 0.625770 0.672930 -0.509340
O6    O     O_R   0.679410 0.625770 0.327070 -0.522481
O7    O     O_R   0.820590 0.125770 0.672930 -0.517154
O8    O     O_R   0.179410 0.125770 0.327070 -0.521547
O9    O     O_3   0.334270 0.834280 0.749190 -0.291731
O10   O     O_3   0.665730 0.834280 0.250810 -0.265458
O11   O     O_3   0.834270 0.334280 0.749190 -0.289150
O12   O     O_R   0.785700 0.709080 0.172500 -0.537302
O13   O     O_3   0.165730 0.334280 0.250810 -0.250541
O14   O     O_R   0.236190 0.958390 0.823150 -0.495730
O15   O     O_R   0.763810 0.958390 0.176850 -0.495384
O16   O     O_R   0.736190 0.458390 0.823150 -0.500161
O17   O     O_R   0.263810 0.458390 0.176850 -0.500052
O18   O     O_R   0.332090 0.075280 0.831290 -0.532672
O19   O     O_R   0.667910 0.075280 0.168710 -0.524491
O20   O     O_R   0.832090 0.575280 0.831290 -0.531156
O21   O     O_R   0.167910 0.575280 0.168710 -0.528849
O22   O     O_R   0.446280 0.918040 0.826620 -0.503714
O23   O     O_R   0.714300 0.209080 0.827500 -0.534201
O24   O     O_R   0.553720 0.918040 0.173380 -0.504100
O25   O     O_R   0.946280 0.418040 0.826620 -0.502329
O26   O     O_R   0.053720 0.418040 0.173380 -0.505928
O27   O     O_R   0.457080 0.716270 0.831760 -0.526370
O28   O     O_R   0.542920 0.716270 0.168240 -0.528655
O29   O     O_R   0.957080 0.216270 0.831760 -0.523315
O30   O     O_R   0.042920 0.216270 0.168240 -0.530146
O31   O     O_R   0.320980 0.624440 0.823040 -0.518758
O32   O     O_R   0.679020 0.624440 0.176960 -0.500725
O33   O     O_R   0.820980 0.124440 0.823040 -0.517746
O34   O     O_R   0.285700 0.209080 0.172500 -0.534391
O35   O     O_R   0.179020 0.124440 0.176960 -0.504100
O36   O     O_R   0.213880 0.710510 0.665560 -0.482447
O37   O     O_R   0.786120 0.710510 0.334440 -0.481099
O38   O     O_R   0.713880 0.210510 0.665560 -0.477060
O39   O     O_R   0.286120 0.210510 0.334440 -0.453650
O40   O     O_R   0.235800 0.959720 0.673040 -0.487589
O41   O     O_R   0.764200 0.959720 0.326960 -0.501423
O42   O     O_R   0.735800 0.459720 0.673040 -0.489959
O43   O     O_R   0.264200 0.459720 0.326960 -0.499818
O44   O     O_R   0.331670 0.076720 0.669350 -0.523519
O45   O     O_R   0.445900 0.919370 0.676500 -0.517200
O46   O     O_R   0.668330 0.076720 0.330650 -0.524709
O47   O     O_R   0.831670 0.576720 0.669350 -0.526342
O48   O     O_R   0.168330 0.576720 0.330650 -0.530206
O49   O     O_3   0.108448 0.803271 0.565689 -0.557755
O50   O     O_3   0.887961 0.740762 0.423986 -0.571402
O51   O     O_3   0.635531 0.316257 0.572218 -0.540068
O52   O     O_3   0.382066 0.252202 0.423084 -0.550759
O53   O     O_R   0.554100 0.919370 0.323500 -0.528764
O54   O     O_R   0.945900 0.419370 0.676500 -0.516935
O55   O     O_R   0.054100 0.419370 0.323500 -0.520453
O56   O     O_R   0.456660 0.717710 0.669820 -0.518736

loop_
_geom_bond_atom_site_label_1
_geom_bond_atom_site_label_2
_ccdc_geom_bond_type
C18   C70   S    
C83   C87   A    
Cr12  O9    S    
C123  O41   A    
C4    O56   A    
Cr10  O47   S    
C39   H40   S    
C87   C91   A    
C35   C53   S    
C100  H14   S    
C97   H10   S    
C14   C18   S    
C13   C32   A    
C20   H34   S    
C86   C104  A    
C78   H3    S    
Cr4   O8    S    
C12   H31   S    
C71   C79   S    
C117  O35   A    
C76   H67   S    
C8    C118  S    
C90   C95   A    
C80   H80   S    
C74   H45   S    
C11   C121  S    
C86   C90   A    
C61   C75   A    
C28   H75   S    
C34   C56   A    
C96   H9    S    
C99   H13   S    
C116  O23   A    
C45   H47   S    
C50   C54   S    
C28   O51   S    
C66   O28   A    
C32   C36   A    
C14   C21   S    
C96   C118  A    
C16   C20   S    
C26   H66   S    
C41   C58   A    
Cr5   O41   S    
C95   C112  S    
C43   C114  A    
C122  O40   A    
C106  H24   S    
C15   C25   S    
C79   H6    S    
C6    O54   A    
C98   H11   S    
C123  O46   A    
C6    C64   S    
C15   C16   S    
C55   H65   S    
C4    C62   S    
C94   C111  S    
C54   H64   S    
C15   H33   S    
C92   H38   S    
C27   H72   S    
Cr9   O19   S    
C3    C83   S    
C46   H48   S    
C89   C94   A    
C69   C71   A    
C70   C81   S    
Cr8   O22   S    
C53   H59   S    
C22   C66   S    
C70   H36   S    
C34   C52   S    
C92   C103  S    
C111  H29   S    
C65   O27   A    
C15   C19   S    
C94   C120  A    
C1    O14   A    
C38   C55   S    
C107  H25   S    
C2    C44   A    
C4    O45   A    
Cr5   O10   S    
C86   C122  S    
C11   O39   A    
C56   C113  S    
Cr11  O13   S    
C85   C123  S    
Cr3   O29   S    
Cr9   O24   S    
C104  H17   S    
Cr4   O4    S    
C51   C55   S    
C107  H20   S    
Cr7   O34   S    
Cr3   O7    S    
C93   C110  S    
C99   C121  A    
C26   O49   S    
C21   C65   S    
C95   C121  A    
C63   C77   A    
C99   C104  A    
C66   O24   A    
C124  O42   A    
Cr11  O48   S    
C36   C54   S    
C18   C22   S    
C58   C116  S    
C84   C101  A    
Cr8   O44   S    
C69   C78   S    
C59   O17   A    
C25   C68   S    
C19   C103  S    
C31   C49   S    
Cr1   O9    S    
C9    O6    A    
C113  O1    A    
Cr6   O42   S    
C82   H8    S    
C3    O43   A    
C77   H78   S    
C37   O19   A    
C5    O2    A    
C67   O25   A    
Cr9   O46   S    
Cr6   O23   S    
C32   C50   S    
C43   H44   S    
Cr4   O35   S    
C54   H60   S    
C74   C75   A    
C30   C34   A    
Cr10  O20   S    
Cr3   O3    S    
C53   H63   S    
C22   C81   S    
C41   H42   S    
C52   H58   S    
Cr9   O10   S    
Cr2   O10   S    
C57   C115  S    
Cr1   O14   S    
C51   H57   S    
C78   H5    S    
C42   C60   A    
C110  H28   S    
C78   C79   S    
C25   C103  S    
C39   C43   A    
C49   H54   S    
C124  O47   A    
C2    C48   S    
C28   H73   S    
C113  O31   A    
Cr2   O32   S    
C101  H15   S    
Cr7   O17   S    
C33   C51   S    
Cr11  O21   S    
Cr12  O31   S    
C2    C31   A    
Cr3   O33   S    
C42   H43   S    
C81   H37   S    
C47   H53   S    
Cr1   O40   S    
C26   H68   S    
Cr8   O18   S    
Cr10  O25   S    
C80   H7    S    
C88   C106  S    
C30   C47   S    
C29   H77   S    
C105  H22   S    
C87   C105  S    
Cr6   O16   S    
C1    O18   A    
C64   C73   A    
Cr9   O53   S    
C112  H30   S    
C89   C107  S    
C103  H39   S    
C64   C76   A    
C91   C118  A    
C68   O26   A    
C60   C117  S    
Cr12  O56   S    
C39   C56   A    
C76   C77   A    
C50   H55   S    
C7    C63   S    
Cr11  O55   S    
C48   O20   A    
C10   O7    A    
C1    C24   S    
C38   C60   A    
C7    O4    A    
Cr6   O38   S    
C48   O16   A    
C122  O44   A    
C109  O49   S    
C12   C14   S    
Cr6   O11   S    
C116  O33   A    
C16   C23   S    
C90   C108  S    
C83   C100  A    
C42   C46   A    
C9    C119  S    
C12   C22   S    
Cr7   O43   S    
C65   O22   A    
C20   C92   S    
C26   H69   S    
C68   O30   A    
Cr2   O28   S    
Cr7   O39   S    
C14   H32   S    
Cr4   O13   S    
C44   H46   S    
C73   C82   S    
C110  O50   S    
Cr11  O26   S    
C29   H76   S    
C115  O32   A    
C30   C114  A    
C61   C69   A    
Cr10  O54   S    
C37   O15   A    
C105  C109  S    
C88   C93   A    
C8    O36   A    
C85   C89   A    
C40   C57   A    
Cr12  O27   S    
C59   O21   A    
C10   O38   A    
C107  C111  S    
Cr1   O36   S    
C9    O37   A    
C84   C88   A    
Cr5   O37   S    
C72   C73   A    
Cr8   O45   S    
C11   O8    A    
C117  O34   A    
Cr2   O6    S    
C98   C120  A    
C47   C52   S    
C108  H21   S    
C84   C124  S    
C63   C72   A    
Cr5   O15   S    
C36   C58   A    
C33   C38   A    
C112  O52   S    
C21   C70   S    
C35   C57   A    
C27   H70   S    
Cr4   O30   S    
Cr10  O11   S    
C91   C109  S    
C7    O55   A    
C75   H56   S    
C28   H74   S    
C19   H23   S    
C115  O12   A    
C72   C80   S    
C51   H50   S    
C98   C102  A    
Cr8   O9    S    
C82   H2    S    
C12   C17   S    
C13   C45   A    
C5    C61   S    
C67   O29   A    
C16   H35   S    
Cr7   O13   S    
C55   H61   S    
C49   H52   S    
C108  H26   S    
C13   C37   S    
Cr3   O11   S    
C59   C114  S    
C49   C53   S    
C96   C100  A    
C31   C35   A    
C97   C119  A    
C80   C82   S    
C62   C71   A    
C105  H18   S    
C109  H27   S    
C17   C81   S    
Cr12  O5    S    
C5    O53   A    
C17   C21   S    
C29   H79   S    
C23   C67   S    
C85   C102  A    
C18   H12   S    
C111  O51   S    
C40   H41   S    
C27   O50   S    
C108  C112  S    
C19   C23   S    
C40   C44   A    
C52   H62   S    
C6    O3    A    
C79   H4    S    
C27   H71   S    
C106  C110  S    
C106  H19   S    
C20   C25   S    
C3    O48   A    
C29   O52   S    
C41   C45   A    
C23   C92   S    
C62   C74   A    
C17   H1    S    
C93   C119  A    
Cr5   O12   S    
C50   H49   S    
C47   H51   S    
C10   C120  S    
C97   C101  A    
C8    O5    A    
Cr2   O2    S    
C24   C33   A    
C102  H16   S    
C24   C46   A    
Cr1   O1    S    
