data_mof_unit_66491.cif
_audit_creation_date              2013-03-05T15:56:23-0500
_audit_creation_method            fapswitch 2.2
_symmetry_space_group_name_H-M    P1
_symmetry_Int_Tables_number       1
_space_group_crystal_system       triclinic
_cell_length_a                    23.541319
_cell_length_b                    23.540976
_cell_length_c                    46.73063
_cell_angle_alpha                 89.450554
_cell_angle_beta                  90.000586
_cell_angle_gamma                 90.000224
_cell_volume                      25896.2526479

loop_
_atom_site_label
_atom_site_type_symbol
_atom_site_description
_atom_site_fract_x
_atom_site_fract_y
_atom_site_fract_z
_atom_type_partial_charge
O1    O     O_R   0.953170 0.417210 0.499940 -0.613043
O2    O     O_R   0.582790 0.953170 0.499940 -0.613839
O3    O     O_R   0.046830 0.582790 0.499940 -0.613650
O4    O     O_R   0.417210 0.046830 0.499940 -0.612795
O5    O     O_R   0.953170 0.582790 0.500060 -0.613049
O6    O     O_R   0.582790 0.046830 0.500060 -0.613847
O7    O     O_R   0.046830 0.417210 0.500060 -0.613622
O8    O     O_R   0.417210 0.953170 0.500060 -0.612805
O9    O     O_R   0.453170 0.917210 0.999940 -0.612868
O10   O     O_R   0.082790 0.453170 0.999940 -0.614052
O11   O     O_R   0.546830 0.082790 0.999940 -0.614489
O12   O     O_R   0.917210 0.546830 0.999940 -0.613199
O13   O     O_R   0.453170 0.082790 0.000060 -0.612814
O14   O     O_R   0.082790 0.546830 0.000060 -0.614135
O15   O     O_R   0.546830 0.917210 0.000060 -0.614473
O16   O     O_R   0.917210 0.453170 0.000060 -0.613252
C1    C     C_R   0.000001 0.390223 0.499980 0.906792
C2    C     C_R   0.609777 1.000000 0.500000 0.905468
C3    C     C_R   0.000001 0.609777 0.500019 0.906747
C4    C     C_R   0.390222 1.000000 0.500000 0.908522
C5    C     C_R   0.500002 0.890223 0.999969 0.908299
C6    C     C_R   0.109776 0.500000 0.999999 0.907750
C7    C     C_R   0.500002 0.109777 0.000031 0.908329
C8    C     C_R   0.890222 0.500000 1.000000 0.909189
O17   O     O_R   0.953160 0.500010 0.458010 -0.618548
O18   O     O_R   0.499990 0.953160 0.458010 -0.618484
O19   O     O_R   0.046840 0.499990 0.458010 -0.619498
O20   O     O_R   0.500010 0.046840 0.458010 -0.620055
O21   O     O_R   0.953160 0.499990 0.541990 -0.618725
O22   O     O_R   0.499990 0.046840 0.541990 -0.618425
O23   O     O_R   0.046840 0.500010 0.541990 -0.619737
O24   O     O_R   0.500010 0.953160 0.541990 -0.619973
O25   O     O_R   0.453160 0.000010 0.958010 -0.618642
O26   O     O_R   0.999990 0.453160 0.958010 -0.618221
O27   O     O_R   0.546840 0.999990 0.958010 -0.620484
O28   O     O_R   0.000010 0.546840 0.958010 -0.620983
O29   O     O_R   0.453160 0.999990 0.041990 -0.618560
O30   O     O_R   0.999990 0.546840 0.041990 -0.618443
O31   O     O_R   0.546840 0.000010 0.041990 -0.620387
O32   O     O_R   0.000010 0.453160 0.041990 -0.621226
C9    C     C_R   0.000103 0.499544 0.444379 0.889838
C10   C     C_R   0.500427 0.000359 0.444365 0.890081
C11   C     C_R   0.000106 0.500472 0.555626 0.890072
C12   C     C_R   0.500422 0.999641 0.555633 0.889996
C13   C     C_R   0.500052 0.999489 0.944380 0.890476
C14   C     C_R   0.000496 0.500305 0.944381 0.890679
C15   C     C_R   0.500051 0.000496 0.055619 0.890373
C16   C     C_R   0.000533 0.499691 0.055622 0.890966
Zn1   Zn    Zn3+2 0.937490 0.500000 0.500000 0.968968
Zn2   Zn    Zn3+2 0.500000 0.937490 0.500000 0.968537
Zn3   Zn    Zn3+2 0.062510 0.500000 0.500000 0.968335
Zn4   Zn    Zn3+2 0.500000 0.062510 0.500000 0.968529
Zn5   Zn    Zn3+2 0.437490 0.000000 0.000000 0.966624
Zn6   Zn    Zn3+2 0.000000 0.437490 0.000000 0.964917
Zn7   Zn    Zn3+2 0.562510 0.000000 0.000000 0.963651
Zn8   Zn    Zn3+2 0.000000 0.562510 0.000000 0.964918
Zn9   Zn    Zn3+2 0.000000 1.000000 0.468500 0.971603
Zn10  Zn    Zn3+2 0.000000 1.000000 0.531500 0.971722
Zn11  Zn    Zn3+2 0.500000 0.500000 0.968500 0.977417
Zn12  Zn    Zn3+2 0.500000 0.500000 0.031500 0.977506
C17   C     C_R   0.016512 0.445930 0.190554 0.500327
C18   C     C_R   0.552122 0.019025 0.190173 0.500645
C19   C     C_R   0.054987 0.539183 0.190122 0.499711
C20   C     C_R   0.457907 0.055065 0.189948 0.499658
C21   C     C_R   0.017691 0.553888 0.809454 0.500521
C22   C     C_R   0.552188 0.981400 0.809822 0.500580
C23   C     C_R   0.054188 0.459842 0.809920 0.499717
C24   C     C_R   0.458257 0.944627 0.810039 0.499657
C25   C     C_R   0.552971 0.993518 0.691470 0.505997
C26   C     C_R   0.004704 0.554437 0.691185 0.506137
C27   C     C_R   0.457666 0.959038 0.689794 0.511548
C28   C     C_R   0.038970 0.459050 0.689795 0.511528
C29   C     C_R   0.552915 0.006818 0.308519 0.505989
C30   C     C_R   0.003783 0.445412 0.308846 0.506165
C31   C     C_R   0.457353 0.040576 0.310193 0.511539
C32   C     C_R   0.040026 0.540068 0.310250 0.511550
N1    N     N_R   0.033081 0.493688 0.176082 -0.342066
N2    N     N_R   0.503978 0.034302 0.175821 -0.342021
N3    N     N_R   0.033249 0.505809 0.823944 -0.342084
N4    N     N_R   0.504159 0.965748 0.824170 -0.342010
N5    N     N_R   0.504706 0.980966 0.676786 -0.343783
N6    N     N_R   0.017085 0.506126 0.676677 -0.343780
N7    N     N_R   0.504553 0.018997 0.323202 -0.343798
N8    N     N_R   0.017189 0.493445 0.323360 -0.343752
C33   C     C_R   0.050678 0.541939 0.220121 -0.071060
C34   C     C_R   0.455240 0.050828 0.219993 -0.071183
C35   C     C_R   0.027331 0.440662 0.219997 -0.065661
C36   C     C_R   0.557086 0.030125 0.219524 -0.065566
C37   C     C_R   0.049779 0.457118 0.779924 -0.071005
C38   C     C_R   0.455576 0.948831 0.779994 -0.071195
C39   C     C_R   0.028580 0.558872 0.780006 -0.065578
C40   C     C_R   0.557256 0.970325 0.780473 -0.065596
C41   C     C_R   0.456993 0.949915 0.719665 -0.056433
C42   C     C_R   0.048265 0.458406 0.719607 -0.056704
C43   C     C_R   0.557814 0.979154 0.720699 -0.071483
C44   C     C_R   0.019295 0.559312 0.720291 -0.071433
C45   C     C_R   0.456624 0.049712 0.280322 -0.056469
C46   C     C_R   0.049279 0.540559 0.280436 -0.056586
C47   C     C_R   0.557669 0.021261 0.279296 -0.071488
C48   C     C_R   0.018147 0.440290 0.279721 -0.071415
C49   C     C_R   0.038813 0.490870 0.235160 -0.083472
C50   C     C_R   0.506587 0.040372 0.234859 -0.083583
C51   C     C_R   0.038968 0.508397 0.764865 -0.083567
C52   C     C_R   0.506851 0.959676 0.765133 -0.083556
C53   C     C_R   0.507278 0.962576 0.735121 -0.097318
C54   C     C_R   0.035843 0.508762 0.734874 -0.097316
C55   C     C_R   0.507015 0.037453 0.264870 -0.097317
C56   C     C_R   0.035748 0.490507 0.265153 -0.097332
C57   C     C_R   0.058899 0.593025 0.235378 0.132735
C58   C     C_R   0.403952 0.057786 0.235454 0.132586
C59   C     C_R   0.026028 0.387818 0.234699 0.170298
C60   C     C_R   0.609939 0.030292 0.233976 0.170507
C61   C     C_R   0.056883 0.405838 0.764688 0.132706
C62   C     C_R   0.404354 0.941465 0.764528 0.132579
C63   C     C_R   0.028387 0.611707 0.765277 0.170384
C64   C     C_R   0.610118 0.970563 0.766030 0.170454
C65   C     C_R   0.407643 0.931105 0.734796 0.176078
C66   C     C_R   0.067048 0.409034 0.734876 0.175758
C67   C     C_R   0.610687 0.979284 0.735878 0.150287
C68   C     C_R   0.019468 0.612227 0.735177 0.150310
C69   C     C_R   0.407141 0.068150 0.265188 0.176083
C70   C     C_R   0.069070 0.589551 0.265182 0.175809
C71   C     C_R   0.610553 0.021578 0.264129 0.150319
C72   C     C_R   0.017082 0.387423 0.264795 0.150241
O33   O     O_2   0.986799 0.405578 0.176742 -0.596187
O34   O     O_2   0.593230 0.990271 0.176357 -0.595244
O35   O     O_2   0.081808 0.580328 0.175049 -0.597224
O36   O     O_2   0.416090 0.080726 0.174909 -0.598531
O37   O     O_2   0.988850 0.594880 0.823252 -0.596229
O38   O     O_2   0.593062 0.010479 0.823640 -0.595241
O39   O     O_2   0.080158 0.418172 0.825008 -0.597212
O40   O     O_2   0.416631 0.918646 0.825076 -0.598553
O41   O     O_2   0.594770 0.021541 0.677603 -0.595539
O42   O     O_2   0.976674 0.596269 0.677279 -0.595885
O43   O     O_2   0.411551 0.948450 0.673655 -0.589284
O44   O     O_2   0.049386 0.412888 0.673833 -0.588995
O45   O     O_2   0.594914 0.979081 0.322377 -0.595499
O46   O     O_2   0.974985 0.404136 0.322770 -0.595966
O47   O     O_2   0.411154 0.050808 0.326329 -0.589256
O48   O     O_2   0.051417 0.585988 0.326222 -0.589090
C73   C     C_R   0.048303 0.461411 0.370873 0.030051
C74   C     C_R   0.535965 0.050696 0.370424 0.030468
C75   C     C_R   0.966726 0.525690 0.366683 0.049826
C76   C     C_R   0.473805 0.967508 0.366907 0.049126
C77   C     C_R   0.048881 0.537598 0.629187 0.029869
C78   C     C_R   0.536329 0.949509 0.629557 0.030527
C79   C     C_R   0.966095 0.474872 0.633315 0.049807
C80   C     C_R   0.473597 0.032263 0.633091 0.049130
C81   C     C_R   0.539454 0.942926 0.872553 0.045862
C82   C     C_R   0.056276 0.540792 0.872085 0.046048
C83   C     C_R   0.462445 0.012261 0.866464 0.043487
C84   C     C_R   0.986727 0.463989 0.866619 0.043554
C85   C     C_R   0.539098 0.057355 0.127431 0.045935
C86   C     C_R   0.055486 0.458249 0.127960 0.045875
C87   C     C_R   0.462615 0.987443 0.133538 0.043574
C88   C     C_R   0.987502 0.536448 0.133380 0.043340
C89   C     C_R   0.043527 0.463107 0.400500 -0.259934
C90   C     C_R   0.534890 0.045454 0.400077 -0.260020
C91   C     C_R   0.962560 0.526504 0.396550 -0.274676
C92   C     C_R   0.473557 0.962926 0.396790 -0.274184
C93   C     C_R   0.044121 0.536030 0.599558 -0.259855
C94   C     C_R   0.535207 0.954757 0.599905 -0.260058
C95   C     C_R   0.961987 0.474144 0.603443 -0.274549
C96   C     C_R   0.473318 0.036867 0.603210 -0.274246
C97   C     C_R   0.539560 0.953746 0.901812 -0.260609
C98   C     C_R   0.045756 0.540524 0.901426 -0.261410
C99   C     C_R   0.461426 0.019920 0.896091 -0.269369
C100  C     C_R   0.979381 0.462580 0.896299 -0.268893
C101  C     C_R   0.539274 0.046522 0.098172 -0.260621
C102  C     C_R   0.045014 0.458709 0.098616 -0.261328
C103  C     C_R   0.461632 0.979775 0.103912 -0.269384
C104  C     C_R   0.980189 0.537957 0.103698 -0.268823
H1    H     H_    0.073134 0.439011 0.413618 0.159089
H2    H     H_    0.558425 0.075506 0.412934 0.159483
H3    H     H_    0.929957 0.551837 0.406709 0.153932
H4    H     H_    0.449230 0.929530 0.407203 0.154855
H5    H     H_    0.074199 0.559597 0.586471 0.159608
H6    H     H_    0.558938 0.924875 0.587038 0.159296
H7    H     H_    0.928930 0.449437 0.593264 0.154389
H8    H     H_    0.448761 0.070100 0.592802 0.154687
H9    H     H_    0.568634 0.930701 0.915691 0.155428
H10   H     H_    0.068979 0.569377 0.915097 0.155288
H11   H     H_    0.431453 0.049370 0.905456 0.152752
H12   H     H_    0.949958 0.432546 0.905925 0.152690
H13   H     H_    0.568167 0.069773 0.084283 0.155200
H14   H     H_    0.067679 0.429376 0.084969 0.155887
H15   H     H_    0.431873 0.950103 0.094552 0.152532
H16   H     H_    0.951372 0.568562 0.094060 0.153275
C105  C     C_R   0.001366 0.496007 0.413339 -0.052718
C106  C     C_R   0.503365 0.002230 0.413272 -0.053749
C107  C     C_R   0.001387 0.503926 0.586679 -0.053385
C108  C     C_R   0.503390 0.997777 0.586722 -0.053505
C109  C     C_R   0.500587 0.991695 0.913562 -0.052463
C110  C     C_R   0.007917 0.501397 0.913509 -0.052514
C111  C     C_R   0.500571 0.008287 0.086434 -0.052196
C112  C     C_R   0.007952 0.498553 0.086504 -0.053227
C113  C     C_R   0.010295 0.493374 0.353832 0.247107
C114  C     C_R   0.504813 0.012044 0.353709 0.247228
C115  C     C_R   0.010240 0.506351 0.646200 0.246961
C116  C     C_R   0.504912 0.987934 0.646280 0.247283
C117  C     C_R   0.501522 0.973172 0.854586 0.232129
C118  C     C_R   0.025831 0.503098 0.854403 0.232149
C119  C     C_R   0.501400 0.026833 0.145406 0.232038
C120  C     C_R   0.025783 0.496559 0.145619 0.232411
C121  C     C_1   0.000005 0.329766 0.499825 -0.192694
C122  C     C_1   0.670236 0.000000 0.500000 -0.192357
C123  C     C_1   0.000005 0.670234 0.500173 -0.192677
C124  C     C_1   0.329762 1.000000 0.500000 -0.192937
C125  C     C_1   0.500007 0.829767 0.999809 -0.190796
C126  C     C_1   0.170235 0.500000 0.999999 -0.189865
C127  C     C_1   0.500007 0.170233 0.000191 -0.190812
C128  C     C_1   0.829761 0.500000 1.000000 -0.191726
C129  C     C_1   0.000008 0.278848 0.499695 0.007606
C130  C     C_1   0.721156 1.000000 0.500000 0.007542
C131  C     C_1   0.000008 0.721151 0.500304 0.007599
C132  C     C_1   0.278842 1.000000 0.500000 0.007801
C133  C     C_1   0.500010 0.778849 0.999678 0.010214
C134  C     C_1   0.221155 0.500000 0.999999 0.010942
C135  C     C_1   0.500010 0.221151 0.000322 0.010225
C136  C     C_1   0.778841 0.500000 0.000000 0.009408
C137  C     C_1   0.000008 0.219342 0.499608 0.008913
C138  C     C_1   0.780664 1.000000 0.500000 0.008892
C139  C     C_1   0.000007 0.780658 0.500392 0.008912
C140  C     C_1   0.219335 0.000000 0.500000 0.009035
C141  C     C_1   0.500011 0.719343 0.999597 0.011512
C142  C     C_1   0.280662 0.500000 0.999999 0.012163
C143  C     C_1   0.500010 0.280657 0.000403 0.011522
C144  C     C_1   0.719334 0.500000 0.000000 0.010775
C145  C     C_1   0.000005 0.168420 0.499648 -0.184788
C146  C     C_1   0.831585 1.000000 0.500000 -0.184747
C147  C     C_1   0.000005 0.831580 0.500352 -0.184783
C148  C     C_1   0.168414 0.000000 0.500000 -0.184731
C149  C     C_1   0.500008 0.668420 0.999644 -0.182062
C150  C     C_1   0.331584 0.500000 0.999999 -0.181574
C151  C     C_1   0.500007 0.331580 0.000356 -0.182057
C152  C     C_1   0.668413 0.500000 0.000000 -0.182555
O49   O     O_R   0.081480 1.000000 0.475630 -0.608874
O50   O     O_R   0.000000 0.081480 0.475630 -0.609356
O51   O     O_R   0.918520 1.000000 0.475630 -0.608885
O52   O     O_R   0.000000 0.918520 0.475630 -0.608458
O53   O     O_R   0.081480 1.000000 0.524370 -0.608865
O54   O     O_R   0.000000 0.918520 0.524370 -0.609302
O55   O     O_R   0.918520 1.000000 0.524370 -0.608874
O56   O     O_R   0.000000 0.081480 0.524370 -0.608409
O57   O     O_R   0.581480 0.500000 0.975630 -0.608229
O58   O     O_R   0.500000 0.581480 0.975630 -0.608344
O59   O     O_R   0.418520 0.500000 0.975630 -0.607887
O60   O     O_R   0.500000 0.418520 0.975630 -0.607749
O61   O     O_R   0.581480 0.500000 0.024370 -0.608208
O62   O     O_R   0.500000 0.418520 0.024370 -0.608324
O63   O     O_R   0.418520 0.500000 0.024370 -0.607856
O64   O     O_R   0.500000 0.581480 0.024370 -0.607730
C153  C     C_R   0.107952 0.000000 0.500000 0.886028
C154  C     C_R   0.000001 0.107954 0.499881 0.886051
C155  C     C_R   0.892048 1.000000 0.500000 0.886055
C156  C     C_R   0.000001 0.892046 0.500119 0.886051
C157  C     C_R   0.607951 0.500000 0.000000 0.884950
C158  C     C_R   0.500002 0.607954 0.999881 0.885048
C159  C     C_R   0.392047 0.500000 1.000000 0.885144
C160  C     C_R   0.500002 0.392046 0.000119 0.885050
C161  C     C_3   0.047677 0.650938 0.221223 -0.351588
C162  C     C_3   0.002345 0.685012 0.237154 -0.919915
H17   H     H_    0.963705 0.658686 0.240546 0.272593
H18   H     H_    0.017988 0.699944 0.258127 0.257178
H19   H     H_    0.990439 0.723030 0.224230 0.253507
H20   H     H_    0.087500 0.675818 0.219093 0.204213
H21   H     H_    0.029957 0.646563 0.199465 0.267124
C163  C     C_3   0.346359 0.045021 0.221644 -0.352063
C164  C     C_3   0.313468 0.998866 0.237995 -0.920293
H22   H     H_    0.340781 0.960926 0.241471 0.272543
H23   H     H_    0.298135 0.014176 0.258955 0.257146
H24   H     H_    0.275774 0.985945 0.225325 0.253281
H25   H     H_    0.320457 0.084183 0.219412 0.203389
H26   H     H_    0.351196 0.027350 0.199965 0.267229
C165  C     C_3   0.045379 0.333879 0.219470 -0.366019
C166  C     C_3   0.107824 0.321301 0.226145 -0.916370
H27   H     H_    0.115612 0.315833 0.249392 0.253195
H28   H     H_    0.121094 0.281877 0.215127 0.255346
H29   H     H_    0.134755 0.356941 0.218368 0.274784
H30   H     H_    0.017967 0.297117 0.225063 0.200493
H31   H     H_    0.043294 0.337000 0.195954 0.264831
C167  C     C_3   0.663346 0.051006 0.218367 -0.366457
C168  C     C_3   0.674046 0.113883 0.224476 -0.914899
H32   H     H_    0.637599 0.139635 0.216682 0.274835
H33   H     H_    0.679316 0.122106 0.247631 0.253204
H34   H     H_    0.713034 0.128198 0.213140 0.255705
H35   H     H_    0.700883 0.024781 0.224040 0.200776
H36   H     H_    0.660400 0.048484 0.194885 0.264850
C169  C     C_3   0.044471 0.348201 0.778877 -0.351590
C170  C     C_3   0.998394 0.315058 0.762984 -0.919728
H37   H     H_    0.960329 0.342201 0.759572 0.272604
H38   H     H_    0.013687 0.299713 0.742023 0.257124
H39   H     H_    0.985681 0.277352 0.775944 0.253544
H40   H     H_    0.083766 0.322491 0.781003 0.204215
H41   H     H_    0.026897 0.352991 0.800641 0.267121
C171  C     C_3   0.346656 0.953794 0.778327 -0.352084
C172  C     C_3   0.313425 0.999688 0.761966 -0.920254
H42   H     H_    0.340446 0.037840 0.758496 0.272522
H43   H     H_    0.298237 0.984255 0.741002 0.257169
H44   H     H_    0.275617 0.012316 0.774625 0.253299
H45   H     H_    0.321053 0.914436 0.780561 0.203400
H46   H     H_    0.351342 0.971512 0.800005 0.267234
C173  C     C_3   0.048950 0.665240 0.780471 -0.366326
C174  C     C_3   0.111742 0.676202 0.773916 -0.915864
H47   H     H_    0.119821 0.681430 0.750681 0.253101
H48   H     H_    0.125937 0.715296 0.784942 0.255370
H49   H     H_    0.137698 0.639899 0.781761 0.274810
H50   H     H_    0.022536 0.702655 0.774757 0.200488
H51   H     H_    0.046557 0.662338 0.803984 0.264854
C175  C     C_3   0.663675 0.950286 0.781651 -0.366360
C176  C     C_3   0.674954 0.887523 0.775506 -0.914986
H52   H     H_    0.680342 0.879403 0.752348 0.253223
H53   H     H_    0.714047 0.873532 0.786851 0.255721
H54   H     H_    0.638726 0.861426 0.783267 0.274810
H55   H     H_    0.700984 0.976869 0.776015 0.200793
H56   H     H_    0.660651 0.952708 0.805134 0.264842
C177  C     C_3   0.360290 0.896977 0.720620 -0.341344
C178  C     C_3   0.382420 0.840493 0.709165 -0.836616
H57   H     H_    0.415539 0.846928 0.692623 0.274421
H58   H     H_    0.400656 0.814672 0.726944 0.243315
H59   H     H_    0.346830 0.816411 0.699480 0.243777
H60   H     H_    0.326427 0.885375 0.736018 0.188296
H61   H     H_    0.338186 0.921859 0.703761 0.247723
C179  C     C_3   0.100941 0.361546 0.720734 -0.341655
C180  C     C_3   0.157414 0.383479 0.708800 -0.834115
H62   H     H_    0.150982 0.416590 0.692124 0.274156
H63   H     H_    0.183405 0.401664 0.726317 0.243520
H64   H     H_    0.181319 0.347793 0.699149 0.244623
H65   H     H_    0.112538 0.327678 0.736239 0.188629
H66   H     H_    0.075886 0.339479 0.704155 0.247815
C181  C     C_3   0.667609 0.986320 0.720414 -0.349180
C182  C     C_3   0.687562 0.048070 0.721009 -0.798078
H67   H     H_    0.654869 0.077087 0.712002 0.290653
H68   H     H_    0.696569 0.060959 0.743350 0.235539
H69   H     H_    0.727109 0.052656 0.708248 0.241258
H70   H     H_    0.701589 0.959792 0.729813 0.187412
H71   H     H_    0.666223 0.969976 0.698298 0.243814
C183  C     C_3   0.012628 0.669135 0.719433 -0.348403
C184  C     C_3   0.951010 0.689459 0.720341 -0.800333
H72   H     H_    0.921739 0.656923 0.711694 0.290616
H73   H     H_    0.938338 0.698575 0.742719 0.235387
H74   H     H_    0.946564 0.729017 0.707405 0.241085
H75   H     H_    0.039454 0.702983 0.728448 0.187248
H76   H     H_    0.028752 0.667568 0.697208 0.243945
C185  C     C_3   0.359514 0.101898 0.279365 -0.341361
C186  C     C_3   0.381194 0.158546 0.290831 -0.836554
H77   H     H_    0.414354 0.152362 0.307375 0.274443
H78   H     H_    0.399235 0.184522 0.273057 0.243309
H79   H     H_    0.345410 0.182341 0.300516 0.243771
H80   H     H_    0.325570 0.113244 0.263964 0.188287
H81   H     H_    0.337597 0.076832 0.296217 0.247721
C187  C     C_3   0.104015 0.636271 0.279328 -0.341752
C188  C     C_3   0.160026 0.613097 0.291226 -0.834168
H82   H     H_    0.152910 0.580143 0.307909 0.274113
H83   H     H_    0.185555 0.594336 0.273694 0.243599
H84   H     H_    0.184744 0.648247 0.300860 0.244625
H85   H     H_    0.116308 0.669903 0.263830 0.188619
H86   H     H_    0.079486 0.658850 0.295928 0.247804
C189  C     C_3   0.667516 0.015070 0.279612 -0.349234
C190  C     C_3   0.688079 0.953522 0.278997 -0.798159
H87   H     H_    0.655668 0.924174 0.287994 0.290729
H88   H     H_    0.697224 0.940746 0.256654 0.235539
H89   H     H_    0.727662 0.949310 0.291760 0.241219
H90   H     H_    0.701241 0.041961 0.270239 0.187386
H91   H     H_    0.665932 0.031347 0.301737 0.243847
C191  C     C_3   0.008771 0.330646 0.280478 -0.348315
C192  C     C_3   0.946611 0.312031 0.279614 -0.800153
H92   H     H_    0.918273 0.345344 0.288293 0.290462
H93   H     H_    0.933624 0.303308 0.257239 0.235386
H94   H     H_    0.941122 0.272588 0.292536 0.241078
H95   H     H_    0.034571 0.296098 0.271386 0.187292
H96   H     H_    0.025078 0.331655 0.302679 0.243834
C193  C     C_R   0.093138 0.425888 0.357918 0.122488
C194  C     C_R   0.091472 0.366573 0.361270 -0.119478
C195  C     C_R   0.132029 0.332621 0.347817 -0.160957
C196  C     C_R   0.174611 0.357654 0.331099 -0.112647
C197  C     C_R   0.176944 0.416712 0.327973 -0.138272
C198  C     C_R   0.136509 0.450786 0.341416 -0.164135
H97   H     H_    0.058193 0.346659 0.373838 0.142660
H98   H     H_    0.130258 0.286884 0.350223 0.134525
H99   H     H_    0.205852 0.331305 0.320618 0.126492
H100  H     H_    0.210043 0.436093 0.315110 0.132482
H101  H     H_    0.138893 0.496451 0.338942 0.142180
C199  C     C_R   0.570088 0.096630 0.357093 0.122500
C200  C     C_R   0.629442 0.096680 0.360065 -0.120203
C201  C     C_R   0.662108 0.138294 0.346258 -0.161027
C202  C     C_R   0.635740 0.180227 0.329563 -0.111848
C203  C     C_R   0.576626 0.180850 0.326812 -0.138572
C204  C     C_R   0.543834 0.139354 0.340608 -0.164504
H102  H     H_    0.650399 0.063919 0.372610 0.142827
H103  H     H_    0.707887 0.137846 0.348372 0.134814
H104  H     H_    0.661097 0.212289 0.318808 0.127659
H105  H     H_    0.556208 0.213447 0.313966 0.132475
H106  H     H_    0.498106 0.140419 0.338423 0.142461
C205  C     C_R   0.926701 0.560142 0.349260 0.132858
C206  C     C_R   0.922261 0.618928 0.353712 -0.104461
C207  C     C_R   0.886005 0.651965 0.336678 -0.137088
C208  C     C_R   0.853750 0.626591 0.315196 -0.110271
C209  C     C_R   0.857430 0.568075 0.310829 -0.145157
C210  C     C_R   0.893563 0.534876 0.327840 -0.159425
H107  H     H_    0.947531 0.639271 0.370051 0.135144
H108  H     H_    0.883088 0.697290 0.340059 0.131306
H109  H     H_    0.825808 0.652244 0.301984 0.125214
H110  H     H_    0.832224 0.548410 0.294279 0.132361
H111  H     H_    0.895437 0.489546 0.324381 0.164225
C211  C     C_R   0.440184 0.926789 0.349845 0.132853
C212  C     C_R   0.381574 0.920882 0.354741 -0.104380
C213  C     C_R   0.349271 0.883957 0.338051 -0.137160
C214  C     C_R   0.375215 0.852492 0.316475 -0.110935
C215  C     C_R   0.433577 0.857631 0.311671 -0.144870
C216  C     C_R   0.466046 0.894434 0.328337 -0.158856
H112  H     H_    0.360784 0.945523 0.371159 0.134952
H113  H     H_    0.304068 0.879908 0.341772 0.130951
H114  H     H_    0.350127 0.824030 0.303530 0.124377
H115  H     H_    0.453690 0.833035 0.295049 0.132491
H116  H     H_    0.511278 0.897437 0.324543 0.164137
C217  C     C_R   0.094380 0.572236 0.642173 0.122477
C218  C     C_R   0.093909 0.631569 0.638803 -0.119780
C219  C     C_R   0.135094 0.664721 0.652283 -0.161296
C220  C     C_R   0.177113 0.638861 0.669048 -0.112861
C221  C     C_R   0.178261 0.579773 0.672190 -0.138195
C222  C     C_R   0.137199 0.546496 0.658718 -0.164137
H117  H     H_    0.061072 0.652131 0.626201 0.142677
H118  H     H_    0.134243 0.710481 0.649864 0.134630
H119  H     H_    0.208839 0.664594 0.679551 0.126501
H120  H     H_    0.210926 0.559749 0.685088 0.132469
H121  H     H_    0.138668 0.500795 0.661205 0.142031
C223  C     C_R   0.570779 0.903814 0.642880 0.122503
C224  C     C_R   0.630133 0.904201 0.639915 -0.120102
C225  C     C_R   0.663095 0.862814 0.653715 -0.160898
C226  C     C_R   0.637025 0.820673 0.670397 -0.111786
C227  C     C_R   0.577917 0.819615 0.673142 -0.138617
C228  C     C_R   0.544829 0.860885 0.659353 -0.164509
H122  H     H_    0.650856 0.937127 0.627380 0.142832
H123  H     H_    0.708871 0.863599 0.651606 0.134815
H124  H     H_    0.662611 0.788787 0.681146 0.127655
H125  H     H_    0.557731 0.786858 0.685978 0.132460
H126  H     H_    0.499109 0.859485 0.661533 0.142502
C229  C     C_R   0.925360 0.441203 0.650706 0.133040
C230  C     C_R   0.919717 0.382531 0.646217 -0.104464
C231  C     C_R   0.882764 0.350208 0.663215 -0.137073
C232  C     C_R   0.851007 0.376190 0.684698 -0.110278
C233  C     C_R   0.855886 0.434607 0.689102 -0.145206
C234  C     C_R   0.892718 0.467095 0.672127 -0.159372
H127  H     H_    0.944584 0.361710 0.629877 0.135095
H128  H     H_    0.878918 0.304962 0.659805 0.131334
H129  H     H_    0.822523 0.351087 0.697881 0.125212
H130  H     H_    0.831064 0.454747 0.705652 0.132328
H131  H     H_    0.895515 0.512368 0.675614 0.164271
C235  C     C_R   0.439686 0.072727 0.650162 0.132793
C236  C     C_R   0.381030 0.078194 0.645280 -0.104371
C237  C     C_R   0.348463 0.114867 0.661980 -0.137155
C238  C     C_R   0.374185 0.146518 0.683554 -0.110951
C239  C     C_R   0.432588 0.141817 0.688345 -0.144886
C240  C     C_R   0.465320 0.105266 0.671668 -0.158890
H132  H     H_    0.360414 0.053403 0.628863 0.134973
H133  H     H_    0.303228 0.118576 0.658269 0.130955
H134  H     H_    0.348894 0.174784 0.696507 0.124368
H135  H     H_    0.452527 0.166556 0.704966 0.132469
H136  H     H_    0.510576 0.102601 0.675453 0.164109
C241  C     C_R   0.578489 0.899042 0.861307 0.129893
C242  C     C_R   0.557230 0.853005 0.845652 -0.159060
C243  C     C_R   0.594053 0.811112 0.835595 -0.152053
C244  C     C_R   0.652281 0.814807 0.841075 -0.110728
C245  C     C_R   0.673794 0.860444 0.856600 -0.144036
C246  C     C_R   0.637091 0.902317 0.866802 -0.122179
H137  H     H_    0.512150 0.849152 0.841547 0.163908
H138  H     H_    0.577441 0.775751 0.823558 0.136148
H139  H     H_    0.680751 0.782430 0.833191 0.130665
H140  H     H_    0.718924 0.863361 0.860746 0.132809
H141  H     H_    0.654349 0.937488 0.878785 0.140701
C247  C     C_R   0.100101 0.579908 0.860454 0.130243
C248  C     C_R   0.146044 0.558767 0.844573 -0.158605
C249  C     C_R   0.187853 0.595677 0.834126 -0.152075
C250  C     C_R   0.184162 0.653873 0.839437 -0.110122
C251  C     C_R   0.138624 0.675266 0.855192 -0.143924
C252  C     C_R   0.096840 0.638474 0.865786 -0.121838
H142  H     H_    0.149882 0.513714 0.840585 0.164234
H143  H     H_    0.223140 0.579156 0.821914 0.136492
H144  H     H_    0.216471 0.682411 0.831249 0.131183
H145  H     H_    0.135717 0.720370 0.859211 0.132692
H146  H     H_    0.061744 0.655637 0.877943 0.140300
C253  C     C_R   0.422861 0.045876 0.848322 0.126971
C254  C     C_R   0.443436 0.080153 0.825797 -0.160501
C255  C     C_R   0.405718 0.110559 0.808353 -0.138560
C256  C     C_R   0.347315 0.107614 0.813458 -0.110353
C257  C     C_R   0.326524 0.074283 0.836032 -0.149525
C258  C     C_R   0.364077 0.043587 0.853455 -0.128538
H147  H     H_    0.488592 0.083403 0.821752 0.155664
H148  H     H_    0.421785 0.136482 0.790896 0.131940
H149  H     H_    0.318165 0.131099 0.799899 0.127075
H150  H     H_    0.281264 0.071958 0.839928 0.133319
H151  H     H_    0.347311 0.017403 0.870664 0.139469
C259  C     C_R   0.952798 0.424747 0.848783 0.126570
C260  C     C_R   0.918507 0.445719 0.826421 -0.161083
C261  C     C_R   0.887749 0.408334 0.809279 -0.138701
C262  C     C_R   0.890348 0.349870 0.814530 -0.110423
C263  C     C_R   0.923692 0.328684 0.836946 -0.149457
C264  C     C_R   0.954744 0.365902 0.854064 -0.129048
H152  H     H_    0.915501 0.490930 0.822276 0.155499
H153  H     H_    0.861812 0.424708 0.791947 0.131849
H154  H     H_    0.866583 0.320978 0.801207 0.127366
H155  H     H_    0.925748 0.283376 0.840954 0.133653
H156  H     H_    0.980927 0.348826 0.871151 0.139975
C265  C     C_R   0.577796 0.101547 0.138665 0.129955
C266  C     C_R   0.556183 0.147435 0.154309 -0.159069
C267  C     C_R   0.592682 0.189623 0.164352 -0.152089
C268  C     C_R   0.650937 0.186372 0.158871 -0.110704
C269  C     C_R   0.672800 0.140886 0.143357 -0.144015
C270  C     C_R   0.636420 0.098719 0.133168 -0.122063
H157  H     H_    0.511075 0.150943 0.158415 0.163936
H158  H     H_    0.575798 0.224868 0.176380 0.136190
H159  H     H_    0.679156 0.218978 0.166744 0.130685
H160  H     H_    0.717951 0.138315 0.139210 0.132801
H161  H     H_    0.653949 0.063672 0.121193 0.140691
C271  C     C_R   0.098471 0.418237 0.139620 0.130034
C272  C     C_R   0.144793 0.438420 0.155544 -0.158547
C273  C     C_R   0.185792 0.400651 0.166029 -0.151876
C274  C     C_R   0.180916 0.342544 0.160712 -0.110163
C275  C     C_R   0.134998 0.322101 0.144912 -0.144023
C276  C     C_R   0.094016 0.359751 0.134283 -0.122165
H162  H     H_    0.149552 0.483384 0.159536 0.164222
H163  H     H_    0.221373 0.416434 0.178275 0.136485
H164  H     H_    0.212600 0.313342 0.168928 0.131179
H165  H     H_    0.131170 0.277067 0.140888 0.132615
H166  H     H_    0.058609 0.343318 0.122095 0.140305
C277  C     C_R   0.423308 0.953519 0.151689 0.126961
C278  C     C_R   0.444165 0.919411 0.174212 -0.160503
C279  C     C_R   0.406701 0.888697 0.191659 -0.138518
C280  C     C_R   0.348275 0.891163 0.186558 -0.110348
C281  C     C_R   0.327208 0.924324 0.163985 -0.149528
C282  C     C_R   0.364505 0.955327 0.146561 -0.128616
H167  H     H_    0.489348 0.916527 0.178252 0.155672
H168  H     H_    0.422982 0.862905 0.209113 0.131955
H169  H     H_    0.319320 0.867437 0.200118 0.127048
H170  H     H_    0.281929 0.926276 0.160093 0.133288
H171  H     H_    0.347523 0.981371 0.129352 0.139480
C283  C     C_R   0.954411 0.576424 0.151197 0.126582
C284  C     C_R   0.919665 0.556216 0.173555 -0.161049
C285  C     C_R   0.889745 0.594273 0.190694 -0.138700
C286  C     C_R   0.893644 0.652666 0.185445 -0.110419
C287  C     C_R   0.927445 0.673107 0.163031 -0.149562
C288  C     C_R   0.957660 0.635211 0.145916 -0.128813
H172  H     H_    0.915666 0.511083 0.177701 0.155520
H173  H     H_    0.863455 0.578478 0.208024 0.131863
H174  H     H_    0.870531 0.682078 0.198767 0.127356
H175  H     H_    0.930509 0.718359 0.159025 0.133582
H176  H     H_    0.984219 0.651702 0.128833 0.139928

loop_
_geom_bond_atom_site_label_1
_geom_bond_atom_site_label_2
_geom_bond_distance
_ccdc_geom_bond_type
Zn12  O62   1.949988 S    
C170  H39   1.110815 S    
O25   C13   1.274597 A    
C201  H103  1.082262 S    
C93   C107  1.397920 A    
C94   C108  1.397932 A    
O64   C158  1.297840 A    
C175  H56   1.101724 S    
C167  C168  1.531010 S    
O50   C154  1.298560 A    
C15   C111  1.453443 S    
C220  C221  1.397593 A    
C34   C58   1.417362 A    
C127  C135  1.198729 T    
C77   C115  1.410464 A    
O18   Zn2   1.993118 S    
C224  C225  1.398288 A    
C287  C288  1.398307 A    
C61   C169  1.532555 S    
C221  H120  1.082304 S    
O55   C155  1.298189 A    
C86   C102  1.393189 A    
O32   C16   1.272488 A    
C280  C281  1.397206 A    
C247  C252  1.405470 A    
C254  C255  1.397866 A    
C130  C138  1.400883 S    
C269  H160  1.082230 S    
C90   H2    1.084724 S    
C174  H49   1.109997 S    
C281  C282  1.398313 A    
C278  C279  1.397867 A    
C92   H4    1.084205 S    
C24   C38   1.407969 A    
O3    C3    1.272390 A    
Zn11  O60   1.943691 S    
C76   C92   1.399583 A    
C217  C222  1.404309 A    
C28   C42   1.410146 A    
C122  C130  1.198729 T    
C253  C258  1.405436 A    
C284  H172  1.082284 S    
C204  H106  1.081596 S    
O56   C154  1.297819 A    
C19   C33   1.407619 A    
O5    Zn1   1.983630 S    
C227  H125  1.082308 S    
C73   C113  1.410447 A    
C74   C90   1.390197 A    
C52   C53   1.403531 A    
C188  H83   1.111042 S    
C268  H159  1.082245 S    
C188  H82   1.107281 S    
C277  C282  1.405444 A    
C75   C113  1.414267 A    
C37   C61   1.417283 A    
C48   C56   1.420264 A    
C262  H154  1.082281 S    
C74   C199  1.479787 S    
C103  C111  1.395503 A    
C146  C155  1.423376 S    
O17   C9    1.275654 A    
C273  H163  1.082242 S    
C18   O34   1.349055 S    
C80   C116  1.414201 A    
C30   C48   1.408713 A    
C128  C136  1.198733 T    
C43   C67   1.432610 A    
C266  C267  1.397789 A    
C18   C36   1.403583 A    
C48   C72   1.432714 A    
C276  H166  1.083057 S    
C132  C140  1.400876 S    
C42   C54   1.419841 A    
C210  H111  1.081700 S    
C78   C94   1.390200 A    
C10   C106  1.454891 S    
C173  C174  1.531025 S    
C187  C188  1.529563 S    
C263  C264  1.398308 A    
C81   C97   1.393215 A    
C256  H149  1.082265 S    
C60   C167  1.530913 S    
N2    C119  1.435081 S    
Zn10  O56   1.943689 S    
C147  C156  1.423366 S    
C40   C64   1.415701 A    
C38   C52   1.414606 A    
C207  H108  1.082307 S    
C73   C89   1.389988 A    
C227  C228  1.397777 A    
C285  H173  1.082300 S    
O26   Zn6   1.993118 S    
C164  H23   1.107408 S    
O51   C155  1.298187 A    
C104  C112  1.395544 A    
C286  C287  1.397197 A    
C93   H5    1.084741 S    
C202  C203  1.397590 A    
O27   C13   1.272453 A    
N1    C120  1.434806 S    
O8    Zn2   1.983641 S    
C71   C189  1.530709 S    
O31   C15   1.272450 A    
C236  H132  1.083150 S    
C47   C71   1.432568 A    
C80   C235  1.481744 S    
C248  H142  1.082393 S    
C21   C39   1.403640 A    
C178  H59   1.110448 S    
C59   C72   1.422054 A    
C181  H71   1.106717 S    
C148  C153  1.423365 S    
C169  H40   1.109394 S    
C39   C51   1.410101 A    
C271  C272  1.405487 A    
C25   C43   1.408616 A    
C36   C50   1.410047 A    
C195  C196  1.397755 A    
C273  C274  1.397349 A    
C27   C41   1.410384 A    
N8    C113  1.433213 S    
C245  H140  1.082234 S    
C9    C105  1.453994 S    
C189  H91   1.106714 S    
C125  C133  1.198729 T    
C165  H30   1.108749 S    
C197  H100  1.082305 S    
C12   C108  1.454720 S    
C274  H164  1.082256 S    
O9    C5    1.272415 A    
C249  C250  1.397350 A    
C272  C273  1.397800 A    
C77   C93   1.389956 A    
C83   C99   1.398090 A    
C6    C126  1.423268 S    
O11   C7    1.272381 A    
C251  H145  1.082234 S    
C201  C202  1.397744 A    
Zn11  O58   1.949984 S    
C194  H97   1.083134 S    
C38   C62   1.417335 A    
C78   C116  1.410490 A    
C256  C257  1.397212 A    
C26   N6    1.361204 A    
O16   Zn6   1.983641 S    
C254  H147  1.082294 S    
C40   C52   1.410019 A    
C218  H117  1.083132 S    
C45   C55   1.419835 A    
C161  H20   1.109389 S    
C260  C261  1.397863 A    
C163  H26   1.104746 S    
C189  C190  1.528164 S    
C26   O42   1.347269 S    
C230  H127  1.083138 S    
O6    Zn4   1.983629 S    
C214  C215  1.397195 A    
C69   C185  1.528809 S    
C191  H95   1.103397 S    
C29   N7    1.361251 A    
Zn9   O49   1.946863 S    
C85   C119  1.413472 A    
C221  C222  1.397795 A    
C21   N3    1.363442 A    
C187  H86   1.107110 S    
C29   O45   1.347288 S    
C219  C220  1.397743 A    
C98   H10   1.084738 S    
N5    C116  1.433440 S    
C46   C56   1.419858 A    
C231  H128  1.082306 S    
C101  C111  1.396654 A    
O21   Zn1   1.996588 S    
C241  C242  1.405486 A    
C171  H46   1.104753 S    
C169  H41   1.104730 S    
O23   C11   1.271508 A    
C287  H175  1.082230 S    
C186  H77   1.107327 S    
C90   C106  1.397983 A    
C58   C69   1.415053 A    
C68   C183  1.530697 S    
C161  C162  1.532300 S    
C183  H75   1.103456 S    
C82   C98   1.393293 A    
C214  H114  1.082328 S    
C86   C271  1.482647 S    
O13   C7    1.272415 A    
C79   C229  1.481860 S    
C185  H80   1.106385 S    
C180  H63   1.111041 S    
O19   C9    1.271432 A    
C194  C195  1.398313 A    
C178  H58   1.111040 S    
O2    Zn2   1.983626 S    
C35   C49   1.410028 A    
C242  H137  1.082387 S    
C226  C227  1.397592 A    
C5    C125  1.423294 S    
C203  C204  1.397774 A    
O7    C1    1.272387 A    
C3    C123  1.423297 S    
O28   C14   1.272476 A    
C260  H152  1.082278 S    
O26   C14   1.274336 A    
O29   C15   1.274535 A    
C181  H70   1.103412 S    
O30   C16   1.274517 A    
C173  H51   1.101710 S    
O29   Zn5   1.996588 S    
C174  H48   1.110486 S    
C222  H121  1.081557 S    
C37   C51   1.414546 A    
C168  H34   1.110479 S    
C172  H43   1.107412 S    
C220  H119  1.082301 S    
Zn10  O55   1.946866 S    
C41   C65   1.428171 A    
C87   C119  1.418081 A    
C190  H87   1.109350 S    
O19   Zn3   1.996597 S    
C14   C110  1.453214 S    
O52   C156  1.297819 A    
C280  H169  1.082271 S    
C80   C96   1.399556 A    
C84   C259  1.483525 S    
C247  C248  1.405479 A    
C179  C180  1.529566 S    
C22   C40   1.403563 A    
C179  H65   1.106384 S    
C88   C104  1.397827 A    
O15   Zn7   1.983580 S    
C26   C44   1.408574 A    
C255  C256  1.397043 A    
C78   C223  1.479758 S    
C91   H3    1.084214 S    
C205  C210  1.405602 A    
C186  H78   1.111041 S    
C253  C254  1.406213 A    
C169  C170  1.532326 S    
C50   C55   1.403521 A    
O12   Zn8   1.983638 S    
C163  C164  1.532309 S    
C215  C216  1.397977 A    
Zn9   O51   1.946872 S    
O32   Zn6   2.000067 S    
C176  H53   1.110476 S    
C95   H7    1.084203 S    
C243  H138  1.082248 S    
C28   N6    1.362454 A    
O53   C153  1.298183 A    
C85   C101  1.393263 A    
C34   C50   1.414600 A    
C239  H135  1.082342 S    
C223  C224  1.404157 A    
O18   C10   1.275805 A    
C186  H79   1.110454 S    
C266  H157  1.082387 S    
C46   C70   1.428138 A    
O22   Zn4   1.993113 S    
C213  H113  1.082305 S    
C216  H116  1.081698 S    
C288  H176  1.083044 S    
C20   N2    1.362819 A    
C18   N2    1.363474 A    
C98   C110  1.396696 A    
C30   N8    1.361193 A    
C237  C238  1.397368 A    
C86   C120  1.413360 A    
C173  H50   1.108692 S    
C82   C247  1.482596 S    
C22   N4    1.363468 A    
O12   C8    1.272371 A    
O1    C1    1.272412 A    
C263  H155  1.082232 S    
C142  C150  1.198762 T    
O14   C6    1.272401 A    
C1    C121  1.423297 S    
C237  H133  1.082306 S    
C92   C106  1.398359 A    
N6    C115  1.433269 S    
C79   C95   1.399578 A    
C199  C204  1.404319 A    
C102  C112  1.396853 A    
C42   C66   1.428144 A    
C267  H158  1.082246 S    
Zn12  O61   1.946871 S    
C134  C142  1.400885 S    
C165  H31   1.101765 S    
C94   H6    1.084733 S    
C62   C65   1.415039 A    
C236  C237  1.398267 A    
C265  C270  1.405499 A    
C184  H74   1.110304 S    
O30   Zn8   1.993113 S    
C166  H27   1.108009 S    
C138  C146  1.198755 T    
C264  H156  1.083041 S    
C168  H32   1.109982 S    
C95   C107  1.398211 A    
C271  C276  1.405484 A    
C96   C108  1.398315 A    
C85   C265  1.482650 S    
C225  H123  1.082261 S    
C190  H89   1.110296 S    
C133  C141  1.400880 S    
C268  C269  1.397133 A    
C27   N5    1.362448 A    
C223  C228  1.404312 A    
C73   C193  1.479737 S    
C62   C171  1.532542 S    
C275  H165  1.082235 S    
C79   C115  1.414291 A    
C165  C166  1.531095 S    
C182  H69   1.110289 S    
O22   C12   1.275744 A    
C32   N8    1.362395 A    
C162  H19   1.110808 S    
C58   C163  1.532549 S    
C145  C154  1.423368 S    
C249  H143  1.082242 S    
O10   C6    1.272402 A    
C30   O46   1.347243 S    
C283  C284  1.406222 A    
C278  H167  1.082291 S    
C31   O47   1.346458 S    
O49   C153  1.298184 A    
C285  C286  1.397033 A    
C83   C117  1.418065 A    
C33   C57   1.417211 A    
C269  C270  1.398048 A    
C35   C59   1.415644 A    
C282  H171  1.083048 S    
C246  H141  1.083057 S    
C31   C45   1.410417 A    
C230  C231  1.398264 A    
C136  C144  1.400876 S    
C170  H37   1.111193 S    
C99   C109  1.395555 A    
C198  H101  1.081553 S    
C24   O40   1.349013 S    
C191  C192  1.528152 S    
O63   C159  1.298193 A    
C250  H144  1.082259 S    
O60   C160  1.297840 A    
C129  C137  1.400879 S    
O31   Zn7   1.996600 S    
Zn12  O63   1.946866 S    
C87   C277  1.483390 S    
C257  H150  1.082231 S    
O57   C157  1.298181 A    
C96   H8    1.084207 S    
C49   C56   1.403416 A    
C121  C129  1.198727 T    
C164  H22   1.111204 S    
O21   C11   1.275818 A    
C84   C118  1.418038 A    
C150  C159  1.423393 S    
C20   C34   1.407966 A    
C251  C252  1.398071 A    
C84   C100  1.397770 A    
C139  C147  1.198751 T    
O13   Zn5   1.983630 S    
C175  H55   1.108709 S    
C13   C109  1.453594 S    
C209  H110  1.082337 S    
C267  C268  1.397343 A    
C206  C207  1.398257 A    
C60   C71   1.422043 A    
O23   Zn3   1.996600 S    
O3    Zn3   1.983580 S    
C196  H99   1.082299 S    
C203  H105  1.082307 S    
C195  H98   1.082262 S    
C259  C264  1.405494 A    
C243  C244  1.397343 A    
C97   C109  1.396709 A    
C83   C253  1.483373 S    
C229  C230  1.405318 A    
O28   Zn8   2.000071 S    
C184  H72   1.109353 S    
C166  H29   1.109996 S    
N3    C118  1.434860 S    
C102  H14   1.084725 S    
C123  C131  1.198729 T    
C152  C157  1.423351 S    
C23   N3    1.362737 A    
C192  H93   1.110424 S    
N7    C114  1.433454 S    
C233  H130  1.082333 S    
C149  C158  1.423370 S    
C211  C216  1.405603 A    
C261  H153  1.082294 S    
O9    Zn5   1.983636 S    
C82   C118  1.413450 A    
C57   C161  1.532545 S    
C191  H96   1.106706 S    
C188  H84   1.110439 S    
O11   Zn7   1.983580 S    
C200  C201  1.398288 A    
C175  C176  1.531033 S    
C242  C243  1.397790 A    
C208  H109  1.082315 S    
O61   C157  1.298180 A    
C206  H107  1.083143 S    
C21   O37   1.349031 S    
C205  C206  1.405302 A    
C75   C91   1.399497 A    
C226  H124  1.082279 S    
O5    C3    1.272409 A    
C189  H90   1.103435 S    
C25   O41   1.347278 S    
C47   C55   1.420117 A    
C279  H168  1.082301 S    
C141  C149  1.198751 T    
C281  H170  1.082230 S    
O7    Zn3   1.983580 S    
C215  H115  1.082336 S    
C229  C234  1.405620 A    
C31   N7    1.362471 A    
C7    C127  1.423294 S    
C270  H161  1.083057 S    
C183  H76   1.106691 S    
C286  H174  1.082269 S    
C39   C63   1.415754 A    
C255  H148  1.082305 S    
C32   C46   1.410052 A    
C180  H62   1.107291 S    
O17   Zn1   1.996600 S    
C25   N5    1.361246 A    
C36   C60   1.415738 A    
C272  H162  1.082386 S    
C213  C214  1.397359 A    
C164  H24   1.110810 S    
C137  C145  1.198749 T    
C211  C212  1.405268 A    
C63   C173  1.530928 S    
C135  C143  1.400878 S    
C244  C245  1.397132 A    
C207  C208  1.397357 A    
C209  C210  1.397963 A    
C89   H1    1.084759 S    
C64   C175  1.530903 S    
C24   N4    1.362813 A    
O14   Zn8   1.983629 S    
C176  H52   1.108005 S    
C167  H36   1.101705 S    
C244  H139  1.082244 S    
C168  H33   1.108011 S    
O54   C156  1.298560 A    
C172  H42   1.111207 S    
C91   C105  1.398096 A    
C192  H92   1.109356 S    
C181  C182  1.528158 S    
C199  C200  1.404163 A    
C190  H88   1.110389 S    
C217  C218  1.404149 A    
C8    C128  1.423322 S    
C67   C181  1.530707 S    
C274  C275  1.397135 A    
C265  C266  1.405486 A    
O8    C4    1.272369 A    
O4    Zn4   1.983638 S    
C224  H122  1.083134 S    
C182  H68   1.110400 S    
C161  H21   1.104755 S    
C75   C205  1.481808 S    
C140  C148  1.198748 T    
C27   O43   1.346469 S    
C57   C70   1.414807 A    
C28   O44   1.346480 S    
C192  H94   1.110297 S    
C179  H66   1.107114 S    
C277  C278  1.406214 A    
C23   C37   1.407625 A    
C66   C179  1.528817 S    
Zn10  O54   1.949988 S    
C262  C263  1.397181 A    
C232  H129  1.082325 S    
C225  C226  1.397748 A    
C43   C53   1.420170 A    
C41   C53   1.419843 A    
C99   H11   1.084377 S    
N4    C117  1.435070 S    
C275  C276  1.398068 A    
C20   O36   1.349007 S    
C163  H25   1.109396 S    
C45   C69   1.428167 A    
C212  C213  1.398271 A    
C59   C165  1.530905 S    
C72   C191  1.530709 S    
C162  H17   1.111201 S    
Zn9   O50   1.949984 S    
C235  C236  1.405263 A    
C11   C107  1.454465 S    
C283  C288  1.405476 A    
O16   C8    1.272373 A    
C100  C110  1.395404 A    
C187  H85   1.106385 S    
C16   C112  1.453624 S    
C88   C283  1.483484 S    
C74   C114  1.410495 A    
C238  C239  1.397197 A    
C77   C217  1.479819 S    
C177  H60   1.106381 S    
O62   C160  1.298540 A    
C32   O48   1.346491 S    
O25   Zn5   1.996600 S    
C171  H45   1.109393 S    
O6    C2    1.272409 A    
O27   Zn7   1.996597 S    
C228  H126  1.081594 S    
C257  C258  1.398310 A    
Zn11  O57   1.946863 S    
C202  H104  1.082285 S    
C17   N1    1.363426 A    
C250  C251  1.397142 A    
C182  H67   1.109348 S    
C151  C160  1.423370 S    
C162  H18   1.107413 S    
C100  H12   1.084396 S    
C248  C249  1.397799 A    
C252  H146  1.083060 S    
C61   C66   1.414858 A    
C180  H64   1.110445 S    
C185  H81   1.107109 S    
Zn10  O53   1.946871 S    
C193  C198  1.404284 A    
C178  H57   1.107325 S    
O58   C158  1.298540 A    
C177  H61   1.107113 S    
O15   C5    1.272381 A    
C279  C280  1.397043 A    
C245  C246  1.398042 A    
O24   C12   1.271707 A    
C238  H134  1.082320 S    
C70   C187  1.528814 S    
C212  H112  1.083145 S    
O24   Zn2   2.000067 S    
C197  C198  1.397799 A    
C239  C240  1.397971 A    
C174  H47   1.108031 S    
C184  H73   1.110389 S    
C166  H28   1.110488 S    
C234  H131  1.081697 S    
C183  C184  1.528155 S    
C258  H151  1.083051 S    
C172  H44   1.110806 S    
C4    C124  1.423311 S    
C88   C120  1.417990 A    
C81   C117  1.413436 A    
C284  C285  1.397863 A    
C33   C49   1.414578 A    
C196  C197  1.397601 A    
C17   C35   1.403603 A    
C218  C219  1.398315 A    
C19   N1    1.362714 A    
C29   C47   1.408568 A    
C44   C54   1.420108 A    
C259  C260  1.406223 A    
C171  C172  1.532301 S    
C76   C211  1.481763 S    
C44   C68   1.432571 A    
C23   O39   1.349031 S    
O2    C2    1.272407 A    
C131  C139  1.400877 S    
O59   C159  1.298192 A    
O4    C4    1.272367 A    
C143  C151  1.198753 T    
C126  C134  1.198726 T    
C64   C67   1.422020 A    
C103  H15   1.084382 S    
C2    C122  1.423289 S    
C97   H9    1.084747 S    
C219  H118  1.082263 S    
C232  C233  1.397179 A    
C101  H13   1.084751 S    
C233  C234  1.397964 A    
C235  C240  1.405601 A    
C193  C194  1.404134 A    
O20   Zn4   2.000071 S    
Zn11  O59   1.946872 S    
C231  C232  1.397347 A    
C240  H136  1.081700 S    
C65   C177  1.528804 S    
C241  C246  1.405504 A    
C104  H16   1.084384 S    
O20   C10   1.271737 A    
C261  C262  1.397027 A    
C51   C54   1.403377 A    
C170  H38   1.107408 S    
C177  C178  1.529585 S    
O10   Zn6   1.983626 S    
C89   C105  1.397794 A    
C144  C152  1.198745 T    
Zn9   O52   1.943691 S    
C200  H102  1.083136 S    
C87   C103  1.398067 A    
C167  H35   1.108696 S    
C76   C114  1.414213 A    
C124  C132  1.198729 T    
C63   C68   1.422112 A    
C176  H54   1.109982 S    
C81   C241  1.482663 S    
Zn12  O64   1.943689 S    
C208  C209  1.397187 A    
C17   O33   1.349058 S    
C185  C186  1.529587 S    
O1    Zn1   1.983636 S    
C19   O35   1.349042 S    
C22   O38   1.349066 S    
