data_mof_unit_40269.cif
_audit_creation_date              2012-12-10T17:01:27-0500
_audit_creation_method            fapswitch 2.2
_symmetry_space_group_name_H-M    P1
_symmetry_Int_Tables_number       1
_space_group_crystal_system       triclinic
_cell_length_a                    13.108621
_cell_length_b                    10.797107
_cell_length_c                    10.024077
_cell_angle_alpha                 88.133496
_cell_angle_beta                  95.965407
_cell_angle_gamma                 92.552056
_cell_volume                      1409.11962879

loop_
_atom_site_label
_atom_site_type_symbol
_atom_type_description
_atom_site_fract_x
_atom_site_fract_y
_atom_site_fract_z
_atom_type_partial_charge
C1    C     C_R   0.500657 0.262498 0.502060 0.873173
C2    C     C_2   0.504737 0.129809 0.503719 0.232076
C3    C     C_2   0.556131 0.577206 0.929614 -0.266565
C4    C     C_R   0.298340 0.490748 0.475399 0.927041
C5    C     C_2   0.566732 0.566318 0.082507 0.561095
C6    C     C_R   0.488055 0.736289 0.496744 0.827089
C7    C     C_R   0.701073 0.490400 0.525872 0.897810
C8    C     C_R   0.812683 0.477762 0.542045 -0.314580
C9    C     C_R   0.186022 0.477224 0.462618 -0.260963
C10   C     C_R   0.025731 0.492563 0.322584 -0.131393
C11   C     C_R   0.130951 0.473050 0.334425 0.473070
C12   C     C_R   0.027175 0.489437 0.565075 -0.026307
C13   C     C_R   0.133352 0.474621 0.578751 -0.132724
C14   C     C_2   0.818896 0.369568 0.329084 1.003687
C15   C     C_3   0.587263 0.078006 0.712247 0.026531
C16   C     C_3   0.679169 0.154684 0.775406 -0.253627
C17   C     C_3   0.670624 0.171940 0.924710 -0.918452
C18   C     C_3   0.677115 0.741209 0.118351 0.139826
C19   C     C_3   0.780924 0.753512 0.063293 -0.403664
C20   C     C_3   0.807560 0.886867 0.020563 -0.922097
C21   C     C_2   0.829583 0.434788 0.794157 0.932918
C22   C     C_2   0.982706 0.553836 0.198033 0.883935
C23   C     C_R   0.971707 0.483380 0.437069 -0.131387
C24   C     C_3   0.997690 0.676396 0.813297 0.084900
C25   C     C_3   0.009870 0.765778 0.692014 -0.413975
C26   C     C_3   0.006073 0.901131 0.730130 -0.867309
C27   C     C_3   0.136514 0.371163 0.127938 0.104551
C28   C     C_3   0.085058 0.253090 0.187622 -0.413302
C29   C     C_3   0.051677 0.159002 0.079140 -0.844258
C30   C     C_2   0.182753 0.424131 0.708544 1.052818
C31   C     C_2   0.523331 0.917597 0.274694 0.838498
C32   C     C_3   0.383613 0.880097 0.698413 0.080438
C33   C     C_3   0.300318 0.799734 0.757995 -0.289298
C34   C     C_R   0.864648 0.461738 0.427701 -0.042572
C35   C     C_3   0.321161 0.781218 0.909524 -0.893191
C36   C     C_3   0.337072 0.095175 0.207548 0.105582
C37   C     C_3   0.401973 0.177970 0.119277 -0.340656
C38   C     C_3   0.386874 0.139464 0.973443 -0.995880
C39   C     C_R   0.869293 0.484814 0.669604 -0.141456
C40   C     C_R   0.974898 0.506547 0.677660 0.461882
C41   C     C_2   0.465471 0.941458 0.389054 -0.208090
C42   C     C_2   0.445358 0.859887 0.487805 0.228486
C43   C     C_2   0.444033 0.070284 0.407908 0.445981
H1    H     H_    0.602493 0.647185 0.881146 0.196609
H2    H     H_    0.745893 0.203826 0.975502 0.301712
H3    H     H_    0.646842 0.083496 0.974543 0.277180
H4    H     H_    0.684923 0.793778 0.211790 0.226096
H5    H     H_    0.618132 0.785099 0.046282 0.158227
H6    H     H_    0.839503 0.723730 0.143635 0.277904
H7    H     H_    0.780595 0.694064 0.975631 0.248737
H8    H     H_    0.755771 0.914618 0.930969 0.260020
H9    H     H_    0.887865 0.893803 0.994397 0.274133
H10   H     H_    0.800667 0.951022 0.103300 0.303220
H11   H     H_    0.734367 0.447449 0.937291 0.364199
H12   H     H_    0.463823 0.428164 0.897179 0.149175
H13   H     H_    0.898521 0.540150 0.023000 0.352894
H14   H     H_    0.047194 0.712027 0.901584 0.219907
H15   H     H_    0.917390 0.676401 0.838963 0.138053
H16   H     H_    0.083075 0.750175 0.650255 0.240529
H17   H     H_    0.946692 0.746730 0.611525 0.225040
H18   H     H_    0.929513 0.919335 0.761575 0.265582
H19   H     H_    0.019328 0.962470 0.641993 0.289076
H20   H     H_    0.066222 0.923763 0.813172 0.258920
H21   H     H_    0.198558 0.340429 0.070995 0.162585
H22   H     H_    0.082596 0.417698 0.051935 0.221276
H23   H     H_    0.433398 0.474199 0.094007 0.099301
H24   H     H_    0.138142 0.211211 0.268262 0.243510
H25   H     H_    0.014986 0.275234 0.232838 0.264350
H26   H     H_    0.988636 0.195900 0.008610 0.316845
H27   H     H_    0.023204 0.071466 0.126389 0.269670
H28   H     H_    0.116182 0.138219 0.021117 0.247050
H29   H     H_    0.262635 0.458147 0.887479 0.316178
H30   H     H_    0.412589 0.798500 0.192163 0.320592
H31   H     H_    0.378802 0.975455 0.734174 0.151784
H32   H     H_    0.460469 0.847427 0.736170 0.140491
H33   H     H_    0.226748 0.846278 0.735747 0.226190
H34   H     H_    0.719843 0.330365 0.167220 0.331427
H35   H     H_    0.294004 0.708386 0.709850 0.280442
H36   H     H_    0.396741 0.739864 0.935973 0.276379
H37   H     H_    0.260699 0.717910 0.946863 0.298517
H38   H     H_    0.319451 0.870978 0.959582 0.256576
H39   H     H_    0.256047 0.112350 0.176039 0.170594
H40   H     H_    0.342238 0.995404 0.189227 0.139031
H41   H     H_    0.378383 0.274675 0.125104 0.222083
H42   H     H_    0.484692 0.174345 0.156112 0.252106
H43   H     H_    0.425150 0.051148 0.963424 0.277925
H44   H     H_    0.422113 0.211448 0.909342 0.264547
H45   H     H_    0.594338 0.982251 0.754433 0.141339
H46   H     H_    0.303959 0.128357 0.937746 0.284338
H47   H     H_    0.515198 0.113602 0.743577 0.143903
H48   H     H_    0.750854 0.106848 0.763186 0.233134
H49   H     H_    0.682962 0.246789 0.723467 0.242513
H50   H     H_    0.613296 0.242184 0.937368 0.255012
N1    N     N_2   0.501130 0.501330 0.852280 -0.188920
N2    N     N_2   0.501160 0.501360 0.147950 -0.214210
O1    O     O_R   0.499980 0.319060 0.613040 -0.645981
O2    O     O_R   0.747463 0.403478 0.222802 -0.710012
O3    O     O_3   0.589404 0.073246 0.571517 -0.658264
O4    O     O_3   0.653774 0.616483 0.155913 -0.563253
O5    O     O_2   0.868262 0.343030 0.849218 -0.633367
O6    O     O_R   0.754433 0.493844 0.853837 -0.817228
O7    O     O_2   0.017598 0.656537 0.167035 -0.648338
O8    O     O_R   0.911712 0.490981 0.109557 -0.783381
O9    O     O_3   0.027443 0.553692 0.793562 -0.638948
O10   O     O_3   0.183539 0.458192 0.222119 -0.627038
O11   O     O_2   0.183455 0.311867 0.728614 -0.652153
O12   O     O_R   0.500020 0.319100 0.386900 -0.614892
O13   O     O_R   0.228857 0.504057 0.806051 -0.782548
O14   O     O_2   0.601700 0.979454 0.259155 -0.604752
O15   O     O_R   0.481945 0.837332 0.174743 -0.833989
O16   O     O_3   0.361790 0.884040 0.557346 -0.632179
O17   O     O_3   0.357349 0.126611 0.344019 -0.657372
O18   O     O_R   0.346340 0.499960 0.594380 -0.624159
O19   O     O_R   0.346380 0.500000 0.368250 -0.558442
O20   O     O_R   0.499980 0.680900 0.613100 -0.616046
O21   O     O_R   0.500020 0.680940 0.386960 -0.610004
O22   O     O_R   0.653620 0.500000 0.631750 -0.572613
O23   O     O_R   0.653660 0.500040 0.405620 -0.533246
O24   O     O_2   0.843432 0.261633 0.343527 -0.631025
Zn1   Zn    Zn3+2 0.499980 0.499970 0.650990 0.973659
Zn2   Zn    Zn3+2 0.500020 0.500030 0.349010 1.032159

loop_
_geom_bond_atom_site_label_1
_geom_bond_atom_site_label_2
_ccdc_geom_bond_type
C32   O16   S    
C41   C42   D    
C7    O22   A    
H11   O6    S    
C19   C20   S    
C26   H20   S    
C18   H4    S    
C32   H32   S    
C35   H38   S    
C7    C8    S    
C10   C22   S    
C38   H46   S    
C38   H43   S    
C4    O19   A    
C36   C37   S    
C28   H25   S    
C26   H18   S    
C17   H2    S    
C18   C19   S    
C20   H8    S    
C32   H31   S    
C33   H35   S    
C27   O10   S    
C36   H40   S    
C15   C16   S    
C35   H37   S    
C1    C2    S    
C9    C13   A    
C43   O17   S    
O19   Zn2   S    
N1    Zn1   S    
H29   O13   S    
C36   H39   S    
C16   C17   S    
C36   O17   S    
C37   H41   S    
H34   O2    S    
C8    C39   A    
C21   O6    S    
N2    Zn2   S    
C30   O11   D    
C41   C43   S    
C7    O23   A    
H12   N1    S    
C5    N2    D    
C29   H26   S    
C3    H1    S    
O21   Zn2   S    
C14   O24   D    
C5    O4    S    
C4    O18   A    
H30   O15   S    
C28   H24   S    
C17   H3    S    
C27   H21   S    
O22   Zn1   S    
C39   C40   A    
C21   O5    D    
C24   H14   S    
C12   C23   A    
C25   C26   S    
C22   O8    S    
C24   O9    S    
O23   Zn2   S    
C12   C40   A    
C42   O16   S    
C11   O10   S    
C37   C38   S    
C27   H22   S    
C40   O9    S    
O18   Zn1   S    
C13   C30   S    
C33   H33   S    
C21   C39   S    
C2    C43   D    
C23   C34   A    
C31   O14   D    
C8    C34   A    
C24   C25   S    
C9    C11   A    
C6    O21   A    
C1    O12   A    
C25   H17   S    
C16   H49   S    
C17   H50   S    
C18   O4    S    
O12   Zn2   S    
C15   O3    S    
C14   O2    S    
C29   H27   S    
C37   H42   S    
C28   C29   S    
C31   C41   S    
C30   O13   S    
C19   H6    S    
O1    Zn1   S    
H13   O8    S    
C20   H10   S    
C3    C5    S    
C18   H5    S    
C14   C34   S    
C10   C23   A    
C22   O7    D    
C38   H44   S    
C32   C33   S    
C26   H19   S    
C20   H9    S    
C15   H47   S    
C19   H7    S    
C1    O1    A    
C35   H36   S    
C33   C35   S    
C31   O15   S    
C3    N1    D    
C6    O20   A    
C10   C11   A    
C12   C13   A    
C2    O3    S    
C16   H48   S    
C24   H15   S    
O20   Zn1   S    
C6    C42   S    
C27   C28   S    
H23   N2    S    
C25   H16   S    
C4    C9    S    
C15   H45   S    
C29   H28   S    
