data_mof_unit_47206.cif
_audit_creation_date              2012-12-11T15:57:50-0500
_audit_creation_method            fapswitch 2.2
_symmetry_space_group_name_H-M    P1
_symmetry_Int_Tables_number       1
_space_group_crystal_system       triclinic
_cell_length_a                    10.727107
_cell_length_b                    10.794012
_cell_length_c                    17.008517
_cell_angle_alpha                 99.575225
_cell_angle_beta                  99.704858
_cell_angle_gamma                 61.172976
_cell_volume                      1692.38096371

loop_
_atom_site_label
_atom_site_type_symbol
_atom_type_description
_atom_site_fract_x
_atom_site_fract_y
_atom_site_fract_z
_atom_type_partial_charge
C1    C     C_R   0.353036 0.781507 0.404701 0.535137
C2    C     C_2   0.338889 0.349865 0.830700 -0.015181
C3    C     C_2   0.450386 0.254430 0.787292 0.016411
C4    C     C_R   0.365919 0.342167 0.358629 0.546994
C5    C     C_2   0.432119 0.209313 0.698242 -0.005160
C6    C     C_1   0.818167 0.341844 0.708535 -0.053360
C7    C     C_1   0.845554 0.313287 0.776184 -0.066172
C8    C     C_1   0.322583 0.844422 0.704347 -0.077478
C9    C     C_1   0.285066 0.891175 0.770354 -0.067551
C10   C     C_R   0.894288 0.307942 0.086726 0.549712
C11   C     C_R   0.290459 0.260246 0.121727 0.571941
C12   C     C_2   0.829876 0.330622 0.159473 -0.107293
C13   C     C_R   0.294163 0.888620 0.083215 0.550101
C14   C     C_R   0.886852 0.296624 0.858409 0.542072
C15   C     C_R   0.309459 0.294605 0.894866 0.557190
C16   C     C_R   0.775880 0.377166 0.404669 0.555559
C17   C     C_R   0.245359 0.942071 0.849950 0.565497
C18   C     C_R   0.354988 0.776674 0.625689 0.548168
C19   C     C_R   0.368143 0.342981 0.581024 0.535014
C20   C     C_R   0.773162 0.381081 0.629583 0.552631
C21   C     C_1   0.325325 0.312147 0.277014 -0.075128
C22   C     C_1   0.304818 0.288280 0.206195 -0.061399
C23   C     C_2   0.855184 0.217958 0.195513 -0.163448
C24   C     C_2   0.846843 0.330180 0.332167 -0.119279
C25   C     C_3   0.554027 0.074304 0.659441 -0.224254
C26   C     C_3   0.616532 0.934787 0.696711 -0.332109
C27   C     C_3   0.722293 0.813454 0.643705 -0.425504
C28   C     C_3   0.210938 0.487632 0.804595 -0.272355
C29   C     C_3   0.242327 0.586567 0.765733 -0.294822
C30   C     C_3   0.102794 0.691804 0.722047 -0.411999
C31   C     C_3   0.583954 0.822984 0.347413 -0.222512
C32   C     C_3   0.664190 0.884946 0.313567 -0.324957
C33   C     C_3   0.792811 0.877583 0.371133 -0.432606
C34   C     C_2   0.827143 0.233844 0.278156 -0.168534
C35   C     C_3   0.225954 0.773418 0.172949 -0.246972
C36   C     C_3   0.271459 0.643362 0.216788 -0.287665
C37   C     C_3   0.133737 0.656565 0.241735 -0.408721
C38   C     C_3   0.604371 0.205192 0.829478 -0.225453
C39   C     C_3   0.662173 0.083281 0.884858 -0.282412
C40   C     C_3   0.822018 0.979061 0.885822 -0.422661
C41   C     C_2   0.328164 0.868074 0.340165 -0.111281
C42   C     C_2   0.332915 0.822393 0.158524 -0.014326
C43   C     C_2   0.418158 0.859286 0.214730 -0.131432
C44   C     C_2   0.437852 0.850986 0.302132 -0.027061
C45   C     C_2   0.327356 0.302764 0.647733 -0.134511
Cr1   Cr    Cr6+3 0.608020 0.610770 0.522990 0.968677
Cr2   Cr    Cr6+3 0.289390 0.599570 0.488050 0.998448
Cr3   Cr    Cr6+3 0.602610 0.289690 0.489020 0.992162
Cr4   Cr    Cr6+3 0.053780 0.052210 0.965970 0.952504
Cr5   Cr    Cr6+3 0.060060 0.372530 0.992430 0.997157
Cr6   Cr    Cr6+3 0.372600 0.061970 0.991430 0.988752
H1    H     H_    0.900681 0.111078 0.165098 0.148460
H2    H     H_    0.774305 0.715245 0.674605 0.180556
H3    H     H_    0.681323 0.938108 0.752431 0.168651
H4    H     H_    0.531090 0.912360 0.707615 0.188475
H5    H     H_    0.511641 0.049875 0.597703 0.169584
H6    H     H_    0.644269 0.095606 0.655407 0.168825
H7    H     H_    0.066782 0.635123 0.670278 0.149148
H8    H     H_    0.017682 0.746412 0.763281 0.144237
H9    H     H_    0.116089 0.773949 0.699230 0.178543
H10   H     H_    0.325305 0.529215 0.723751 0.178285
H11   H     H_    0.284066 0.644843 0.813272 0.187639
H12   H     H_    0.223383 0.376512 0.664591 0.096958
H13   H     H_    0.125772 0.464491 0.769920 0.141164
H14   H     H_    0.160042 0.554258 0.858927 0.163277
H15   H     H_    0.757563 0.940693 0.429154 0.153452
H16   H     H_    0.868992 0.765530 0.381922 0.146546
H17   H     H_    0.848662 0.922155 0.344733 0.136768
H18   H     H_    0.703995 0.823504 0.255901 0.150558
H19   H     H_    0.591229 0.997774 0.303052 0.193301
H20   H     H_    0.568332 0.872127 0.410242 0.164396
H21   H     H_    0.652923 0.706451 0.347475 0.180676
H22   H     H_    0.080034 0.756033 0.281371 0.154306
H23   H     H_    0.783148 0.169710 0.293087 0.156924
H24   H     H_    0.058420 0.657708 0.187925 0.144973
H25   H     H_    0.153196 0.569317 0.274634 0.176712
H26   H     H_    0.321303 0.545166 0.175442 0.171740
H27   H     H_    0.351580 0.632150 0.268600 0.189605
H28   H     H_    0.132936 0.868619 0.197422 0.132134
H29   H     H_    0.179222 0.743172 0.114134 0.167874
H30   H     H_    0.867746 0.979853 0.832211 0.172282
H31   H     H_    0.879599 0.002971 0.941387 0.207606
H32   H     H_    0.840027 0.869020 0.887277 0.099552
H33   H     H_    0.641052 0.130466 0.947566 0.181338
H34   H     H_    0.780192 0.437713 0.189464 0.105697
H35   H     H_    0.607117 0.017163 0.866361 0.194226
H36   H     H_    0.678701 0.175354 0.783751 0.137406
H37   H     H_    0.609424 0.298581 0.865897 0.134628
H38   H     H_    0.895586 0.390186 0.317335 0.101503
H39   H     H_    0.477628 0.903150 0.194341 0.136919
H40   H     H_    0.219580 0.919351 0.312619 0.100329
H41   H     H_    0.667952 0.796283 0.584609 0.188789
H42   H     H_    0.807359 0.837970 0.633477 0.114447
O1    O     O_R   0.749250 0.499990 0.439200 -0.533426
O2    O     O_R   0.411120 0.181190 0.091480 -0.518403
O3    O     O_R   0.364220 0.944920 0.062310 -0.513040
O4    O     O_R   0.477870 0.725740 0.440280 -0.514454
O5    O     O_R   0.158740 0.906940 0.874970 -0.530788
O6    O     O_R   0.930920 0.176940 0.885610 -0.525879
O7    O     O_R   0.910730 0.394510 0.895320 -0.505576
O8    O     O_R   0.185840 0.361180 0.920280 -0.506089
O9    O     O_R   0.399210 0.173040 0.915160 -0.537281
O10   O     O_R   0.353170 0.937370 0.898860 -0.492367
O11   O     O_3   0.162150 0.162240 0.983280 -0.273292
O12   O     O_R   0.299400 0.468710 0.556310 -0.494464
O13   O     O_R   0.260770 0.742210 0.412610 -0.518308
O14   O     O_R   0.297990 0.466320 0.394220 -0.505036
O15   O     O_R   0.487720 0.253870 0.385870 -0.519165
O16   O     O_R   0.721940 0.304340 0.422320 -0.494173
O17   O     O_R   0.750770 0.502570 0.614050 -0.526956
O18   O     O_R   0.479280 0.728140 0.602370 -0.505257
O19   O     O_R   0.262290 0.744790 0.587460 -0.520103
O20   O     O_R   0.489240 0.256450 0.560730 -0.534283
O21   O     O_R   0.723350 0.306730 0.584410 -0.502639
O22   O     O_3   0.500010 0.500010 0.500020 -0.230314
O23   O     O_R   0.170650 0.915100 0.051290 -0.535667
O24   O     O_R   0.941960 0.184500 0.049060 -0.511370
O25   O     O_R   0.922640 0.402670 0.071640 -0.519114
O26   O     O_R   0.196880 0.368740 0.083740 -0.501576

loop_
_geom_bond_atom_site_label_1
_geom_bond_atom_site_label_2
_ccdc_geom_bond_type
Cr5   O11   S    
C35   C36   S    
C25   H5    S    
C11   O26   A    
C24   H38   S    
Cr4   O11   S    
C14   O6    A    
Cr6   O9    S    
Cr2   O22   S    
C4    O15   A    
C12   C23   D    
C26   C27   S    
C12   H34   S    
C36   C37   S    
C18   O19   A    
C39   H33   S    
C36   H26   S    
C38   C39   S    
C19   O20   A    
Cr6   O10   S    
Cr2   O19   S    
C35   H29   S    
C35   C42   S    
Cr4   O5    S    
C7    C14   S    
Cr4   O24   S    
C3    C38   S    
C8    C9    T    
Cr2   O12   S    
C30   H9    S    
C16   O16   A    
C17   O5    A    
C1    O13   A    
C23   C34   S    
C31   H20   S    
Cr3   O16   S    
C37   H24   S    
C16   C24   S    
C21   C22   T    
C26   H4    S    
C40   H32   S    
C25   H6    S    
C26   H3    S    
C13   C42   S    
C33   H15   S    
C4    O14   A    
C29   H10   S    
C43   H39   S    
C31   C44   S    
C13   O3    A    
Cr5   O26   S    
C40   H31   S    
C18   O18   A    
C1    O4    A    
C39   C40   S    
C32   H19   S    
C25   C26   S    
C5    C45   D    
C45   H12   S    
C8    C18   S    
C38   H37   S    
C43   C44   S    
C29   C30   S    
C10   O25   A    
Cr4   O6    S    
C31   C32   S    
Cr1   O1    S    
Cr2   O13   S    
C30   H8    S    
C27   H2    S    
C27   H41   S    
C15   O8    A    
C2    C15   S    
C6    C7    T    
C10   C12   S    
C34   H23   S    
Cr3   O22   S    
C5    C25   S    
Cr1   O22   S    
C9    C17   S    
C31   H21   S    
C41   H40   S    
Cr1   O4    S    
Cr2   O14   S    
Cr1   O17   S    
C41   C44   D    
C20   O17   A    
C27   H42   S    
C42   C43   D    
C28   H13   S    
C33   H16   S    
Cr3   O21   S    
C11   O2    A    
C37   H22   S    
C29   H11   S    
C28   C29   S    
Cr5   O25   S    
C16   O1    A    
C40   H30   S    
C37   H25   S    
C1    C41   S    
C3    C5    S    
C19   C45   S    
C14   O7    A    
C32   H18   S    
C6    C20   S    
Cr6   O3    S    
C11   C22   S    
Cr5   O7    S    
C38   H36   S    
C32   C33   S    
C28   H14   S    
Cr6   O11   S    
C10   O24   A    
C36   H27   S    
C20   O21   A    
C4    C21   S    
C23   H1    S    
Cr3   O15   S    
C30   H7    S    
C35   H28   S    
C2    C3    D    
C15   O9    A    
C17   O10   A    
C24   C34   D    
C13   O23   A    
Cr4   O23   S    
C19   O12   A    
Cr5   O8    S    
C2    C28   S    
C39   H35   S    
Cr1   O18   S    
C33   H17   S    
Cr6   O2    S    
Cr3   O20   S    
