data_mof_unit_16934.cif
_audit_creation_date              2012-12-10T19:01:23-0500
_audit_creation_method            fapswitch 2.2
_symmetry_space_group_name_H-M    P1
_symmetry_Int_Tables_number       1
_space_group_crystal_system       triclinic
_cell_length_a                    9.5594
_cell_length_b                    10.829821
_cell_length_c                    15.583074
_cell_angle_alpha                 89.348617
_cell_angle_beta                  73.960758
_cell_angle_gamma                 90.030424
_cell_volume                      1550.35103442

loop_
_atom_site_label
_atom_site_type_symbol
_atom_type_description
_atom_site_fract_x
_atom_site_fract_y
_atom_site_fract_z
_atom_type_partial_charge
C1    C     C_R   0.999148 0.262369 0.501440 0.832864
C2    C     C_R   0.677121 0.501542 0.910106 0.023884
C3    C     C_R   0.782175 0.491235 0.958147 0.114247
C4    C     C_R   0.530665 0.527754 0.956675 0.086285
C5    C     C_R   0.483678 0.511394 0.050634 0.062499
C6    C     C_R   0.589886 0.488645 0.096648 -0.207539
C7    C     C_R   0.737263 0.483912 0.051171 -0.198791
C8    C     C_R   0.434001 0.580334 0.912604 -0.120893
C9    C     C_R   0.290269 0.604499 0.958073 -0.233742
C10   C     C_R   0.238003 0.575348 0.048632 0.155630
C11   C     C_R   0.333361 0.525475 0.095425 0.095525
C12   C     C_R   0.917313 0.495088 0.672134 0.863787
C13   C     C_R   0.091885 0.598223 0.093541 -0.208742
C14   C     C_R   0.038545 0.570630 0.184205 -0.202151
C15   C     C_R   0.274919 0.492144 0.185533 -0.243055
C16   C     C_R   0.117333 0.063835 0.515127 0.136173
C17   C     C_R   0.994272 0.129193 0.510133 -0.116507
C18   C     C_R   0.863883 0.064003 0.518285 -0.181679
C19   C     C_R   0.864162 0.935226 0.518486 -0.175070
C20   C     C_R   0.994631 0.870690 0.511137 -0.171244
C21   C     C_R   0.117380 0.936712 0.516895 0.143356
C22   C     C_3   0.272053 0.931412 0.461095 0.188188
C23   C     C_R   0.999205 0.737662 0.501844 0.801647
C24   C     C_3   0.270523 0.071709 0.457651 -0.471581
C25   C     C_R   0.594683 0.588358 0.453408 0.300578
C26   C     C_R   0.551750 0.420016 0.552074 -0.070327
C27   C     C_R   0.402782 0.421112 0.553675 0.420469
C28   C     C_R   0.447545 0.588025 0.453163 0.304751
C29   C     C_3   0.486152 0.611559 0.355140 -0.497485
C30   C     C_3   0.644608 0.611477 0.355220 -0.524671
C31   C     C_R   0.082418 0.502422 0.328112 0.777988
C32   C     C_R   0.870512 0.489457 0.770679 -0.126641
C33   C     C_R   0.130055 0.517930 0.230714 -0.040345
C34   C     C_R   0.930356 0.486517 0.912182 -0.201283
C35   C     C_R   0.974299 0.493032 0.819185 -0.189996
C36   C     C_R   0.721457 0.480632 0.817523 0.291660
Cu1   Cu    Cu3+1 0.140670 0.499980 0.500000 1.013794
Cu2   Cu    Cu3+1 0.859330 0.500020 0.500000 0.983491
H1    H     H_    0.816011 0.472152 0.088976 0.148426
H2    H     H_    0.019623 0.640108 0.058948 0.140555
H3    H     H_    0.285482 0.887072 0.395332 0.097169
H4    H     H_    0.344068 0.116547 0.492194 0.264824
H5    H     H_    0.277951 0.109707 0.389923 0.153000
H6    H     H_    0.590303 0.352934 0.592001 0.219137
H7    H     H_    0.458154 0.532493 0.318571 0.197551
H8    H     H_    0.927307 0.593889 0.218173 0.147240
H9    H     H_    0.219656 0.645835 0.922049 0.156258
H10   H     H_    0.012210 0.479977 0.948031 0.159439
H11   H     H_    0.089628 0.495816 0.785322 0.213224
H12   H     H_    0.563378 0.482104 0.168308 0.137328
H13   H     H_    0.470621 0.608966 0.843261 0.194251
N1    N     N_R   0.648210 0.500930 0.499430 -0.233067
N2    N     N_R   0.352300 0.500890 0.499430 -0.238582
O1    O     O_R   0.118810 0.319640 0.500000 -0.538934
O2    O     O_R   0.881230 0.319680 0.499990 -0.595986
O3    O     O_R   0.055580 0.499970 0.629840 -0.542257
O4    O     O_R   0.818000 0.500010 0.629830 -0.534668
O5    O     O_R   0.118770 0.680320 0.500010 -0.556215
O6    O     O_R   0.881190 0.680360 0.500000 -0.579636
O7    O     O_R   0.182000 0.499990 0.370170 -0.597679
O8    O     O_R   0.944420 0.500030 0.370160 -0.589490
H14   H     H_    0.763672 0.111778 0.519922 0.187325
H15   H     H_    0.764204 0.887031 0.519914 0.207667
Cl1   Cl    Cl    0.388730 0.873697 0.524000 -0.621487
Cl2   Cl    Cl    0.286762 0.317421 0.627524 -0.568747
H16   H     H_    0.339984 0.444470 0.221784 0.136658
H17   H     H_    0.447807 0.703051 0.338183 0.214007
H18   H     H_    0.705478 0.532106 0.318389 0.204661
H19   H     H_    0.698392 0.703037 0.338359 0.210847
Cl3   Cl    Cl    0.597376 0.406361 0.768333 -0.607892

loop_
_geom_bond_atom_site_label_1
_geom_bond_atom_site_label_2
_ccdc_geom_bond_type
C31   O7    A    
C35   H11   S    
C23   O5    A    
C2    C4    A    
C28   N2    A    
C27   N2    A    
C9    H9    S    
C16   C21   A    
C27   Cl2   S    
C26   N1    A    
C2    C3    A    
Cu2   O4    S    
C24   H4    S    
C9    C10   A    
C31   O8    A    
C1    C17   S    
Cu1   O5    S    
C20   C23   S    
C4    C8    A    
Cu2   O8    S    
Cu1   N2    S    
C14   C33   A    
C31   C33   S    
C17   C18   A    
C1    O2    A    
C25   N1    A    
C26   H6    S    
C14   H8    S    
C12   O3    A    
C21   C22   S    
C12   C32   S    
C25   C28   A    
C23   O6    A    
C15   H16   S    
C8    H13   S    
C26   C27   A    
C29   C30   S    
C19   H15   S    
C1    O1    A    
Cu1   O1    S    
C32   C36   A    
C28   C29   S    
Cu1   Cu2   S    
C36   Cl3   S    
C5    C11   A    
C6    C7    A    
C3    C7    A    
C5    C6    A    
C13   C14   A    
C22   C24   S    
Cu1   O7    S    
C34   H10   S    
C10   C11   A    
C12   O4    A    
C22   Cl1   S    
Cu2   O6    S    
C22   H3    S    
C32   C35   A    
C4    C5    A    
C30   H19   S    
Cu2   N1    S    
C20   C21   A    
C16   C24   S    
C34   C35   A    
C2    C36   A    
C25   C30   S    
C24   H5    S    
C7    H1    S    
C18   C19   A    
C13   H2    S    
C18   H14   S    
C6    H12   S    
C3    C34   A    
C29   H17   S    
Cu1   O3    S    
C11   C15   A    
C15   C33   A    
C30   H18   S    
Cu2   O2    S    
C19   C20   A    
C16   C17   A    
C29   H7    S    
C8    C9    A    
C10   C13   A    
