data_mof_unit_6982.cif
_audit_creation_date              2012-12-11T15:27:36-0500
_audit_creation_method            fapswitch 2.2
_symmetry_space_group_name_H-M    P1
_symmetry_Int_Tables_number       1
_space_group_crystal_system       triclinic
_cell_length_a                    23.223985
_cell_length_b                    7.299484
_cell_length_c                    15.095643
_cell_angle_alpha                 89.248032
_cell_angle_beta                  108.221526
_cell_angle_gamma                 90.687409
_cell_volume                      2430.44202

loop_
_atom_site_label
_atom_site_type_symbol
_atom_type_description
_atom_site_fract_x
_atom_site_fract_y
_atom_site_fract_z
_atom_type_partial_charge
O1    O     O_R   0.711000 0.648610 0.341170 -0.536126
O2    O     O_R   0.289000 0.351390 0.658830 -0.535264
O3    O     O_R   0.789000 0.148610 0.158830 -0.534648
O4    O     O_R   0.211000 0.851390 0.841170 -0.535413
O5    O     O_R   0.829650 0.322030 0.336650 -0.536417
O6    O     O_R   0.170350 0.677970 0.663350 -0.536806
O7    O     O_R   0.670350 0.822030 0.163350 -0.536898
O8    O     O_R   0.329650 0.177970 0.836650 -0.536925
C1    C     C_R   0.854266 0.486029 0.356834 0.717960
C2    C     C_R   0.145726 0.513976 0.643195 0.717852
C3    C     C_R   0.645741 0.985565 0.143184 0.716982
C4    C     C_R   0.354272 0.014446 0.856767 0.717410
O9    O     O_R   0.713950 0.319280 0.352070 -0.538536
O10   O     O_R   0.286050 0.680720 0.647930 -0.539326
O11   O     O_R   0.786050 0.819280 0.147930 -0.539797
O12   O     O_R   0.213950 0.180720 0.852070 -0.538895
O13   O     O_R   0.672470 0.142870 0.174360 -0.532637
O14   O     O_R   0.327530 0.857130 0.825640 -0.532905
O15   O     O_R   0.827530 0.642870 0.325640 -0.533164
O16   O     O_R   0.172470 0.357130 0.674360 -0.533009
C5    C     C_R   0.701955 0.485931 0.376366 0.679945
C6    C     C_R   0.298146 0.513943 0.623805 0.679926
C7    C     C_R   0.798000 0.989097 0.123728 0.679664
C8    C     C_R   0.201890 0.011067 0.876103 0.679856
O17   O     O_3   0.736530 0.478650 0.191680 -0.377714
O18   O     O_3   0.263470 0.521350 0.808320 -0.377910
O19   O     O_3   0.763470 0.978650 0.308320 -0.377397
O20   O     O_3   0.236530 0.021350 0.691680 -0.377399
V1    V     V_3+5 0.752500 0.206170 0.260820 1.426618
V2    V     V_3+5 0.247500 0.793830 0.739180 1.424131
V3    V     V_3+5 0.747500 0.706170 0.239180 1.422789
V4    V     V_3+5 0.252500 0.293830 0.760820 1.423393
C9    C     C_R   0.827055 0.005998 0.051045 -0.029600
C10   C     C_R   0.172743 0.997360 0.948694 -0.025815
C11   C     C_R   0.673039 0.485235 0.449532 -0.029612
C12   C     C_R   0.327028 0.511467 0.550733 -0.026098
C13   C     C_R   0.826159 0.129017 0.901943 -0.171250
C14   C     C_R   0.176636 0.914520 0.105242 -0.171692
C15   C     C_R   0.674868 0.389839 0.603605 -0.171167
C16   C     C_R   0.322490 0.568071 0.391293 -0.171979
C17   C     C_R   0.796028 0.087095 0.965948 -0.161463
C18   C     C_R   0.205631 0.940493 0.038240 -0.165593
C19   C     C_R   0.704743 0.420529 0.538182 -0.160853
C20   C     C_R   0.293733 0.553888 0.459160 -0.164591
C21   C     C_R   0.888459 0.966486 0.072372 -0.200783
C22   C     C_R   0.110792 0.029252 0.925900 -0.198796
C23   C     C_R   0.611223 0.520537 0.426264 -0.200089
C24   C     C_R   0.389186 0.481994 0.574658 -0.198742
C25   C     C_R   0.921722 0.018977 0.011508 0.072761
C26   C     C_R   0.079835 0.007483 0.992838 0.073387
C27   C     C_R   0.578330 0.479299 0.489198 0.073026
C28   C     C_R   0.419982 0.492722 0.507054 0.073734
C29   C     C_R   0.889184 0.098950 0.923447 0.079922
C30   C     C_R   0.113584 0.944406 0.083983 0.079444
C31   C     C_R   0.611502 0.414769 0.580473 0.080209
C32   C     C_R   0.385767 0.541347 0.413703 0.079718
C33   C     C_R   0.986041 0.996602 0.036362 0.008818
C34   C     C_R   0.016306 0.041399 0.970501 0.008005
C35   C     C_R   0.513786 0.497340 0.463393 0.008987
C36   C     C_R   0.483807 0.462657 0.530727 0.008180
C37   C     C_R   0.982767 0.123682 0.884935 -0.178589
C38   C     C_R   0.021135 0.937052 0.126412 -0.177958
C39   C     C_R   0.517963 0.394142 0.619323 -0.178598
C40   C     C_R   0.478243 0.543052 0.371324 -0.177895
C41   C     C_R   0.920055 0.151893 0.859729 0.114751
C42   C     C_R   0.084022 0.911022 0.151679 0.113884
C43   C     C_R   0.580955 0.371167 0.645880 0.114738
C44   C     C_R   0.415116 0.564458 0.345002 0.113548
H1    H     H_    0.253723 0.913513 0.055948 0.104438
H2    H     H_    0.748444 0.120363 0.949522 0.105319
H3    H     H_    0.245490 0.579225 0.440465 0.104341
H4    H     H_    0.752662 0.390512 0.556284 0.104981
H5    H     H_    0.799446 0.190664 0.836808 0.104124
H6    H     H_    0.204466 0.868486 0.173330 0.105859
H7    H     H_    0.702108 0.340306 0.671342 0.103926
H8    H     H_    0.294311 0.603282 0.321592 0.105739
C45   C     C_1   0.416776 0.007567 0.918703 -0.193315
C46   C     C_1   0.583264 0.992479 0.081147 -0.194096
C47   C     C_1   0.083233 0.506445 0.581275 -0.194115
C48   C     C_1   0.916742 0.493579 0.418820 -0.194640
C49   C     C_1   0.469172 0.002717 0.969884 0.002210
C50   C     C_1   0.530885 0.997359 0.029906 0.001769
C51   C     C_1   0.030838 0.502152 0.530081 0.003570
C52   C     C_1   0.969127 0.497887 0.470054 0.002452
C53   C     C_3   0.885311 0.239772 0.765610 -0.359809
C54   C     C_3   0.921699 0.289396 0.699648 -0.760743
H9    H     H_    0.956602 0.395289 0.731119 0.227883
H10   H     H_    0.943237 0.165642 0.682278 0.227947
H11   H     H_    0.890684 0.346838 0.633674 0.215887
H12   H     H_    0.848737 0.143663 0.727427 0.178657
H13   H     H_    0.863926 0.367743 0.778718 0.181441
C55   C     C_3   0.120323 0.845294 0.250004 -0.358781
C56   C     C_3   0.085129 0.811290 0.319272 -0.761591
H14   H     H_    0.063948 0.939868 0.331931 0.227394
H15   H     H_    0.050071 0.702995 0.293380 0.227977
H16   H     H_    0.116889 0.763597 0.386938 0.217320
H17   H     H_    0.142756 0.714353 0.244116 0.178852
H18   H     H_    0.156123 0.948841 0.281517 0.180860
C57   C     C_3   0.616344 0.298270 0.743232 -0.359917
C58   C     C_3   0.580138 0.256373 0.810368 -0.761139
H19   H     H_    0.557152 0.381468 0.822906 0.227875
H20   H     H_    0.546454 0.145243 0.782655 0.227771
H21   H     H_    0.611544 0.208997 0.878383 0.216645
H22   H     H_    0.639350 0.169623 0.735382 0.180656
H23   H     H_    0.651661 0.401053 0.777811 0.179247
C59   C     C_3   0.378327 0.614953 0.244425 -0.357884
C60   C     C_3   0.413282 0.638332 0.174106 -0.763219
H24   H     H_    0.447345 0.750679 0.195500 0.227704
H25   H     H_    0.435634 0.508240 0.166768 0.227444
H26   H     H_    0.381139 0.675160 0.104752 0.219328
H27   H     H_    0.343404 0.506724 0.217119 0.181025
H28   H     H_    0.354797 0.746453 0.245057 0.178259
H29   H     H_    0.087922 0.062113 0.853762 0.093195
H30   H     H_    0.908709 0.899104 0.138463 0.096645
H31   H     H_    0.412354 0.461112 0.647883 0.093490
H32   H     H_    0.590398 0.574481 0.357100 0.096379
H33   H     H_    0.005545 0.174599 0.838010 0.140595
H34   H     H_    0.000384 0.915475 0.179631 0.139137
H35   H     H_    0.495513 0.350044 0.667927 0.140468
H36   H     H_    0.498869 0.557708 0.317576 0.139151

loop_
_geom_bond_atom_site_label_1
_geom_bond_atom_site_label_2
_ccdc_geom_bond_type
O17   V3    S    
O1    C5    A    
C19   H4    S    
O19   V1    S    
C9    C21   A    
O3    C7    A    
C10   C18   A    
C48   C52   T    
O15   V3    S    
C49   C50   S    
C53   H13   S    
C55   H18   S    
C33   C38   A    
C59   H28   S    
C53   C54   S    
O7    C3    A    
C35   C40   A    
C26   C30   A    
C36   C39   A    
C40   C44   A    
O9    V1    S    
C14   C18   A    
C14   H6    S    
O4    C8    A    
C54   H10   S    
C59   C60   S    
O1    V3    S    
O13   V1    S    
C20   H3    S    
O2    V4    S    
O3    V1    S    
C58   H19   S    
C28   C36   A    
C21   H30   S    
C1    O15   A    
C15   C31   A    
C57   C58   S    
C2    O16   A    
C16   C32   A    
O2    C6    A    
C60   H24   S    
C10   C22   A    
C15   H7    S    
C11   C19   A    
C16   C20   A    
C43   C57   S    
C13   C29   A    
C34   C37   A    
O11   C7    A    
C57   H22   S    
C11   C23   A    
C35   C36   A    
O12   C8    A    
C60   H25   S    
C44   C59   S    
O10   V2    S    
C55   H17   S    
O5    V1    S    
C59   H27   S    
C15   C19   A    
C23   H32   S    
C57   H23   S    
C53   H12   S    
C39   C43   A    
O7    V3    S    
C38   C42   A    
C37   H33   S    
O8    V4    S    
C54   H9    S    
C23   C27   A    
C7    C9    S    
C32   C44   A    
C58   H21   S    
C8    C10   S    
C16   H8    S    
C1    C48   S    
C26   C34   A    
O5    C1    A    
C3    C46   S    
C39   H35   S    
C46   C50   T    
C31   C43   A    
C51   C52   S    
C14   C30   A    
C45   C49   T    
O8    C4    A    
C4    C45   S    
C58   H20   S    
C21   C25   A    
O9    C5    A    
C56   H14   S    
C41   C53   S    
C24   H31   S    
O14   V2    S    
O6    V2    S    
C56   H16   S    
C60   H26   S    
C12   C20   A    
C27   C35   A    
C29   C41   A    
O16   V4    S    
C13   H5    S    
C3    O13   A    
C22   H29   S    
C54   H11   S    
O6    C2    A    
C25   C33   A    
C42   C55   S    
C2    C47   S    
O11   V3    S    
C30   C42   A    
O12   V4    S    
C6    C12   S    
C22   C26   A    
C40   H36   S    
C9    C17   A    
O10   C6    A    
O20   V2    S    
C5    C11   S    
C47   C51   T    
C33   C34   A    
C25   C29   A    
C55   C56   S    
C12   C24   A    
C27   C31   A    
C18   H1    S    
C13   C17   A    
C38   H34   S    
C37   C41   A    
C24   C28   A    
C56   H15   S    
C4    O14   A    
O18   V4    S    
O4    V2    S    
C28   C32   A    
C17   H2    S    
