data_mof_unit_5583.cif
_audit_creation_date              2012-12-10T16:48:40-0500
_audit_creation_method            fapswitch 2.2
_symmetry_space_group_name_H-M    P1
_symmetry_Int_Tables_number       1
_space_group_crystal_system       triclinic
_cell_length_a                    8.167532
_cell_length_b                    8.511213
_cell_length_c                    10.777886
_cell_angle_alpha                 91.313295
_cell_angle_beta                  97.223928
_cell_angle_gamma                 93.016633
_cell_volume                      741.92412794

loop_
_atom_site_label
_atom_site_type_symbol
_atom_type_description
_atom_site_fract_x
_atom_site_fract_y
_atom_site_fract_z
_atom_type_partial_charge
C1    C     C_R   0.543088 0.792820 0.497594 0.922371
C2    C     C_2   0.434368 0.042830 0.501255 -0.309320
C3    C     C_2   0.515791 0.284753 0.072191 0.609264
C4    C     C_2   0.484455 0.715502 0.927848 0.609681
C5    C     C_R   0.456912 0.207181 0.502413 0.922624
C6    C     C_R   0.568860 0.492816 0.733548 0.742748
C7    C     C_R   0.431148 0.507231 0.266455 0.742321
C8    C     C_2   0.606946 0.480442 0.866903 0.135741
C9    C     C_2   0.393098 0.519776 0.133108 0.135285
C10   C     C_2   0.511725 0.542994 0.942029 -0.095053
C11   C     C_2   0.488246 0.457219 0.057923 -0.094640
C12   C     C_2   0.565634 0.957174 0.498769 -0.309109
H1    H     H_    0.690748 0.007046 0.498737 0.247203
H2    H     H_    0.309252 0.992960 0.501285 0.247183
H3    H     H_    0.501966 0.229263 0.160294 0.070153
H4    H     H_    0.498202 0.770987 0.839712 0.069995
H5    H     H_    0.146243 0.749318 0.151041 0.365221
H6    H     H_    0.855401 0.250892 0.850498 0.366163
H7    H     H_    0.949077 0.179541 0.593776 0.358072
H8    H     H_    0.051024 0.820399 0.406215 0.357951
N1    N     N_2   0.940600 0.458860 0.467170 0.083123
N2    N     N_2   0.059400 0.541140 0.532830 0.083108
O1    O     O_R   0.391630 0.738350 0.508060 -0.616406
O2    O     O_2   0.452799 0.798241 0.014801 -0.533686
O3    O     O_2   0.173785 0.565979 0.936679 -0.190070
O4    O     O_2   0.121649 0.354624 0.079440 -0.180229
O5    O     O_3   0.086796 0.645380 0.154778 -0.453190
O6    O     O_2   0.878266 0.645983 0.920460 -0.179588
O7    O     O_2   0.826241 0.434807 0.063424 -0.190593
O8    O     O_3   0.913452 0.355260 0.845360 -0.453809
O9    O     O_2   0.819564 0.202561 0.338692 -0.258069
O10   O     O_2   0.104971 0.277367 0.325839 -0.213947
O11   O     O_3   0.029269 0.159315 0.534373 -0.495549
O12   O     O_R   0.608370 0.261650 0.491940 -0.616263
O13   O     O_2   0.894991 0.722663 0.674113 -0.213915
O14   O     O_2   0.180425 0.797438 0.661323 -0.258057
O15   O     O_3   0.970790 0.840680 0.465581 -0.495485
O16   O     O_R   0.674540 0.711990 0.487010 -0.533217
O17   O     O_R   0.325460 0.288010 0.512990 -0.533229
O18   O     O_R   0.411370 0.508250 0.688780 -0.601863
O19   O     O_R   0.588630 0.491750 0.311220 -0.601749
O20   O     O_R   0.694270 0.481880 0.667740 -0.546925
O21   O     O_R   0.305730 0.518120 0.332260 -0.547292
O22   O     O_2   0.547685 0.202010 0.985313 -0.533762
S1    S     S_3+6 0.188057 0.521560 0.071508 0.158525
S2    S     S_3+6 0.812002 0.478996 0.928515 0.158433
S3    S     S_3+6 0.975243 0.273321 0.412285 0.191468
S4    S     S_3+6 0.024758 0.726691 0.587697 0.191468
Zn1   Zn    Zn3+2 0.311100 0.517600 0.514050 1.143340
Zn2   Zn    Zn3+2 0.688900 0.482400 0.485950 1.143571

loop_
_geom_bond_atom_site_label_1
_geom_bond_atom_site_label_2
_ccdc_geom_bond_type
C4    H4    S    
N2    S4    S    
C9    S1    S    
H6    O8    S    
C7    O21   A    
C3    C11   S    
O7    S2    D    
C2    C12   D    
C5    O12   A    
O5    S1    S    
C7    O19   A    
C2    H2    S    
O9    S3    D    
N1    N2    D    
O15   S4    S    
H8    O15   S    
C9    C11   D    
O6    S2    D    
C1    C12   S    
C1    O16   A    
O20   Zn2   S    
N2    Zn1   S    
O16   Zn2   S    
O13   S4    D    
N1    Zn2   S    
O17   Zn1   S    
C1    O1    A    
O14   S4    D    
C6    O18   A    
C5    O17   A    
H7    O11   S    
O11   S3    S    
O10   S3    D    
C8    S2    S    
C3    O22   D    
O12   Zn2   S    
C2    C5    S    
O1    Zn1   S    
C10   C11   S    
C4    C10   S    
O18   Zn1   S    
H5    O5    S    
O3    S1    D    
O19   Zn2   S    
C3    H3    S    
C12   H1    S    
C8    C10   D    
C6    O20   A    
C7    C9    S    
C4    O2    D    
O21   Zn1   S    
C6    C8    S    
O4    S1    D    
O8    S2    S    
N1    S3    S    
