data_mof_unit_65185.cif
_audit_creation_date              2012-12-10T16:43:50-0500
_audit_creation_method            fapswitch 2.2
_symmetry_space_group_name_H-M    P1
_symmetry_Int_Tables_number       1
_space_group_crystal_system       triclinic
_cell_length_a                    23.678648
_cell_length_b                    31.044082
_cell_length_c                    19.499784
_cell_angle_alpha                 90.020733
_cell_angle_beta                  127.552956
_cell_angle_gamma                 89.965996
_cell_volume                      11363.8057831

loop_
_atom_site_label
_atom_site_type_symbol
_atom_type_description
_atom_site_fract_x
_atom_site_fract_y
_atom_site_fract_z
_atom_type_partial_charge
C1    C     C_R   0.805602 0.191268 0.117622 0.853388
C2    C     C_R   0.194396 0.808729 0.882415 0.853192
C3    C     C_R   0.194400 0.191279 0.882351 0.851228
C4    C     C_R   0.805384 0.808670 0.117685 0.853209
C5    C     C_R   0.305602 0.691268 0.117623 0.853416
C6    C     C_R   0.694388 0.308730 0.882416 0.853221
C7    C     C_R   0.694400 0.691279 0.882351 0.851225
C8    C     C_R   0.305374 0.308671 0.117684 0.853186
C9    C     C_R   0.641856 0.249978 0.000023 0.810151
C10   C     C_R   0.358131 0.750037 0.999951 0.812555
C11   C     C_R   0.358153 0.249967 0.999995 0.810336
C12   C     C_R   0.641828 0.750043 0.999968 0.812593
C13   C     C_R   0.141856 0.749978 0.000024 0.810159
C14   C     C_R   0.858132 0.250036 0.999953 0.812623
C15   C     C_R   0.858153 0.749967 0.999995 0.810318
C16   C     C_R   0.141828 0.250043 0.999969 0.812536
C17   C     C_1   0.581044 0.249858 0.000095 -0.191205
C18   C     C_1   0.418881 0.750229 0.999752 -0.191881
C19   C     C_1   0.419006 0.249843 0.000002 -0.191422
C20   C     C_1   0.580910 0.750231 0.999831 -0.191094
C21   C     C_1   0.081044 0.749858 0.000095 -0.191197
C22   C     C_1   0.918883 0.250228 0.999758 -0.191898
C23   C     C_1   0.919005 0.749843 0.000002 -0.191420
C24   C     C_1   0.080910 0.250231 0.999832 -0.191057
C25   C     C_1   0.529988 0.249797 0.000106 -0.009977
C26   C     C_1   0.469883 0.750340 0.999637 -0.012367
C27   C     C_1   0.470083 0.249790 0.000033 -0.009815
C28   C     C_1   0.529778 0.750345 0.999691 -0.011807
C29   C     C_1   0.029988 0.749797 0.000105 -0.009965
C30   C     C_1   0.969886 0.250339 0.999642 -0.012431
C31   C     C_1   0.970082 0.749790 0.000032 -0.009819
C32   C     C_1   0.029780 0.250345 0.999695 -0.011744
C33   C     C_2   0.868903 0.127081 0.321446 -0.032495
C34   C     C_2   0.129266 0.872299 0.676869 -0.022994
C35   C     C_2   0.129694 0.127458 0.677553 -0.025054
C36   C     C_2   0.832588 0.912379 0.243130 -0.017176
C37   C     C_2   0.368903 0.627080 0.321444 -0.032564
C38   C     C_2   0.629347 0.372324 0.676938 -0.023044
C39   C     C_2   0.629685 0.627461 0.677544 -0.025039
C40   C     C_2   0.332623 0.412418 0.243070 -0.017129
C41   C     C_2   0.915467 0.098331 0.329071 -0.415867
C42   C     C_2   0.085013 0.902030 0.671957 -0.391359
C43   C     C_2   0.084349 0.098213 0.671167 -0.404918
C44   C     C_2   0.903970 0.913005 0.305801 -0.392341
C45   C     C_2   0.415472 0.598333 0.329077 -0.415983
C46   C     C_2   0.584993 0.402012 0.671919 -0.391417
C47   C     C_2   0.584353 0.598211 0.671172 -0.404914
C48   C     C_2   0.403989 0.412990 0.305837 -0.392238
C49   C     C_2   0.844032 0.163794 0.260425 -0.022652
C50   C     C_2   0.157015 0.836239 0.740290 -0.022200
C51   C     C_2   0.154798 0.164078 0.738836 -0.024141
C52   C     C_2   0.799865 0.880071 0.171771 -0.020457
C53   C     C_2   0.344050 0.663797 0.260436 -0.022668
C54   C     C_2   0.657095 0.336264 0.740352 -0.022187
C55   C     C_2   0.654793 0.664080 0.738832 -0.024142
C56   C     C_2   0.299905 0.380107 0.171716 -0.020485
C57   C     C_2   0.830219 0.157566 0.182777 -0.398293
C58   C     C_2   0.169230 0.842392 0.817099 -0.388386
C59   C     C_2   0.169704 0.157639 0.817047 -0.393337
C60   C     C_2   0.831380 0.841245 0.185217 -0.390428
C61   C     C_2   0.330214 0.657566 0.182776 -0.398366
C62   C     C_2   0.669201 0.342394 0.817101 -0.388333
C63   C     C_2   0.669705 0.657639 0.817046 -0.393335
C64   C     C_2   0.331348 0.341248 0.185211 -0.390489
C65   C     C_R   0.439736 0.442645 0.379294 0.849161
C66   C     C_R   0.556937 0.560663 0.613984 0.853063
C67   C     C_R   0.556986 0.439341 0.614027 0.861192
C68   C     C_R   0.443020 0.560694 0.386063 0.842620
C69   C     C_R   0.939728 0.942652 0.379279 0.849216
C70   C     C_R   0.056936 0.060664 0.613982 0.853075
C71   C     C_R   0.056993 0.939347 0.614041 0.861168
C72   C     C_R   0.943019 0.060693 0.386062 0.842622
Cu1   Cu    Cu3+1 0.780520 0.280530 0.061040 0.957128
Cu2   Cu    Cu3+1 0.219480 0.719470 0.938960 0.955951
Cu3   Cu    Cu3+1 0.219480 0.280530 0.938960 0.968364
Cu4   Cu    Cu3+1 0.780520 0.719470 0.061040 0.944190
Cu5   Cu    Cu3+1 0.280520 0.780530 0.061040 0.957133
Cu6   Cu    Cu3+1 0.719480 0.219470 0.938960 0.955970
Cu7   Cu    Cu3+1 0.719480 0.780530 0.938960 0.968376
Cu8   Cu    Cu3+1 0.280520 0.219470 0.061040 0.944206
Cu9   Cu    Cu3+1 0.944230 1.000000 0.500020 0.963384
Cu10  Cu    Cu3+1 0.055770 1.000000 0.499980 0.964014
Cu11  Cu    Cu3+1 0.444230 0.500000 0.500020 0.963385
Cu12  Cu    Cu3+1 0.555770 0.500000 0.499980 0.963994
H1    H     H_    0.937579 0.103936 0.294723 0.152819
H2    H     H_    0.065315 0.897782 0.709292 0.150662
H3    H     H_    0.063019 0.103345 0.706541 0.150148
H4    H     H_    0.938542 0.892487 0.300997 0.139980
H5    H     H_    0.437591 0.603941 0.294738 0.152847
H6    H     H_    0.565208 0.397719 0.709152 0.150701
H7    H     H_    0.563034 0.603337 0.706561 0.150149
H8    H     H_    0.438566 0.392421 0.301131 0.139947
H9    H     H_    0.833345 0.125258 0.163823 0.149519
H10   H     H_    0.164071 0.874376 0.835292 0.150928
H11   H     H_    0.167262 0.125255 0.836229 0.154484
H12   H     H_    0.876982 0.831906 0.249792 0.146164
H13   H     H_    0.333316 0.625255 0.163814 0.149508
H14   H     H_    0.663947 0.374363 0.835256 0.150897
H15   H     H_    0.667269 0.625254 0.836230 0.154482
H16   H     H_    0.376875 0.331887 0.249817 0.146225
O1    O     O_R   0.820280 0.231270 0.140580 -0.566679
O2    O     O_R   0.179720 0.768730 0.859420 -0.566229
O3    O     O_R   0.179720 0.231270 0.859420 -0.567598
O4    O     O_R   0.820280 0.768730 0.140580 -0.589940
O5    O     O_R   0.320280 0.731270 0.140580 -0.566681
O6    O     O_R   0.679720 0.268730 0.859420 -0.566224
O7    O     O_R   0.679720 0.731270 0.859420 -0.567602
O8    O     O_R   0.320280 0.268730 0.140580 -0.589930
O9    O     O_R   0.768770 0.179750 0.037530 -0.590088
O10   O     O_R   0.231230 0.820250 0.962470 -0.588737
O11   O     O_R   0.231230 0.179750 0.962470 -0.587973
O12   O     O_R   0.768770 0.820250 0.037530 -0.565778
O13   O     O_R   0.268770 0.679750 0.037530 -0.590081
O14   O     O_R   0.731230 0.320250 0.962470 -0.588751
O15   O     O_R   0.731230 0.679750 0.962470 -0.587975
O16   O     O_R   0.268770 0.320250 0.037530 -0.565771
O17   O     O_R   0.694370 0.275780 0.051550 -0.580473
O18   O     O_R   0.305630 0.724220 0.948450 -0.578368
O19   O     O_R   0.305630 0.275780 0.948450 -0.580312
O20   O     O_R   0.694370 0.724220 0.051550 -0.579423
O21   O     O_R   0.194370 0.775780 0.051550 -0.580483
O22   O     O_R   0.805630 0.224220 0.948450 -0.578301
O23   O     O_R   0.805630 0.775780 0.948450 -0.580322
O24   O     O_R   0.194370 0.224220 0.051550 -0.579407
O25   O     O_R   0.642860 0.224260 0.948500 -0.580444
O26   O     O_R   0.357140 0.775740 0.051500 -0.580224
O27   O     O_R   0.357140 0.224260 0.051500 -0.580832
O28   O     O_R   0.642860 0.775740 0.948500 -0.579195
O29   O     O_R   0.142860 0.724260 0.948500 -0.580431
O30   O     O_R   0.857140 0.275740 0.051500 -0.580244
O31   O     O_R   0.857140 0.724260 0.051500 -0.580839
O32   O     O_R   0.142860 0.275740 0.948500 -0.579258
O33   O     O_R   0.502640 0.455510 0.411000 -0.588948
O34   O     O_R   0.497360 0.544490 0.589000 -0.591708
O35   O     O_R   0.497360 0.455510 0.589000 -0.590287
O36   O     O_R   0.502640 0.544490 0.411000 -0.591911
O37   O     O_R   0.002640 0.955510 0.411000 -0.588889
O38   O     O_R   0.997360 0.044490 0.589000 -0.591690
O39   O     O_R   0.997360 0.955510 0.589000 -0.590284
O40   O     O_R   0.002640 0.044490 0.411000 -0.591914
O41   O     O_R   0.408410 0.455510 0.411000 -0.569043
O42   O     O_R   0.591590 0.544490 0.589000 -0.567071
O43   O     O_R   0.591590 0.455510 0.589000 -0.566864
O44   O     O_R   0.408410 0.544490 0.411000 -0.563893
O45   O     O_R   0.908410 0.955510 0.411000 -0.569046
O46   O     O_R   0.091590 0.044490 0.589000 -0.567087
O47   O     O_R   0.091590 0.955510 0.589000 -0.566884
O48   O     O_R   0.908410 0.044490 0.411000 -0.563918
C73   C     C_R   0.843722 0.124900 0.375090 0.173555
C74   C     C_R   0.891837 0.129332 0.465468 -0.097042
C75   C     C_R   0.867394 0.128364 0.515050 -0.120924
C76   C     C_R   0.794731 0.123525 0.474762 -0.122252
C77   C     C_R   0.746382 0.119908 0.384777 -0.141564
C78   C     C_R   0.770653 0.120873 0.334986 -0.145208
H17   H     H_    0.948033 0.133690 0.497425 0.091000
H18   H     H_    0.904785 0.131523 0.584678 0.124364
H19   H     H_    0.775846 0.122835 0.513213 0.120845
H20   H     H_    0.690053 0.116503 0.353564 0.125442
H21   H     H_    0.732572 0.118492 0.265269 0.110161
C79   C     C_R   0.147480 0.872528 0.616088 0.166454
C80   C     C_R   0.218856 0.875865 0.648096 -0.132920
C81   C     C_R   0.236337 0.874557 0.591365 -0.145643
C82   C     C_R   0.182799 0.869646 0.502530 -0.116128
C83   C     C_R   0.111693 0.865878 0.470285 -0.118188
C84   C     C_R   0.093990 0.867123 0.526784 -0.113149
H22   H     H_    0.260798 0.879439 0.716856 0.119149
H23   H     H_    0.291416 0.877241 0.616293 0.125882
H24   H     H_    0.196441 0.868592 0.458726 0.120475
H25   H     H_    0.070330 0.861822 0.401555 0.117400
H26   H     H_    0.038797 0.863682 0.501174 0.098082
C85   C     C_R   0.152927 0.125916 0.621896 0.169258
C86   C     C_R   0.103540 0.131708 0.531980 -0.106736
C87   C     C_R   0.126177 0.131391 0.480470 -0.116574
C88   C     C_R   0.198289 0.125799 0.518413 -0.121600
C89   C     C_R   0.247879 0.120686 0.607973 -0.145430
C90   C     C_R   0.225395 0.120914 0.659692 -0.136560
H27   H     H_    0.047799 0.136731 0.501929 0.091650
H28   H     H_    0.087836 0.135661 0.411196 0.125465
H29   H     H_    0.215787 0.125632 0.478482 0.124540
H30   H     H_    0.303770 0.116633 0.637343 0.129285
H31   H     H_    0.264308 0.117140 0.729061 0.121798
C91   C     C_R   0.785916 0.946237 0.238631 0.161716
C92   C     C_R   0.794296 0.989518 0.225290 -0.123274
C93   C     C_R   0.749388 0.021205 0.218910 -0.109689
C94   C     C_R   0.695885 0.009965 0.225812 -0.111335
C95   C     C_R   0.686816 0.966913 0.238280 -0.143133
C96   C     C_R   0.731440 0.935052 0.244264 -0.129605
H32   H     H_    0.835326 0.998598 0.219380 0.101325
H33   H     H_    0.756009 0.054421 0.208335 0.126601
H34   H     H_    0.661273 0.034578 0.221114 0.118997
H35   H     H_    0.645095 0.958215 0.243113 0.127276
H36   H     H_    0.723779 0.901775 0.253525 0.119909
C97   C     C_R   0.343691 0.624894 0.375052 0.173568
C98   C     C_R   0.391784 0.629303 0.465436 -0.096933
C99   C     C_R   0.367310 0.628338 0.514984 -0.120995
C100  C     C_R   0.294637 0.623530 0.474655 -0.122292
C101  C     C_R   0.246310 0.619937 0.384664 -0.141516
C102  C     C_R   0.270614 0.620893 0.334908 -0.145217
H37   H     H_    0.447986 0.633642 0.497424 0.091027
H38   H     H_    0.404685 0.631479 0.584616 0.124385
H39   H     H_    0.275728 0.622846 0.513079 0.120869
H40   H     H_    0.189973 0.616558 0.353419 0.125478
H41   H     H_    0.232551 0.618528 0.265186 0.110179
C103  C     C_R   0.647731 0.372624 0.616320 0.166473
C104  C     C_R   0.719125 0.376122 0.648497 -0.132859
C105  C     C_R   0.736760 0.374956 0.591901 -0.145614
C106  C     C_R   0.683360 0.370020 0.503037 -0.116257
C107  C     C_R   0.612239 0.366082 0.470627 -0.118096
C108  C     C_R   0.594381 0.367185 0.526989 -0.113091
H42   H     H_    0.760960 0.379729 0.717280 0.119141
H43   H     H_    0.791850 0.377771 0.616955 0.125861
H44   H     H_    0.697125 0.369084 0.459338 0.120436
H45   H     H_    0.570984 0.362011 0.401874 0.117476
H46   H     H_    0.539180 0.363623 0.501253 0.098066
C109  C     C_R   0.652895 0.625929 0.621860 0.169248
C110  C     C_R   0.603486 0.631716 0.531947 -0.106752
C111  C     C_R   0.626098 0.631415 0.480411 -0.116575
C112  C     C_R   0.698209 0.625846 0.518327 -0.121599
C113  C     C_R   0.747822 0.620739 0.607886 -0.145429
C114  C     C_R   0.725360 0.620949 0.659630 -0.136558
H47   H     H_    0.547747 0.636725 0.501915 0.091643
H48   H     H_    0.587739 0.635681 0.411137 0.125462
H49   H     H_    0.715688 0.625693 0.478377 0.124534
H50   H     H_    0.803711 0.616705 0.637235 0.129282
H51   H     H_    0.764291 0.617181 0.728999 0.121790
C115  C     C_R   0.285981 0.446343 0.238443 0.161641
C116  C     C_R   0.294572 0.489605 0.225266 -0.123176
C117  C     C_R   0.249640 0.521345 0.218639 -0.109923
C118  C     C_R   0.195892 0.510177 0.225111 -0.111386
C119  C     C_R   0.186616 0.467146 0.237421 -0.143086
C120  C     C_R   0.231272 0.435235 0.243670 -0.129738
H52   H     H_    0.335776 0.498630 0.219650 0.101324
H53   H     H_    0.256420 0.554547 0.208184 0.126749
H54   H     H_    0.161249 0.534829 0.220194 0.119019
H55   H     H_    0.144697 0.458505 0.241905 0.127329
H56   H     H_    0.223437 0.401972 0.252782 0.119940
C121  C     C_R   0.830767 0.205537 0.285684 0.170598
C122  C     C_R   0.761543 0.222609 0.238354 -0.100648
C123  C     C_R   0.749096 0.261030 0.264584 -0.118108
C124  C     C_R   0.805396 0.282325 0.338688 -0.121291
C125  C     C_R   0.874205 0.265159 0.386828 -0.147148
C126  C     C_R   0.886900 0.226795 0.360697 -0.143317
H57   H     H_    0.717366 0.206030 0.181600 0.098549
H58   H     H_    0.695749 0.274177 0.227681 0.130476
H59   H     H_    0.795642 0.312009 0.359045 0.121282
H60   H     H_    0.917676 0.281502 0.444545 0.123544
H61   H     H_    0.940335 0.213611 0.398853 0.116030
C127  C     C_R   0.175837 0.795164 0.719303 0.165279
C128  C     C_R   0.123053 0.771199 0.646409 -0.131928
C129  C     C_R   0.141098 0.733394 0.624829 -0.144909
C130  C     C_R   0.211903 0.719459 0.675486 -0.119991
C131  C     C_R   0.264848 0.743399 0.747632 -0.114455
C132  C     C_R   0.247043 0.781241 0.769352 -0.114591
H62   H     H_    0.068098 0.781837 0.606435 0.119830
H63   H     H_    0.100215 0.714953 0.568700 0.127263
H64   H     H_    0.225776 0.690208 0.658635 0.121006
H65   H     H_    0.319721 0.732727 0.786555 0.130955
H66   H     H_    0.288627 0.799833 0.824745 0.098688
C133  C     C_R   0.166834 0.206051 0.713033 0.169248
C134  C     C_R   0.235757 0.223413 0.759051 -0.100011
C135  C     C_R   0.246921 0.262198 0.732556 -0.118119
C136  C     C_R   0.189624 0.283569 0.659473 -0.120313
C137  C     C_R   0.121098 0.266114 0.612606 -0.146967
C138  C     C_R   0.109681 0.227391 0.639022 -0.144024
H67   H     H_    0.280658 0.206828 0.815086 0.100361
H68   H     H_    0.300033 0.275587 0.768487 0.131456
H69   H     H_    0.198376 0.313548 0.638931 0.124364
H70   H     H_    0.076845 0.282528 0.555683 0.124141
H71   H     H_    0.056431 0.214016 0.601914 0.115421
C139  C     C_R   0.729866 0.890669 0.088387 0.164153
C140  C     C_R   0.668808 0.866830 0.060456 -0.116856
C141  C     C_R   0.602789 0.877509 0.983132 -0.115037
C142  C     C_R   0.597173 0.912217 0.933653 -0.120970
C143  C     C_R   0.657556 0.936349 0.961525 -0.144044
C144  C     C_R   0.723725 0.925716 0.038745 -0.128614
H72   H     H_    0.672432 0.840122 0.098699 0.101734
H73   H     H_    0.555976 0.858936 0.961694 0.129160
H74   H     H_    0.546007 0.920491 0.873851 0.121373
H75   H     H_    0.653068 0.963332 0.923333 0.127217
H76   H     H_    0.770132 0.944697 0.059873 0.118790
C145  C     C_R   0.330837 0.705546 0.285729 0.170640
C146  C     C_R   0.261631 0.722642 0.238437 -0.100587
C147  C     C_R   0.249236 0.761069 0.264701 -0.118153
C148  C     C_R   0.305569 0.782346 0.338803 -0.121326
C149  C     C_R   0.374359 0.765156 0.386905 -0.147160
C150  C     C_R   0.387003 0.726786 0.360740 -0.143358
H77   H     H_    0.217430 0.706076 0.181685 0.098552
H78   H     H_    0.195902 0.774233 0.227828 0.130463
H79   H     H_    0.295855 0.812035 0.359187 0.121283
H80   H     H_    0.417856 0.781486 0.444621 0.123536
H81   H     H_    0.440425 0.713583 0.398868 0.116053
C151  C     C_R   0.676077 0.295227 0.719461 0.165293
C152  C     C_R   0.623403 0.271218 0.646576 -0.131961
C153  C     C_R   0.641604 0.233445 0.625098 -0.144956
C154  C     C_R   0.712457 0.219594 0.675843 -0.119847
C155  C     C_R   0.765293 0.243582 0.747977 -0.114422
C156  C     C_R   0.747330 0.281386 0.769603 -0.114845
H82   H     H_    0.568414 0.281793 0.606533 0.119818
H83   H     H_    0.600806 0.214966 0.568981 0.127253
H84   H     H_    0.726451 0.190369 0.659069 0.120999
H85   H     H_    0.820203 0.232975 0.786965 0.130984
H86   H     H_    0.788828 0.300016 0.824990 0.098712
C157  C     C_R   0.666825 0.706054 0.713030 0.169253
C158  C     C_R   0.735747 0.723416 0.759042 -0.100022
C159  C     C_R   0.746909 0.762201 0.732548 -0.118124
C160  C     C_R   0.689611 0.783573 0.659471 -0.120317
C161  C     C_R   0.621086 0.766119 0.612609 -0.146969
C162  C     C_R   0.609671 0.727396 0.639025 -0.144012
H87   H     H_    0.780649 0.706829 0.815072 0.100360
H88   H     H_    0.800020 0.775590 0.768475 0.131455
H89   H     H_    0.698361 0.813553 0.638928 0.124359
H90   H     H_    0.576832 0.782534 0.555690 0.124127
H91   H     H_    0.556422 0.714022 0.601920 0.115432
C163  C     C_R   0.229992 0.390754 0.088260 0.164142
C164  C     C_R   0.168843 0.366975 0.060165 -0.116640
C165  C     C_R   0.102905 0.377693 0.982761 -0.115083
C166  C     C_R   0.097460 0.412381 0.933366 -0.121121
C167  C     C_R   0.157932 0.436454 0.961402 -0.143997
C168  C     C_R   0.224021 0.425783 0.038704 -0.128597
H92   H     H_    0.172336 0.340282 0.098340 0.101726
H93   H     H_    0.056021 0.359165 0.961197 0.129111
H94   H     H_    0.046355 0.420683 0.873501 0.121367
H95   H     H_    0.153576 0.463420 0.923273 0.127241
H96   H     H_    0.270497 0.444719 0.059958 0.118812

loop_
_geom_bond_atom_site_label_1
_geom_bond_atom_site_label_2
_ccdc_geom_bond_type
C86   H27   S    
C138  H71   S    
C69   O45   A    
C34   C42   D    
Cu4   Cu7   S    
C67   O43   A    
Cu10  O47   S    
C94   H34   S    
C5    O5    A    
C146  C147  A    
C167  H95   S    
C148  C149  A    
Cu4   O31   S    
C140  C141  A    
C111  H48   S    
C143  C144  A    
C118  H54   S    
C91   C92   A    
Cu10  O40   S    
C122  C123  A    
C132  H66   S    
C52   C139  S    
C141  C142  A    
C156  H86   S    
C120  H56   S    
C42   H2    S    
C48   C65   S    
Cu1   O1    S    
C38   C103  S    
Cu3   O3    S    
C151  C156  A    
C50   C127  S    
C117  C118  A    
C56   C163  S    
Cu9   O38   S    
Cu12  O33   S    
C157  C162  A    
C130  C131  A    
C49   C121  S    
C105  C106  A    
C20   C28   T    
C163  C164  A    
C21   C29   T    
Cu1   O14   S    
C165  C166  A    
C23   C31   T    
C92   C93   A    
C24   C32   T    
C118  C119  A    
C89   C90   A    
Cu12  O42   S    
C137  H70   S    
C12   C20   S    
C45   C68   S    
C160  C161  A    
C6    O6    A    
C13   C21   S    
C66   O42   A    
C121  C126  A    
C155  C156  A    
C70   O38   A    
C35   C51   S    
C124  H59   S    
C36   C44   D    
C37   C45   D    
C1    O1    A    
C39   C47   D    
C14   O30   A    
C3    O3    A    
C145  C150  A    
C40   C48   D    
Cu1   O30   S    
C5    O13   A    
C147  H78   S    
C100  C101  A    
C12   O28   A    
C142  H74   S    
C39   C109  S    
Cu6   O6    S    
C17   C25   T    
C144  H76   S    
C16   O24   A    
C135  H68   S    
C72   O48   A    
C109  C114  A    
C130  H64   S    
C10   C18   S    
C4    O4    A    
C76   H19   S    
C40   C115  S    
C162  H91   S    
C8    O16   A    
C99   C100  A    
C97   C98   A    
C33   C73   S    
C95   C96   A    
C92   H32   S    
Cu6   O25   S    
C159  H88   S    
C131  C132  A    
C71   O47   A    
C107  H45   S    
C112  H49   S    
C128  C129  A    
Cu4   O20   S    
C135  C136  A    
C2    O2    A    
C49   C57   D    
C93   C94   A    
C161  H90   S    
C152  H82   S    
C88   C89   A    
C6    O14   A    
C63   H15   S    
C52   C60   D    
C113  H50   S    
C66   O34   A    
C53   C61   D    
C166  H94   S    
Cu2   Cu5   S    
C55   C63   D    
C56   C64   D    
C70   O46   A    
C35   C43   D    
C36   C52   S    
C1    O9    A    
C146  H77   S    
C121  C122  A    
C140  H72   S    
Cu2   O18   S    
C143  H75   S    
C136  H69   S    
Cu11  O41   S    
C127  C132  A    
C111  C112  A    
C122  H57   S    
C9    O25   A    
C11   O27   A    
C152  C153  A    
C1    C57   S    
C13   O21   A    
C125  H60   S    
Cu11  Cu12  S    
C64   H16   S    
C4    C60   S    
C117  H53   S    
C5    C61   S    
C101  H40   S    
C7    C63   S    
C96   H36   S    
C8    C64   S    
C74   H17   S    
C7    O7    A    
Cu3   O32   S    
C150  H81   S    
C163  C168  A    
C22   C30   T    
C139  C144  A    
C134  C135  A    
C53   C145  S    
C136  C137  A    
C85   C90   A    
Cu8   O8    S    
C160  H89   S    
C14   C22   S    
C82   H24   S    
C78   H21   S    
C104  H42   S    
C124  C125  A    
C68   O44   A    
Cu6   O9    S    
C101  C102  A    
C38   C46   D    
Cu5   O21   S    
C72   O40   A    
C15   O31   A    
C103  C104  A    
C115  C116  A    
C48   H8    S    
Cu2   O29   S    
C147  C148  A    
C13   O29   A    
C74   C75   A    
C100  H39   S    
C10   O26   A    
Cu4   O4    S    
C14   O22   A    
C35   C85   S    
C123  C124  A    
C18   C26   T    
Cu7   O28   S    
C80   C81   A    
C137  C138  A    
C11   C19   S    
Cu7   O12   S    
C83   C84   A    
C153  C154  A    
C33   C49   S    
C97   C102  A    
Cu4   O15   S    
C95   H35   S    
C110  H47   S    
Cu11  O34   S    
C54   C151  S    
C39   C55   S    
C3    O11   A    
C107  C108  A    
C40   C56   S    
C103  C108  A    
C75   C76   A    
C45   H5    S    
C47   C66   S    
Cu2   O2    S    
C98   C99   A    
C164  C165  A    
C158  H87   S    
Cu10  O46   S    
C131  H65   S    
C90   H31   S    
C106  C107  A    
C50   C58   D    
C133  C138  A    
C128  H62   S    
C113  C114  A    
C54   C62   D    
C129  C130  A    
C87   C88   A    
Cu2   O13   S    
C161  C162  A    
C67   O35   A    
C73   C78   A    
C149  C150  A    
C38   C54   S    
Cu9   O48   S    
C164  H92   S    
Cu7   O7    S    
C119  H55   S    
C79   C84   A    
C89   H30   S    
C60   H12   S    
C148  H79   S    
C36   C91   S    
C154  C155  A    
C127  C128  A    
C81   C82   A    
Cu8   O24   S    
C84   H26   S    
Cu9   O39   S    
C51   C133  S    
C168  H96   S    
C2    O10   A    
C47   H7    S    
C61   H13   S    
C2    C58   S    
C154  H84   S    
C46   H6    S    
C108  H46   S    
C33   C41   D    
C6    C62   S    
Cu5   O5    S    
C73   C74   A    
C65   O41   A    
C55   C157  S    
C94   C95   A    
Cu8   O11   S    
C42   C71   S    
C119  C120  A    
C16   O32   A    
C153  H83   S    
C159  C160  A    
C102  H41   S    
C139  C140  A    
Cu3   O16   S    
C134  H67   S    
Cu5   O26   S    
C37   C97   S    
C34   C79   S    
C85   C86   A    
C141  H73   S    
C9    O17   A    
C82   C83   A    
C109  C110  A    
C11   O19   A    
Cu9   Cu10  S    
C104  C105  A    
C15   O23   A    
C87   H28   S    
C151  C152  A    
C125  C126  A    
Cu10  O37   S    
Cu11  O44   S    
C115  C120  A    
C77   H20   S    
C7    O15   A    
C116  C117  A    
C62   H14   S    
C105  H43   S    
C157  C158  A    
Cu1   Cu6   S    
C123  H58   S    
C19   C27   T    
Cu3   Cu8   S    
Cu11  O35   S    
C80   H22   S    
C15   C23   S    
C116  H52   S    
C4    O12   A    
C16   C24   S    
C12   O20   A    
C83   H25   S    
Cu5   O10   S    
C59   H11   S    
C8    O8    A    
C69   O37   A    
C155  H85   S    
C34   C50   S    
Cu1   O17   S    
C68   O36   A    
Cu3   O19   S    
C110  C111  A    
C71   O39   A    
Cu12  O43   S    
C145  C146  A    
C75   H18   S    
Cu7   O23   S    
C149  H80   S    
C167  C168  A    
C10   O18   A    
C98   H37   S    
C142  C143  A    
C76   C77   A    
C41   C72   S    
C9    C17   S    
C158  C159  A    
C43   C70   S    
Cu9   O45   S    
C106  H44   S    
C51   C59   D    
C133  C134  A    
C86   C87   A    
C99   H38   S    
C129  H63   S    
C165  H93   S    
Cu8   O27   S    
C25   C27   S    
C41   H1    S    
C26   C28   S    
C126  H61   S    
C43   H3    S    
C79   C80   A    
C58   H10   S    
C37   C53   S    
C46   C67   S    
C29   C31   S    
C30   C32   S    
C112  C113  A    
C114  H51   S    
C91   C96   A    
C166  C167  A    
Cu6   O22   S    
C81   H23   S    
C44   C69   S    
C93   H33   S    
C57   H9    S    
C77   C78   A    
C44   H4    S    
C88   H29   S    
C65   O33   A    
Cu12  O36   S    
C3    C59   S    
