data_mof_unit_54375.cif
_audit_creation_date              2013-03-05T16:48:11-0500
_audit_creation_method            fapswitch 2.2
_symmetry_space_group_name_H-M    P1
_symmetry_Int_Tables_number       1
_space_group_crystal_system       triclinic
_cell_length_a                    10.798292
_cell_length_b                    12.36253
_cell_length_c                    13.232559
_cell_angle_alpha                 117.152618
_cell_angle_beta                  76.420391
_cell_angle_gamma                 101.289033
_cell_volume                      1519.81594808

loop_
_atom_site_label
_atom_site_type_symbol
_atom_site_description
_atom_site_fract_x
_atom_site_fract_y
_atom_site_fract_z
_atom_type_partial_charge
O1    O     O_R   0.536940 0.972510 0.318130 -0.599090
O2    O     O_R   0.487330 0.806530 0.359650 -0.595329
C1    C     C_R   0.515070 0.854800 0.286539 0.771501
O3    O     O_R   0.705160 0.082990 0.479250 -0.577595
O4    O     O_R   0.655550 0.917010 0.520760 -0.594399
C2    C     C_R   0.737014 0.001013 0.502011 0.776273
Cu1   Cu    Cu3+1 0.529370 0.098270 0.475420 1.010914
Cu2   Cu    Cu3+1 0.470630 0.901730 0.524580 0.942552
O5    O     O_R   0.512670 0.193470 0.640350 -0.503355
O6    O     O_R   0.463060 0.027490 0.681870 -0.583052
O7    O     O_R   0.344450 0.082990 0.479240 -0.531987
O8    O     O_R   0.294840 0.917010 0.520750 -0.609304
C3    C     C_R   0.481631 0.144881 0.713333 0.828541
C4    C     C_R   0.263144 0.998564 0.497406 0.806120
H1    H     H_    0.546555 0.769748 0.820400 0.157370
C5    C     C_R   0.635615 0.934800 0.802478 0.481151
C6    C     C_R   0.733286 0.982314 0.738778 -0.070016
H2    H     H_    0.742196 0.078739 0.759723 0.120410
C7    C     C_R   0.815556 0.905129 0.644932 0.034068
C8    C     C_R   0.803491 0.780405 0.618800 -0.150244
H3    H     H_    0.865880 0.719587 0.546514 0.172684
C9    C     C_R   0.707304 0.732685 0.682995 -0.183306
H4    H     H_    0.696882 0.636023 0.661184 0.186564
C10   C     C_R   0.622368 0.808850 0.773329 -0.228889
C11   C     C_R   0.037847 0.950512 0.562581 -0.203149
H5    H     H_    0.067014 0.915102 0.613884 0.156314
C12   C     C_R   0.129602 0.997084 0.494379 -0.084460
C13   C     C_R   0.092165 0.044971 0.428599 0.058004
C14   C     C_R   0.962536 0.047342 0.435166 -0.131109
H6    H     H_    0.933107 0.081578 0.383073 0.176038
C15   C     C_R   0.870792 0.001661 0.504097 -0.090843
C16   C     C_R   0.908430 0.952931 0.569066 0.031697
C17   C     C_R   0.195874 0.210844 0.365872 0.480437
C18   C     C_R   0.289495 0.250125 0.291984 -0.208021
H7    H     H_    0.300354 0.344008 0.304008 0.127489
C19   C     C_R   0.370564 0.168606 0.202698 -0.121133
H8    H     H_    0.442737 0.199714 0.146894 0.166378
C20   C     C_R   0.358572 0.047144 0.185323 -0.083954
H9    H     H_    0.421916 0.984194 0.116723 0.137992
C21   C     C_R   0.265768 0.006748 0.257209 -0.188315
H10   H     H_    0.258276 0.912317 0.242928 0.124394
C22   C     C_R   0.185171 0.088251 0.348915 0.084444
C23   C     C_R   0.286954 0.289693 0.004221 0.317167
H11   H     H_    0.284989 0.110743 0.864026 0.189779
H12   H     H_    0.215891 0.483561 0.204119 0.205192
C24   C     C_R   0.451947 0.226956 0.835159 -0.160256
C25   C     C_R   0.629034 0.807822 0.089434 -0.170957
C26   C     C_R   0.665104 0.724934 0.976596 -0.188954
C27   C     C_R   0.610377 0.604375 0.937473 -0.045666
C28   C     C_R   0.516625 0.563612 0.011055 0.151283
C29   C     C_R   0.469625 0.652330 0.121632 0.066352
C30   C     C_R   0.463566 0.439195 0.976558 0.021203
C31   C     C_R   0.348930 0.410357 0.043465 -0.057029
C32   C     C_R   0.299571 0.502196 0.148720 -0.132406
C33   C     C_R   0.358645 0.620494 0.187041 -0.207288
C34   C     C_R   0.522024 0.342183 0.879312 0.394692
C35   C     C_R   0.338435 0.200007 0.899291 -0.243613
C36   C     C_R   0.533538 0.772044 0.163442 -0.095429
H13   H     H_    0.678368 0.899296 0.119720 0.166262
H14   H     H_    0.639632 0.546808 0.847713 0.224230
H15   H     H_    0.738071 0.753612 0.919570 0.167071
H16   H     H_    0.312692 0.687798 0.266976 0.168227
C37   C     C_R   0.676458 0.323498 0.300493 0.362635
H17   H     H_    0.695716 0.147354 0.285503 0.168142
N1    N     N_R   0.573890 0.246290 0.438210 -0.267563
C38   C     C_R   0.321393 0.758738 0.641737 0.085842
C39   C     C_R   0.271017 0.656066 0.660343 -0.273458
C40   C     C_R   0.332748 0.550142 0.599604 -0.099701
C41   C     C_R   0.450435 0.547118 0.524444 0.020534
C42   C     C_R   0.491153 0.650632 0.500669 0.233308
C43   C     C_R   0.524046 0.443178 0.466807 -0.216143
C44   C     C_R   0.620946 0.435372 0.370630 -0.137049
C45   C     C_R   0.661298 0.540102 0.349339 0.260879
C46   C     C_R   0.596629 0.644263 0.413871 -0.233211
C47   C     C_R   0.508924 0.348439 0.503299 0.485491
C48   C     C_R   0.653210 0.232307 0.338359 -0.005831
N2    N     N_R   0.426890 0.754320 0.561170 -0.199560
H18   H     H_    0.272075 0.840380 0.686975 0.133365
H19   H     H_    0.282290 0.470408 0.608448 0.220829
H20   H     H_    0.182038 0.657251 0.719089 0.171475
H21   H     H_    0.633517 0.719828 0.393904 0.230820
N3    N     N_R   0.166172 0.258612 0.063815 0.115374
O9    O     O_R   0.070203 0.321248 0.090139 -0.273896
O10   O     O_R   0.143906 0.153481 0.068399 -0.359127
O11   O     O_3   0.649275 0.358908 0.833019 -0.722776
H22   H     H_    0.682333 0.278719 0.781679 0.321086
O12   O     O_3   0.553658 0.012937 0.890746 -0.743269
H23   H     H_    0.486514 0.964397 0.922723 0.312652
N4    N     N_R   0.777044 0.548696 0.272049 0.131215
O13   O     O_R   0.781139 0.602473 0.206465 -0.356662
O14   O     O_R   0.883395 0.522116 0.281405 -0.295235
O15   O     O_3   0.746030 0.295985 0.191664 -0.636404
H24   H     H_    0.708622 0.333933 0.155505 0.351676
N5    N     N_R   0.442027 0.367789 0.616312 0.125295
O16   O     O_R   0.332616 0.305738 0.630434 -0.355270
O17   O     O_R   0.481661 0.459624 0.705567 -0.416269
O18   O     O_3   0.116193 0.290428 0.455806 -0.723684
H25   H     H_    0.134444 0.371343 0.453910 0.320844

loop_
_geom_bond_atom_site_label_1
_geom_bond_atom_site_label_2
_geom_bond_distance
_ccdc_geom_bond_type
C43   C47   1.426845 A    
O12   H23   0.991042 S    
C45   C46   1.394055 A    
C7    C8    1.403522 A    
O18   H25   0.991710 S    
C34   O11   1.383918 S    
Cu1   Cu2   2.715615 S    
C31   C32   1.399280 A    
Cu1   O7    1.959379 S    
C27   H14   1.075798 S    
O4    C2    1.299551 A    
C17   C22   1.412028 A    
C13   C14   1.387228 A    
C3    C24   1.456981 S    
O7    C4    1.299649 A    
C37   C48   1.389490 A    
C33   H16   1.081316 S    
C18   H7    1.083080 S    
C41   C43   1.444074 A    
O5    C3    1.305557 A    
C23   C31   1.417062 A    
C15   C16   1.414143 A    
C40   C41   1.413032 A    
C37   O15   1.377991 S    
C42   C46   1.400314 A    
C5    O12   1.378434 S    
C28   C30   1.428068 A    
C4    C12   1.448274 S    
N4    O14   1.301457 A    
C18   C19   1.396714 A    
C40   H19   1.071106 S    
C21   C22   1.405930 A    
C38   C39   1.385502 A    
C5    C10   1.408614 A    
C42   N2    1.384314 A    
C41   C42   1.418500 A    
O3    Cu1   1.958530 S    
C7    C16   1.483074 S    
C6    H2    1.083117 S    
C38   H18   1.081627 S    
C39   C40   1.390913 A    
O3    C2    1.303778 A    
C5    C6    1.399917 A    
C29   C33   1.406905 A    
C28   C29   1.416310 A    
C11   H5    1.085043 S    
O11   H22   0.990797 S    
O1    C1    1.305643 A    
C14   H6    1.084933 S    
Cu1   N1    2.046677 S    
C25   C26   1.384868 A    
H11   C35   1.084303 S    
Cu2   O8    1.958529 S    
C17   C18   1.410941 A    
H17   C48   1.081846 S    
C29   C36   1.415892 A    
C8    H3    1.083233 S    
N5    O17   1.300121 A    
N1    C48   1.351802 A    
Cu2   O6    1.942215 S    
C21   H10   1.083489 S    
C8    C9    1.397005 A    
H12   C32   1.080992 S    
N3    O9    1.301286 A    
N3    O10   1.301322 A    
C24   C35   1.394022 A    
Cu2   N2    2.034571 S    
C9    C10   1.397363 A    
C46   H21   1.063644 S    
C30   C31   1.429660 A    
Cu1   O5    1.932514 S    
C38   N2    1.355810 A    
C32   C33   1.382971 A    
H1    C10   1.082711 S    
O1    Cu1   1.942216 S    
O2    Cu2   1.932515 S    
C39   H20   1.082619 S    
O8    C4    1.303095 A    
C44   C45   1.414203 A    
O6    C3    1.301336 A    
O4    Cu2   1.959380 S    
C11   C12   1.399512 A    
N1    C47   1.378058 A    
C19   C20   1.395389 A    
O2    C1    1.304852 A    
C45   N4    1.437475 S    
C43   C44   1.423353 A    
C14   C15   1.399695 A    
C25   C36   1.400218 A    
C20   C21   1.395893 A    
C26   H15   1.082382 S    
C20   H9    1.081468 S    
C11   C16   1.385245 A    
C26   C27   1.390374 A    
C13   C22   1.487945 S    
O15   H24   0.990979 S    
C6    C7    1.405036 A    
C2    C15   1.449693 S    
C17   O18   1.380750 S    
N5    O16   1.300592 A    
C23   C35   1.392842 A    
C25   H13   1.083492 S    
C1    C36   1.464936 S    
C37   C44   1.423122 A    
C19   H8    1.082665 S    
C27   C28   1.418489 A    
C24   C34   1.403247 A    
C12   C13   1.414513 A    
C23   N3    1.438020 S    
C9    H4    1.082478 S    
N4    O13   1.301609 A    
C30   C34   1.413884 A    
C47   N5    1.431528 S    
