data_mof_unit_12957.cif
_audit_creation_date              2012-12-11T16:15:08-0500
_audit_creation_method            fapswitch 2.2
_symmetry_space_group_name_H-M    P1
_symmetry_Int_Tables_number       1
_space_group_crystal_system       triclinic
_cell_length_a                    7.293945
_cell_length_b                    23.350017
_cell_length_c                    25.819706
_cell_angle_alpha                 89.980775
_cell_angle_beta                  90.102772
_cell_angle_gamma                 89.86031
_cell_volume                      4397.43029043

loop_
_atom_site_label
_atom_site_type_symbol
_atom_type_description
_atom_site_fract_x
_atom_site_fract_y
_atom_site_fract_z
_atom_type_partial_charge
O1    O     O_R   0.694650 0.802620 0.195790 -0.538442
O2    O     O_R   0.305350 0.197380 0.804210 -0.540470
O3    O     O_R   0.305350 0.197380 0.695790 -0.539324
O4    O     O_R   0.694650 0.802620 0.304210 -0.540491
O5    O     O_R   0.194650 0.697380 0.304210 -0.540607
O6    O     O_R   0.805350 0.302620 0.695790 -0.539778
O7    O     O_R   0.805350 0.302620 0.804210 -0.540430
O8    O     O_R   0.194650 0.697380 0.195790 -0.539991
O9    O     O_R   0.364900 0.809540 0.303840 -0.543324
O10   O     O_R   0.635100 0.190460 0.696160 -0.544791
O11   O     O_R   0.635100 0.190460 0.803840 -0.543312
O12   O     O_R   0.364900 0.809540 0.196160 -0.544898
O13   O     O_R   0.864900 0.690460 0.196160 -0.545060
O14   O     O_R   0.135100 0.309540 0.803840 -0.543887
O15   O     O_R   0.135100 0.309540 0.696160 -0.544877
O16   O     O_R   0.864900 0.690460 0.303840 -0.543930
H1    H     H_    0.336419 0.578404 0.451771 0.143072
H2    H     H_    0.688933 0.417691 0.540902 0.132002
H3    H     H_    0.664014 0.421170 0.951663 0.142867
H4    H     H_    0.310587 0.582467 0.041131 0.131980
H5    H     H_    0.805609 0.964233 0.077923 0.157284
H6    H     H_    0.163494 0.042583 0.921383 0.139404
H7    H     H_    0.190153 0.036438 0.578098 0.132461
H8    H     H_    0.837314 0.956480 0.422678 0.142534
C1    C     C_R   0.532994 0.823418 0.320502 0.695703
C2    C     C_R   0.467393 0.177141 0.679051 0.693941
C3    C     C_R   0.467245 0.176559 0.820506 0.695590
C4    C     C_R   0.532263 0.822908 0.179034 0.694986
C5    C     C_R   0.032713 0.677039 0.179118 0.693597
C6    C     C_R   0.967098 0.322556 0.821199 0.695637
C7    C     C_R   0.967112 0.322973 0.679125 0.694268
C8    C     C_R   0.033076 0.677441 0.321198 0.695364
H9    H     H_    0.876776 0.465950 0.472768 0.148162
H10   H     H_    0.149777 0.542253 0.531223 0.160892
H11   H     H_    0.122823 0.534120 0.972891 0.148253
H12   H     H_    0.850609 0.457595 0.031154 0.161020
H13   H     H_    0.355054 0.959378 0.964673 0.140585
H14   H     H_    0.609199 0.036016 0.029058 0.157840
H15   H     H_    0.651779 0.039566 0.465138 0.161194
H16   H     H_    0.378128 0.966991 0.526897 0.148713
H17   H     H_    0.678630 0.353450 0.615736 0.135822
H18   H     H_    0.334584 0.640162 0.375502 0.137288
H19   H     H_    0.320833 0.646705 0.115899 0.135720
H20   H     H_    0.665918 0.359519 0.875433 0.137506
H21   H     H_    0.166734 0.119487 0.857548 0.139093
H22   H     H_    0.819142 0.888779 0.143547 0.146837
H23   H     H_    0.834498 0.879440 0.358830 0.138512
H24   H     H_    0.179317 0.111257 0.644485 0.137293
O17   O     O_3   0.528130 0.713200 0.250000 -0.381720
O18   O     O_3   0.471870 0.286800 0.750000 -0.381433
O19   O     O_3   0.028130 0.786800 0.250000 -0.381021
O20   O     O_3   0.971870 0.213200 0.750000 -0.381562
V1    V     V_3+5 0.253280 0.756820 0.250000 1.391762
V2    V     V_3+5 0.746720 0.243180 0.750000 1.389922
V3    V     V_3+5 0.753280 0.743180 0.250000 1.390248
V4    V     V_3+5 0.246720 0.256820 0.750000 1.388943
C9    C     C_R   0.039092 0.637022 0.365573 -0.073084
C10   C     C_R   0.964322 0.365259 0.636147 -0.085011
C11   C     C_R   0.961296 0.362956 0.865571 -0.073163
C12   C     C_R   0.035272 0.634782 0.136134 -0.085002
C13   C     C_R   0.532552 0.866130 0.136777 -0.107977
C14   C     C_R   0.461521 0.131398 0.860996 -0.073376
C15   C     C_R   0.465312 0.134307 0.636584 -0.084049
C16   C     C_R   0.539176 0.868505 0.361014 -0.073344
C17   C     C_R   0.875884 0.614556 0.386402 -0.237126
C18   C     C_R   0.127025 0.393610 0.622162 -0.217829
C19   C     C_R   0.124450 0.385574 0.886445 -0.237428
C20   C     C_R   0.872649 0.606359 0.122062 -0.217710
C21   C     C_R   0.367779 0.878847 0.110670 -0.177820
C22   C     C_R   0.624354 0.111275 0.884338 -0.241749
C23   C     C_R   0.628306 0.121996 0.609656 -0.216175
C24   C     C_R   0.376238 0.889153 0.383651 -0.235843
C25   C     C_R   0.879501 0.579704 0.430724 0.322001
C26   C     C_R   0.132270 0.431825 0.580257 0.315615
C27   C     C_R   0.120840 0.420416 0.930768 0.322187
C28   C     C_R   0.867462 0.568089 0.080194 0.315803
C29   C     C_R   0.357818 0.921429 0.072478 0.334584
C30   C     C_R   0.620332 0.066521 0.920742 0.328176
C31   C     C_R   0.633706 0.080599 0.570287 0.316505
C32   C     C_R   0.380270 0.933922 0.419959 0.322265
C33   C     C_R   0.048134 0.565111 0.453667 0.110052
C34   C     C_R   0.971798 0.441399 0.550832 0.094093
C35   C     C_R   0.952220 0.434821 0.953667 0.110330
C36   C     C_R   0.027877 0.558597 0.050874 0.094036
C37   C     C_R   0.518528 0.952550 0.059775 0.059288
C38   C     C_R   0.451477 0.042640 0.935470 0.130396
C39   C     C_R   0.473260 0.049663 0.558112 0.093501
C40   C     C_R   0.549128 0.957304 0.435459 0.109928
C41   C     C_R   0.208885 0.588035 0.433357 -0.222041
C42   C     C_R   0.810797 0.412176 0.564163 -0.203960
C43   C     C_R   0.791559 0.411726 0.933306 -0.222325
C44   C     C_R   0.188748 0.587919 0.064290 -0.204122
C45   C     C_R   0.682465 0.940167 0.086344 -0.183465
C46   C     C_R   0.291328 0.061900 0.911507 -0.230413
C47   C     C_R   0.312028 0.061116 0.585864 -0.203195
C48   C     C_R   0.709551 0.937460 0.412235 -0.221327
C49   C     C_R   0.206061 0.623220 0.389706 -0.174779
C50   C     C_R   0.805529 0.375278 0.606792 -0.178058
C51   C     C_R   0.794410 0.376581 0.889661 -0.174534
C52   C     C_R   0.193981 0.624826 0.106889 -0.178468
C53   C     C_R   0.690507 0.896964 0.123847 -0.168717
C54   C     C_R   0.294729 0.105995 0.875086 -0.174064
C55   C     C_R   0.306438 0.103640 0.623970 -0.178552
C56   C     C_R   0.706260 0.893355 0.375811 -0.174411
C57   C     C_2   0.060633 0.528094 0.500182 -0.155444
C58   C     C_2   0.967264 0.478648 0.504182 -0.134300
C59   C     C_2   0.939605 0.471814 0.000180 -0.155794
C60   C     C_2   0.032538 0.521343 0.004242 -0.134913
C61   C     C_2   0.523334 0.999201 0.020623 -0.162386
C62   C     C_2   0.438522 0.996147 0.974385 -0.199160
C63   C     C_2   0.468803 0.002820 0.519142 -0.134663
C64   C     C_2   0.562202 0.004018 0.474212 -0.156418
H25   H     H_    0.744212 0.625607 0.369650 0.131674
H26   H     H_    0.252931 0.384930 0.642952 0.142094
H27   H     H_    0.256056 0.374647 0.869725 0.131600
H28   H     H_    0.746839 0.615017 0.142770 0.141874
H29   H     H_    0.242951 0.856698 0.121063 0.141452
H30   H     H_    0.755793 0.129061 0.873457 0.130944
H31   H     H_    0.753885 0.143811 0.619927 0.139112
H32   H     H_    0.244559 0.871883 0.372204 0.130947
N1    N     N_2   0.303081 0.454566 0.563840 -0.535058
H33   H     H_    0.381690 0.424682 0.544710 0.251890
C65   C     C_3   0.404130 0.486963 0.602211 -0.592596
H34   H     H_    0.523462 0.507772 0.583565 0.212195
H35   H     H_    0.456942 0.458502 0.633307 0.197494
H36   H     H_    0.315565 0.520813 0.619263 0.203544
N2    N     N_2   0.712922 0.562515 0.454110 -0.534582
H37   H     H_    0.609694 0.555294 0.427721 0.245862
C66   C     C_3   0.658975 0.597960 0.497562 -0.568122
H38   H     H_    0.541034 0.578243 0.517753 0.198457
H39   H     H_    0.619028 0.641354 0.483815 0.191075
H40   H     H_    0.772357 0.601805 0.526118 0.209500
N3    N     N_2   0.696779 0.545151 0.063725 -0.535237
H41   H     H_    0.618129 0.574814 0.044229 0.251875
C67   C     C_3   0.595723 0.512980 0.102168 -0.592190
H42   H     H_    0.476367 0.492072 0.083523 0.212196
H43   H     H_    0.542866 0.541616 0.133053 0.197465
H44   H     H_    0.684299 0.479231 0.119487 0.203791
N4    N     N_2   0.287451 0.437747 0.954214 -0.534562
H45   H     H_    0.390440 0.445086 0.927875 0.245941
C68   C     C_3   0.342078 0.402305 0.997675 -0.568354
H46   H     H_    0.460587 0.421956 0.017755 0.198638
H47   H     H_    0.381488 0.358876 0.983960 0.191064
H48   H     H_    0.229245 0.398555 0.026301 0.209717
N5    N     N_2   0.786649 0.043527 0.940386 -0.533697
H49   H     H_    0.890276 0.073220 0.943218 0.244313
C69   C     C_3   0.841832 0.990383 0.915923 -0.570732
H50   H     H_    0.959740 0.971629 0.937132 0.193787
H51   H     H_    0.882333 0.998389 0.875083 0.191750
H52   H     H_    0.729234 0.958488 0.916736 0.213425
N6    N     N_2   0.182091 0.935573 0.051649 -0.539714
H53   H     H_    0.165270 0.976273 0.036993 0.263855
C70   C     C_3   0.092921 0.890824 0.022066 -0.594255
H54   H     H_    0.957333 0.906104 0.008235 0.210007
H55   H     H_    0.069219 0.852375 0.046382 0.206692
H56   H     H_    0.177502 0.878769 0.988046 0.190829
N7    N     N_2   0.213843 0.957663 0.438429 -0.534999
H57   H     H_    0.110818 0.927917 0.442042 0.245687
C71   C     C_3   0.159015 0.009595 0.411812 -0.566915
H58   H     H_    0.040251 0.029202 0.431836 0.198321
H59   H     H_    0.119851 0.999734 0.371164 0.192367
H60   H     H_    0.271663 0.041518 0.411915 0.209704
N8    N     N_2   0.804455 0.065289 0.547742 -0.534801
H61   H     H_    0.883351 0.040564 0.572161 0.252341
C72   C     C_3   0.904964 0.111354 0.523296 -0.593590
H62   H     H_    0.816155 0.134175 0.494974 0.203812
H63   H     H_    0.957299 0.142036 0.552595 0.196324
H64   H     H_    0.024612 0.093443 0.502363 0.212284

loop_
_geom_bond_atom_site_label_1
_geom_bond_atom_site_label_2
_ccdc_geom_bond_type
C67   H44   S    
O14   V4    S    
C40   C48   A    
C72   H62   S    
C14   C54   A    
C22   C30   A    
C11   C51   A    
C21   C29   A    
C69   H50   S    
C10   C50   A    
C27   C35   A    
C29   N6    S    
C23   C31   A    
O4    C1    A    
O9    C1    A    
C67   H42   S    
H4    C44   S    
N7    H57   S    
O12   C4    A    
O8    C5    A    
C7    C10   S    
O13   C5    A    
C69   H51   S    
C26   C34   A    
C37   C61   S    
C68   H47   S    
H20   C51   S    
C65   H35   S    
C39   C63   S    
C18   C26   A    
C17   C25   A    
C21   H29   S    
C14   C22   A    
C67   H43   S    
C25   C33   A    
C19   H27   S    
H11   C60   S    
C38   C46   A    
C30   N5    S    
C11   C19   A    
C37   C45   A    
C10   C18   A    
N8    H61   S    
C34   C58   S    
C47   C55   A    
C39   C47   A    
O1    C4    A    
C59   C60   D    
C71   H59   S    
O2    C3    A    
C70   H55   S    
O12   V1    S    
C66   H40   S    
C33   C41   A    
C4    C13   S    
C30   C38   A    
C16   C24   A    
O6    C7    A    
C29   C37   A    
C72   H63   S    
O7    C6    A    
H12   C59   S    
H6    C46   S    
C28   C36   A    
C8    C9    S    
O6    V2    S    
C31   C39   A    
N5    C69   S    
O20   V2    S    
N5    H49   S    
H16   C63   S    
H22   C53   S    
C33   C57   S    
H2    C42   S    
C65   H34   S    
C69   H52   S    
H1    C41   S    
H19   C52   S    
C15   C55   A    
C68   H48   S    
C45   C53   A    
C65   H36   S    
O17   V3    S    
H24   C55   S    
O18   V4    S    
C24   C32   A    
C41   C49   A    
O19   V1    S    
C1    C16   S    
C13   C53   A    
C2    C15   S    
N2    C66   S    
C3    C14   S    
O3    V4    S    
C71   H58   S    
C5    C12   S    
O11   C3    A    
N6    H53   S    
C9    C49   A    
C6    C11   S    
C24   H32   S    
H13   C62   S    
C71   H60   S    
C20   C28   A    
H14   C61   S    
C46   C54   A    
N1    H33   S    
O11   V2    S    
C20   H28   S    
H15   C64   S    
C15   C23   A    
C72   H64   S    
C48   C56   A    
O4    V3    S    
N3    H41   S    
C28   N3    S    
H18   C49   S    
C19   C27   A    
N2    H37   S    
C44   C52   A    
C66   H38   S    
C13   C21   A    
C16   C56   A    
H23   C56   S    
C18   H26   S    
C63   C64   D    
C38   C62   S    
H17   C50   S    
H10   C57   S    
C17   H25   S    
O3    C2    A    
H9    C58   S    
C31   N8    S    
C12   C52   A    
C27   N4    S    
O8    V1    S    
N4    H45   S    
O15   C7    A    
O16   C8    A    
C35   C43   A    
C57   C58   D    
C34   C42   A    
C23   H31   S    
C43   C51   A    
O15   V4    S    
O5    C8    A    
H8    C48   S    
O5    V1    S    
O16   V3    S    
O14   C6    A    
C32   C40   A    
C25   N2    S    
C68   H46   S    
N4    C68   S    
O10   C2    A    
C32   N7    S    
H5    C45   S    
C22   H30   S    
C9    C17   A    
C70   H56   S    
C36   C60   S    
C35   C59   S    
N6    C70   S    
O1    V3    S    
O10   V2    S    
N1    C65   S    
H3    C43   S    
H21   C54   S    
C40   C64   S    
C26   N1    S    
O9    V1    S    
C12   C20   A    
N7    C71   S    
N3    C67   S    
H7    C47   S    
N8    C72   S    
O2    V4    S    
C36   C44   A    
O7    V2    S    
C66   H39   S    
C70   H54   S    
C61   C62   D    
C42   C50   A    
O13   V3    S    
