data_mof_unit_10938.cif
_audit_creation_date              2012-12-10T22:11:13-0500
_audit_creation_method            fapswitch 2.2
_symmetry_space_group_name_H-M    P1
_symmetry_Int_Tables_number       1
_space_group_crystal_system       triclinic
_cell_length_a                    12.11979
_cell_length_b                    12.34011
_cell_length_c                    23.013991
_cell_angle_alpha                 90.427702
_cell_angle_beta                  90.791089
_cell_angle_gamma                 90.200076
_cell_volume                      3441.51573774

loop_
_atom_site_label
_atom_site_type_symbol
_atom_type_description
_atom_site_fract_x
_atom_site_fract_y
_atom_site_fract_z
_atom_type_partial_charge
C1    C     C_R   0.657743 0.997658 0.578858 0.866770
C2    C     C_R   0.102407 0.839240 0.807628 -0.011617
C3    C     C_R   0.904279 0.248015 0.155003 -0.236051
C4    C     C_R   0.096878 0.752837 0.845412 -0.235266
C5    C     C_R   0.103201 0.913020 0.329653 -0.173299
C6    C     C_R   0.897625 0.085925 0.670013 -0.166268
C7    C     C_R   0.186769 0.912380 0.370958 -0.199402
C8    C     C_R   0.814240 0.086420 0.628613 -0.198460
C9    C     C_R   0.880064 0.094439 0.325283 -0.128639
C10   C     C_R   0.119226 0.906091 0.674641 -0.125579
C11   C     C_R   0.800462 0.094531 0.367546 -0.190745
C12   C     C_R   0.341944 0.002326 0.421357 0.868595
C13   C     C_R   0.198822 0.905745 0.632307 -0.191399
C14   C     C_3   0.993109 0.001796 0.248528 -0.102523
C15   C     C_3   0.007271 0.998950 0.751775 -0.099255
C16   C     C_R   0.654026 0.001589 0.420628 0.869322
C17   C     C_R   0.345869 0.998389 0.579325 0.868057
C18   C     C_R   0.088233 0.003060 0.292959 0.121397
C19   C     C_R   0.911122 0.997151 0.707778 0.110110
C20   C     C_R   0.252780 0.004280 0.379038 -0.018973
C21   C     C_R   0.746177 0.995742 0.621679 -0.020277
C22   C     C_R   0.894986 0.002729 0.289172 0.146037
C23   C     C_R   0.903016 0.810551 0.125936 -0.220839
C24   C     C_R   0.105018 0.997722 0.710865 0.142165
C25   C     C_R   0.736099 0.002074 0.375745 -0.019359
C26   C     C_R   0.263753 0.997914 0.624199 -0.019057
C27   C     C_R   0.996246 0.099481 0.206258 0.002244
C28   C     C_R   0.005316 0.902071 0.794544 0.013675
C29   C     C_R   0.999899 0.269669 0.125098 -0.093826
C30   C     C_R   0.000283 0.729355 0.874223 -0.087025
C31   C     C_R   0.991103 0.902196 0.208189 0.103355
C32   C     C_R   0.009563 0.099086 0.791538 0.118272
C33   C     C_R   0.990370 0.737632 0.123684 -0.067351
C34   C     C_R   0.097502 0.190830 0.873680 -0.227826
C35   C     C_R   0.009894 0.263393 0.875957 -0.075835
C36   C     C_R   0.992603 0.658710 0.076853 0.864350
C37   C     C_R   0.007408 0.341655 0.923011 0.865387
C38   C     C_R   0.999461 0.352893 0.081223 0.887236
C39   C     C_R   0.000568 0.646462 0.918388 0.887338
C40   C     C_R   0.148100 0.098624 0.305822 -0.161260
C41   C     C_R   0.847426 0.902960 0.696979 -0.197004
C42   C     C_R   0.231265 0.098472 0.347604 -0.199199
C43   C     C_R   0.764497 0.903064 0.654952 -0.192020
C44   C     C_R   0.829638 0.909773 0.298323 -0.180066
C45   C     C_R   0.076061 0.824500 0.207013 -0.255538
C46   C     C_R   0.170886 0.090372 0.701734 -0.182393
C47   C     C_R   0.750588 0.909948 0.341035 -0.189964
C48   C     C_R   0.249812 0.089949 0.659004 -0.188411
C49   C     C_R   0.094332 0.121946 0.173045 0.187568
C50   C     C_R   0.908258 0.880493 0.828418 0.189907
C51   C     C_R   0.092753 0.206344 0.133191 -0.201890
C52   C     C_R   0.906853 0.791559 0.865255 -0.217393
C53   C     C_R   0.903095 0.891326 0.167809 -0.157420
C54   C     C_R   0.097657 0.110201 0.831828 -0.163059
C55   C     C_3   0.200609 0.055603 0.173475 -0.409913
C56   C     C_R   0.924599 0.176756 0.792449 -0.228642
C57   C     C_3   0.304218 0.124051 0.186261 -0.853578
C58   C     C_3   0.803917 0.948930 0.830058 -0.416737
C59   C     C_3   0.794242 0.009412 0.888039 -0.830087
C60   C     C_1   0.787377 0.135730 0.209972 0.139595
C61   C     C_1   0.213689 0.865114 0.790074 0.138661
C62   C     C_1   0.162354 0.662016 0.169459 0.174710
C63   C     C_1   0.837692 0.338752 0.830289 0.175840
C64   C     C_R   0.075346 0.741890 0.166053 -0.000568
C65   C     C_R   0.925126 0.259339 0.833447 -0.006903
C66   C     C_R   0.898864 0.161744 0.192760 -0.009877
H1    H     H_    0.278828 0.171861 0.355086 0.156840
H2    H     H_    0.951151 0.156208 0.673427 0.140961
H3    H     H_    0.930574 0.166251 0.320450 0.129565
H4    H     H_    0.068018 0.834706 0.679403 0.131947
H5    H     H_    0.701440 0.837543 0.347192 0.157513
H6    H     H_    0.299339 0.162133 0.652925 0.157414
H7    H     H_    0.163944 0.220690 0.106343 0.170962
H8    H     H_    0.833000 0.774070 0.889620 0.169056
H9    H     H_    0.836009 0.806994 0.094302 0.161378
H10   H     H_    0.164410 0.194359 0.905373 0.164606
H11   H     H_    0.830737 0.295707 0.146452 0.170525
H12   H     H_    0.714555 0.830840 0.648668 0.158092
H13   H     H_    0.170672 0.705801 0.854390 0.170096
H14   H     H_    0.198811 0.840443 0.396954 0.157028
H15   H     H_    0.804040 0.157242 0.601548 0.155733
H16   H     H_    0.790851 0.166159 0.394479 0.153673
H17   H     H_    0.207990 0.834226 0.605247 0.153418
H18   H     H_    0.130669 0.174181 0.284190 0.142639
H19   H     H_    0.861597 0.828468 0.720224 0.142784
H20   H     H_    0.327264 0.172597 0.147877 0.251151
H21   H     H_    0.291736 0.179563 0.223678 0.263560
H22   H     H_    0.374653 0.069865 0.196679 0.259381
H23   H     H_    0.841273 0.835123 0.274402 0.147574
H24   H     H_    0.201454 0.990092 0.204984 0.225049
H25   H     H_    0.209509 0.016097 0.130241 0.209905
H26   H     H_    0.780106 0.951835 0.924043 0.248133
H27   H     H_    0.870558 0.056550 0.897712 0.276935
H28   H     H_    0.723446 0.066208 0.885949 0.251255
H29   H     H_    0.796705 0.008501 0.795323 0.222796
H30   H     H_    0.730686 0.895278 0.823988 0.202901
H31   H     H_    0.159821 0.165075 0.725676 0.146793
H32   H     H_    0.834689 0.946803 0.167744 0.154283
H33   H     H_    0.166083 0.054724 0.831960 0.155679
H34   H     H_    0.146555 0.828174 0.236002 0.146187
H35   H     H_    0.853969 0.172472 0.763558 0.146220
H36   H     H_    0.051015 0.841912 0.325373 0.143135
N1    N     N_1   0.697720 0.115703 0.223077 -0.200955
N2    N     N_1   0.303189 0.885061 0.776665 -0.199358
N3    N     N_1   0.231904 0.598162 0.172304 -0.201959
N4    N     N_1   0.767771 0.402239 0.827650 -0.204173
O1    O     O_R   0.621380 0.090460 0.561410 -0.628819
O2    O     O_R   0.912410 0.372520 0.941210 -0.613169
O3    O     O_R   0.905660 0.383870 0.059980 -0.626582
O4    O     O_R   0.094340 0.616130 0.940020 -0.626602
O5    O     O_R   0.092570 0.390420 0.063230 -0.625592
O6    O     O_R   0.907430 0.609580 0.936770 -0.626184
O7    O     O_R   0.900680 0.620930 0.055550 -0.628817
O8    O     O_R   0.099320 0.379070 0.944450 -0.629522
O9    O     O_R   0.378620 0.909540 0.438590 -0.629454
O10   O     O_R   0.617150 0.909540 0.438590 -0.627606
O11   O     O_R   0.382850 0.090460 0.561410 -0.627987
O12   O     O_R   0.619720 0.093230 0.440890 -0.628201
O13   O     O_R   0.380280 0.906770 0.559110 -0.628320
O14   O     O_R   0.618800 0.906770 0.559110 -0.625309
O15   O     O_R   0.381200 0.093230 0.440890 -0.626095
O16   O     O_R   0.087590 0.627480 0.058790 -0.612071
Zn1   Zn    Zn3+2 0.501730 0.123520 0.501540 0.948529
Zn2   Zn    Zn3+2 0.498270 0.876480 0.498460 0.948815
Zn3   Zn    Zn3+2 0.125690 0.504390 0.002180 0.967497
Zn4   Zn    Zn3+2 0.874310 0.495610 0.997820 0.966962

loop_
_geom_bond_atom_site_label_1
_geom_bond_atom_site_label_2
_ccdc_geom_bond_type
C63   C65   S    
C1    C21   S    
C40   H18   S    
C2    C4    A    
O1    Zn1   S    
C14   C31   S    
C49   C51   A    
C15   C32   S    
C62   N3    T    
O13   Zn2   S    
C43   H12   S    
C15   C19   S    
C6    C19   A    
C17   C26   S    
C35   C37   S    
C9    H3    S    
C56   H35   S    
C55   H24   S    
C52   H8    S    
O7    Zn4   S    
C9    C22   A    
C35   C65   A    
C56   C65   A    
C33   C36   S    
C57   H20   S    
C34   C35   A    
C3    C29   A    
C58   H30   S    
C55   H25   S    
C21   C43   A    
C28   C50   A    
C39   O4    A    
C22   C44   A    
C12   O15   A    
C23   C33   A    
C29   C38   S    
O5    Zn3   S    
C50   C52   A    
C59   H28   S    
C14   C27   S    
C60   N1    T    
C25   C47   A    
O6    Zn4   S    
C44   C47   A    
C17   O11   A    
C59   H26   S    
C12   O9    A    
C40   C42   A    
C60   C66   S    
C41   C43   A    
C48   H6    S    
C36   O7    A    
C16   O10   A    
C32   C54   A    
C23   C53   A    
C11   H16   S    
C46   C48   A    
C8    H15   S    
C50   C58   S    
C61   N2    T    
C37   O2    A    
C5    C7    A    
O8    Zn3   S    
C6    C8    A    
C5    C18   A    
C10   C24   A    
C58   C59   S    
C49   C55   S    
C45   H34   S    
C57   H21   S    
O14   Zn2   S    
C38   O3    A    
C1    O14   A    
C36   O16   A    
C58   H29   S    
C16   O12   A    
C12   C20   S    
C8    C21   A    
C31   C53   A    
C63   N4    T    
C9    C11   A    
C47   H5    S    
C4    H13   S    
C10   H4    S    
C39   O6    A    
C46   H31   S    
C1    O1    A    
C34   C54   A    
C55   C57   S    
C42   H1    S    
C13   C26   A    
C3    C66   A    
C3    H11   S    
C29   C51   A    
C16   C25   S    
C30   C52   A    
C5    H36   S    
C15   C24   S    
O9    Zn2   S    
O10   Zn2   S    
C14   C18   S    
C51   H7    S    
C23   H9    S    
C10   C13   A    
C20   C42   A    
C2    C61   S    
C37   O8    A    
C26   C48   A    
C53   H32   S    
C41   H19   S    
C13   H17   S    
C45   C64   A    
C57   H22   S    
C24   C46   A    
C14   C22   S    
O16   Zn3   S    
C62   C64   S    
O11   Zn1   S    
C27   C66   A    
C15   C28   S    
C33   C64   A    
C6    H2    S    
C30   C39   S    
O12   Zn1   S    
C54   H33   S    
O15   Zn1   S    
C17   O13   A    
O4    Zn3   S    
C27   C49   A    
O3    Zn4   S    
C18   C40   A    
C7    C20   A    
C31   C45   A    
C11   C25   A    
C2    C28   A    
C59   H27   S    
O2    Zn4   S    
C38   O5    A    
C32   C56   A    
C4    C30   A    
C44   H23   S    
C19   C41   A    
C34   H10   S    
C7    H14   S    
