data_mof_unit_49301.cif
_audit_creation_date              2012-12-11T14:17:49-0500
_audit_creation_method            fapswitch 2.2
_symmetry_space_group_name_H-M    P1
_symmetry_Int_Tables_number       1
_space_group_crystal_system       triclinic
_cell_length_a                    11.303427
_cell_length_b                    11.303443
_cell_length_c                    19.051704
_cell_angle_alpha                 90.159259
_cell_angle_beta                  89.840733
_cell_angle_gamma                 120.220714
_cell_volume                      2103.35659443

loop_
_atom_site_label
_atom_site_type_symbol
_atom_type_description
_atom_site_fract_x
_atom_site_fract_y
_atom_site_fract_z
_atom_type_partial_charge
Br1   Br    Br    0.272786 0.899116 0.412054 -0.505849
Br2   Br    Br    0.120481 0.365116 0.400429 -0.506063
Br3   Br    Br    0.631573 0.738851 0.405993 -0.486081
Br4   Br    Br    0.899122 0.272787 0.587943 -0.505842
Br5   Br    Br    0.365127 0.120482 0.599570 -0.506044
Br6   Br    Br    0.738846 0.631569 0.594005 -0.486075
C1    C     C_R   0.519833 0.455045 0.146707 0.558496
C2    C     C_R   0.033191 0.424202 0.532969 0.104598
C3    C     C_R   0.415549 0.015672 0.539950 0.114126
C4    C     C_R   0.585697 0.597584 0.536108 0.113648
C5    C     C_R   0.677808 0.912921 0.550492 -0.012084
C6    C     C_R   0.107302 0.781470 0.553230 -0.007304
C7    C     C_R   0.223875 0.318110 0.553025 -0.010784
C8    C     C_R   0.912922 0.677805 0.449508 -0.012079
C9    C     C_R   0.781470 0.107301 0.446770 -0.007298
C10   C     C_R   0.318114 0.223876 0.446976 -0.010783
C11   C     C_R   0.805371 0.957056 0.524812 -0.084180
C12   C     C_R   0.544875 0.064541 0.146794 0.557639
C13   C     C_R   0.048146 0.853991 0.530838 -0.073878
C14   C     C_R   0.144008 0.189096 0.527891 -0.078225
C15   C     C_R   0.957055 0.805367 0.475188 -0.084179
C16   C     C_R   0.853994 0.048147 0.469162 -0.073874
C17   C     C_R   0.189100 0.144006 0.472110 -0.078224
C18   C     C_R   0.540028 0.428371 0.361265 0.530751
C19   C     C_R   0.575721 0.119455 0.360952 0.534410
C20   C     C_R   0.921697 0.475159 0.357136 0.562859
C21   C     C_R   0.428368 0.540030 0.638734 0.530741
C22   C     C_R   0.119457 0.575722 0.639048 0.534404
C23   C     C_R   0.935226 0.480235 0.146699 0.553341
C24   C     C_R   0.475150 0.921678 0.642860 0.562836
C25   C     C_R   0.502945 0.989773 0.925929 -0.003285
C26   C     C_R   0.009240 0.512681 0.925665 -0.003858
C27   C     C_R   0.486955 0.497147 0.925790 -0.003735
C28   C     C_R   0.989773 0.502945 0.074071 -0.003284
C29   C     C_R   0.512681 0.009240 0.074334 -0.003858
C30   C     C_R   0.497147 0.486954 0.074210 -0.003735
C31   C     C_R   0.402367 0.003480 0.963090 0.028490
C32   C     C_R   0.995086 0.398166 0.962494 0.028340
C33   C     C_R   0.601764 0.597883 0.962758 0.028276
C34   C     C_R   0.455045 0.519833 0.853293 0.558497
C35   C     C_R   0.003480 0.402367 0.036910 0.028490
C36   C     C_R   0.398165 0.995086 0.037506 0.028340
C37   C     C_R   0.597883 0.601764 0.037242 0.028276
C38   C     C_R   0.617301 0.005648 0.036162 -0.139122
C39   C     C_R   0.993434 0.611184 0.036163 -0.138889
C40   C     C_R   0.388500 0.382115 0.036154 -0.139147
C41   C     C_R   0.005647 0.617301 0.963838 -0.139123
C42   C     C_R   0.611185 0.993434 0.963837 -0.138889
C43   C     C_R   0.382116 0.388499 0.963846 -0.139147
C44   C     C_R   0.305792 0.025916 0.928594 -0.084432
C45   C     C_R   0.064541 0.544875 0.853206 0.557639
C46   C     C_R   0.973004 0.279221 0.927570 -0.084283
C47   C     C_R   0.720927 0.695123 0.927958 -0.085054
C48   C     C_R   0.025917 0.305792 0.071406 -0.084431
C49   C     C_R   0.279220 0.973003 0.072430 -0.084283
C50   C     C_R   0.695122 0.720927 0.072042 -0.085054
C51   C     C_R   0.196161 0.017707 0.965415 -0.141914
C52   C     C_R   0.982817 0.178598 0.963792 -0.141592
C53   C     C_R   0.822484 0.805297 0.964535 -0.141591
C54   C     C_R   0.017708 0.196162 0.034585 -0.141914
C55   C     C_R   0.178597 0.982816 0.036207 -0.141592
C56   C     C_R   0.480235 0.935226 0.853301 0.553346
C57   C     C_R   0.805296 0.822485 0.035466 -0.141591
C58   C     C_R   0.496035 0.969299 0.570373 0.015450
C59   C     C_R   0.081285 0.552430 0.564468 -0.001974
C60   C     C_R   0.456283 0.518200 0.566196 0.009090
C61   C     C_R   0.969314 0.496041 0.429625 0.015454
C62   C     C_R   0.552428 0.081281 0.435532 -0.001970
C63   C     C_R   0.518197 0.456287 0.433803 0.009094
C64   C     C_R   0.605009 0.977281 0.530945 0.047314
C65   C     C_R   0.062135 0.649268 0.527912 0.047895
C66   C     C_R   0.358602 0.401598 0.529333 0.051491
C67   C     C_R   0.424200 0.033184 0.467029 0.104597
C68   C     C_R   0.977287 0.605010 0.469054 0.047312
C69   C     C_R   0.649267 0.062131 0.472087 0.047900
C70   C     C_R   0.401598 0.358604 0.470667 0.051492
C71   C     C_R   0.015683 0.415553 0.460048 0.114126
C72   C     C_R   0.597579 0.585701 0.463890 0.113652
Cr1   Cr    Cr6+3 0.768550 0.541320 0.250660 1.050164
Cr2   Cr    Cr6+3 0.458680 0.227230 0.250660 1.051438
Cr3   Cr    Cr6+3 0.772770 0.231450 0.250660 1.048151
Cr4   Cr    Cr6+3 0.541320 0.768550 0.749340 1.050164
Cr5   Cr    Cr6+3 0.227230 0.458680 0.749340 1.051435
Cr6   Cr    Cr6+3 0.231450 0.772770 0.749340 1.048150
H1    H     H_    0.706958 0.015280 0.061940 0.157116
H2    H     H_    0.053457 0.315847 0.126300 0.147223
H3    H     H_    0.261525 0.945344 0.127324 0.146361
H4    H     H_    0.685395 0.738303 0.127054 0.147633
H5    H     H_    0.125311 0.037024 0.937868 0.100131
H6    H     H_    0.965247 0.089189 0.935652 0.100149
H7    H     H_    0.912481 0.876913 0.936621 0.100523
H8    H     H_    0.037026 0.125312 0.062131 0.100132
H9    H     H_    0.089187 0.965246 0.064348 0.100150
H10   H     H_    0.876911 0.912483 0.063379 0.100523
H11   H     H_    0.638605 0.827155 0.585083 0.176335
H12   H     H_    0.984068 0.691350 0.062162 0.157127
H13   H     H_    0.186149 0.829736 0.591454 0.180535
H14   H     H_    0.176475 0.348163 0.591917 0.181158
H15   H     H_    0.827153 0.638598 0.414919 0.176337
H16   H     H_    0.829736 0.186150 0.408547 0.180538
H17   H     H_    0.348171 0.176478 0.408085 0.181155
H18   H     H_    0.862882 0.918121 0.549678 0.135322
H19   H     H_    0.073902 0.946078 0.558300 0.138524
H20   H     H_    0.049003 0.126610 0.553936 0.137121
H21   H     H_    0.918118 0.862877 0.450321 0.135326
H22   H     H_    0.946082 0.073903 0.441700 0.138531
H23   H     H_    0.308227 0.292196 0.062030 0.156539
H24   H     H_    0.126615 0.049001 0.446066 0.137125
H25   H     H_    0.015279 0.706957 0.938059 0.157116
H26   H     H_    0.691351 0.984069 0.937838 0.157127
H27   H     H_    0.292197 0.308227 0.937970 0.156539
H28   H     H_    0.315846 0.053456 0.873700 0.147223
H29   H     H_    0.945344 0.261525 0.872676 0.146361
H30   H     H_    0.738303 0.685397 0.872946 0.147633
O1    O     O_R   0.910960 0.572410 0.171010 -0.514570
O2    O     O_R   0.528530 0.639750 0.824400 -0.500869
O3    O     O_R   0.111220 0.471470 0.824400 -0.502848
O4    O     O_R   0.360250 0.888780 0.824400 -0.502279
O5    O     O_R   0.909330 0.572400 0.331540 -0.522212
O6    O     O_R   0.427600 0.336930 0.331540 -0.500592
O7    O     O_R   0.663070 0.090670 0.331540 -0.490597
O8    O     O_R   0.572400 0.909330 0.668460 -0.522202
O9    O     O_R   0.336930 0.427600 0.668460 -0.500590
O10   O     O_R   0.090670 0.663070 0.668460 -0.490597
O11   O     O_R   0.638240 0.528520 0.324410 -0.465684
O12   O     O_R   0.427590 0.338550 0.171010 -0.511975
O13   O     O_R   0.471480 0.109720 0.324410 -0.473055
O14   O     O_R   0.890280 0.361760 0.324410 -0.500620
O15   O     O_R   0.528520 0.638240 0.675590 -0.465684
O16   O     O_R   0.109720 0.471480 0.675590 -0.473054
O17   O     O_R   0.361760 0.890280 0.675590 -0.500611
O18   O     O_3   0.666667 0.333333 0.250630 -0.327837
O19   O     O_3   0.333333 0.666667 0.749370 -0.327844
O20   O     O_R   0.661450 0.089040 0.171010 -0.511335
O21   O     O_R   0.572410 0.910960 0.828990 -0.514568
O22   O     O_R   0.338550 0.427590 0.828990 -0.511974
O23   O     O_R   0.089040 0.661450 0.828990 -0.511336
O24   O     O_R   0.639750 0.528530 0.175600 -0.500869
O25   O     O_R   0.471470 0.111220 0.175600 -0.502848
O26   O     O_R   0.888780 0.360250 0.175600 -0.502281

loop_
_geom_bond_atom_site_label_1
_geom_bond_atom_site_label_2
_ccdc_geom_bond_type
Cr3   O26   S    
C9    C69   A    
Cr2   O6    S    
Cr2   O18   S    
Cr1   O1    S    
C3    C58   A    
C1    C30   S    
C42   H26   S    
C61   C71   A    
C9    H16   S    
C66   C70   A    
C41   H25   S    
C47   C53   A    
C5    C64   A    
C8    H15   S    
C48   C54   A    
C46   H29   S    
C62   C69   A    
C34   O22   A    
C57   H10   S    
C27   C33   A    
C51   H5    S    
C20   C61   S    
C8    C68   A    
C8    C15   A    
C13   C15   A    
C24   C58   S    
C55   H9    S    
C50   H4    S    
C32   C46   A    
C17   H24   S    
C52   C54   A    
C24   O17   A    
C7    H14   S    
C63   C70   A    
C31   C36   A    
C29   C36   A    
C13   H19   S    
C9    C16   A    
C60   C66   A    
C24   O8    A    
Cr1   O5    S    
C30   C40   A    
C26   C32   A    
C12   C29   S    
C22   O16   A    
Br4   C2    S    
C43   H27   S    
C4    C60   A    
Cr1   O11   S    
C2    C59   A    
C49   H3    S    
C34   O2    A    
C25   C56   S    
C63   C72   A    
C28   C35   A    
C3    C67   A    
C18   C63   S    
C39   C41   A    
C4    C72   A    
Cr6   O19   S    
C18   O6    A    
C27   C34   S    
Cr5   O19   S    
C19   O13   A    
Cr3   O20   S    
C20   O5    A    
Cr5   O16   S    
C39   H12   S    
C48   H2    S    
C21   O9    A    
Cr3   O18   S    
C33   C37   A    
C62   C67   A    
C16   H22   S    
C23   C28   S    
C25   C31   A    
Cr3   O7    S    
C56   O21   A    
C11   H18   S    
C26   C45   S    
Br5   C3    S    
C36   C49   A    
C65   C68   A    
C37   C50   A    
C40   C43   A    
C14   C17   A    
C40   H23   S    
C44   H28   S    
C6    H13   S    
C50   C57   A    
C28   C39   A    
C20   O14   A    
Cr4   O15   S    
C51   C55   A    
C29   C38   A    
C52   H6    S    
Cr5   O22   S    
C46   C52   A    
C32   C35   A    
C45   O23   A    
C7    C66   A    
C6    C65   A    
Cr6   O23   S    
C10   C17   A    
C58   C64   A    
C25   C42   A    
Cr3   O14   S    
C2    C71   A    
C21   O15   A    
C26   C41   A    
C38   H1    S    
C47   H30   S    
C53   H7    S    
C5    H11   S    
C23   O26   A    
C5    C11   A    
C7    C14   A    
C10   C70   A    
C44   C51   A    
Br6   C4    S    
C1    O24   A    
C22   O10   A    
C19   C62   S    
C14   H20   S    
Cr2   O13   S    
Cr6   O10   S    
Cr2   O25   S    
C19   O7    A    
Cr6   O17   S    
C53   C57   A    
C11   C16   A    
Br1   C67   S    
Cr5   O3    S    
Cr4   O19   S    
C22   C59   S    
Cr4   O21   S    
Cr4   O2    S    
C21   C60   S    
C59   C65   A    
C31   C44   A    
Br3   C72   S    
C33   C47   A    
Cr2   O12   S    
Cr1   O18   S    
C49   C55   A    
C6    C13   A    
C45   O3    A    
C12   O20   A    
C61   C68   A    
C1    O12   A    
C23   O1    A    
C12   O25   A    
C35   C48   A    
C56   O4    A    
C10   H17   S    
Cr1   O24   S    
Cr6   O4    S    
C64   C69   A    
Br2   C71   S    
C30   C37   A    
Cr5   O9    S    
C18   O11   A    
C54   H8    S    
C27   C43   A    
Cr4   O8    S    
C15   H21   S    
C38   C42   A    
