data_mof_unit_62834.cif
_audit_creation_date              2012-12-10T19:23:23-0500
_audit_creation_method            fapswitch 2.2
_symmetry_space_group_name_H-M    P1
_symmetry_Int_Tables_number       1
_space_group_crystal_system       triclinic
_cell_length_a                    12.962677
_cell_length_b                    17.739622
_cell_length_c                    16.510983
_cell_angle_alpha                 90.434632
_cell_angle_beta                  96.910051
_cell_angle_gamma                 91.652835
_cell_volume                      3767.36923731

loop_
_atom_site_label
_atom_site_type_symbol
_atom_type_description
_atom_site_fract_x
_atom_site_fract_y
_atom_site_fract_z
_atom_type_partial_charge
C1    C     C_R   0.503676 0.355391 0.500382 0.833621
C2    C     C_R   0.506026 0.114353 0.499744 0.092799
C3    C     C_1   0.498175 0.966196 0.500166 -0.016968
C4    C     C_1   0.501864 0.033807 0.499847 -0.016968
C5    C     C_R   0.565872 0.544367 0.837850 -0.278153
C6    C     C_R   0.434126 0.455636 0.162149 -0.278151
C7    C     C_R   0.567350 0.545292 0.752854 0.354183
C8    C     C_R   0.432647 0.454711 0.247145 0.354186
C9    C     C_R   0.431109 0.453170 0.734822 0.052401
C10   C     C_R   0.568896 0.546827 0.265179 0.052411
C11   C     C_R   0.427721 0.450798 0.820385 0.088057
C12   C     C_R   0.496325 0.644610 0.499618 0.833625
C13   C     C_R   0.572284 0.549199 0.179616 0.088065
C14   C     C_R   0.496298 0.497354 0.873163 0.042704
C15   C     C_R   0.503704 0.502646 0.126837 0.042701
C16   C     C_R   0.300447 0.499727 0.484637 0.850501
C17   C     C_R   0.699553 0.500273 0.515363 0.850506
C18   C     C_1   0.498175 0.498716 0.962715 0.066480
C19   C     C_1   0.501828 0.501284 0.037285 0.066481
C20   C     C_R   0.811956 0.506276 0.523651 -0.067455
C21   C     C_R   0.188044 0.493724 0.476349 -0.067455
C22   C     C_R   0.035111 0.412778 0.447898 -0.137737
C23   C     C_R   0.491289 0.727545 0.498873 -0.084751
C24   C     C_R   0.964890 0.587221 0.552103 -0.137737
C25   C     C_R   0.140165 0.426661 0.444774 -0.208695
C26   C     C_R   0.859835 0.573339 0.555228 -0.208695
C27   C     C_R   0.130816 0.548768 0.511161 0.081368
C28   C     C_R   0.869184 0.451232 0.488839 0.081374
C29   C     C_R   0.024199 0.534498 0.515889 0.094607
C30   C     C_R   0.975801 0.465502 0.484110 0.094604
C31   C     C_R   0.530497 0.847035 0.570686 -0.130118
C32   C     C_R   0.469479 0.152962 0.429331 -0.130114
C33   C     C_R   0.528589 0.768533 0.570116 -0.187861
C34   C     C_R   0.508721 0.272456 0.501128 -0.084736
C35   C     C_R   0.471375 0.231464 0.429897 -0.187879
C36   C     C_R   0.450835 0.767262 0.428348 0.164514
C37   C     C_R   0.549229 0.232746 0.571643 0.164513
C38   C     C_R   0.453325 0.846018 0.429769 -0.154855
C39   C     C_R   0.546751 0.153990 0.570226 -0.154853
C40   C     C_R   0.494006 0.885649 0.500265 0.092792
Cu1   Cu    Cu3+1 0.500000 0.499980 0.580420 1.013335
Cu2   Cu    Cu3+1 0.500000 0.500020 0.419580 1.013339
H1    H     H_    0.002240 0.359685 0.423106 0.188088
H2    H     H_    0.185272 0.383078 0.421073 0.174467
H3    H     H_    0.557773 0.740063 0.625338 0.190490
H4    H     H_    0.442145 0.259930 0.374683 0.190476
H5    H     H_    0.619799 0.580745 0.876620 0.191172
H6    H     H_    0.380197 0.419260 0.123378 0.191173
H7    H     H_    0.997761 0.640313 0.576898 0.188089
H8    H     H_    0.561102 0.877587 0.625867 0.156141
H9    H     H_    0.438837 0.122406 0.374160 0.156138
H10   H     H_    0.423050 0.876426 0.375793 0.162968
H11   H     H_    0.577068 0.123587 0.624196 0.162966
H12   H     H_    0.378231 0.417029 0.695176 0.158049
H13   H     H_    0.621776 0.582965 0.304826 0.158053
H14   H     H_    0.814729 0.616921 0.578932 0.174473
I1    I     I_    0.791873 0.347284 0.445391 -0.323566
I2    I     I_    0.208128 0.652715 0.554612 -0.323580
I3    I     I_    0.318553 0.376384 0.866113 -0.290155
I4    I     I_    0.681459 0.623609 0.133890 -0.290144
I5    I     I_    0.377622 0.715537 0.318603 -0.270944
I6    I     I_    0.622501 0.284486 0.681364 -0.270921
I7    I     I_    0.680294 0.620639 0.714311 -0.350224
I8    I     I_    0.319698 0.379368 0.285686 -0.350226
N1    N     N_R   0.499970 0.499970 0.701220 -0.197783
N2    N     N_R   0.500030 0.500030 0.298780 -0.197783
O1    O     O_R   0.499990 0.391240 0.567930 -0.568675
O2    O     O_R   0.500010 0.608760 0.432070 -0.568666
O3    O     O_R   0.500000 0.391270 0.432120 -0.561709
O4    O     O_R   0.500000 0.608730 0.567880 -0.561718
O5    O     O_R   0.348990 0.499980 0.556880 -0.578824
O6    O     O_R   0.651010 0.500020 0.443120 -0.578828
O7    O     O_R   0.349000 0.500000 0.421060 -0.547493
O8    O     O_R   0.651000 0.500000 0.578940 -0.547488

loop_
_geom_bond_atom_site_label_1
_geom_bond_atom_site_label_2
_ccdc_geom_bond_type
C8    N2    A    
C16   C21   S    
C27   C29   A    
C34   C37   A    
C33   H3    S    
Cu1   Cu2   S    
C14   C18   S    
C37   I6    S    
Cu1   O1    S    
C13   I4    S    
C28   I1    S    
C15   C19   S    
C12   O2    A    
C12   C23   S    
C6    H6    S    
C24   C26   A    
C18   C19   T    
C11   C14   A    
C38   H10   S    
C17   C20   S    
C31   C40   A    
C2    C32   A    
C34   C35   A    
C24   C29   A    
C21   C25   A    
C6    C15   A    
C2    C39   A    
C23   C33   A    
C22   C25   A    
C31   C33   A    
Cu1   O5    S    
C21   C27   A    
Cu1   O8    S    
Cu2   O2    S    
C16   O5    A    
C11   I3    S    
C25   H2    S    
C1    C34   S    
C10   N2    A    
C16   O7    A    
C32   C35   A    
C5    C7    A    
Cu1   N1    S    
C20   C28   A    
C10   C13   A    
Cu2   O3    S    
C1    O3    A    
C2    C4    S    
C32   H9    S    
C29   C30   A    
C7    N1    A    
C5    H5    S    
C22   H1    S    
Cu2   O6    S    
C10   H13   S    
C9    C11   A    
C7    I7    S    
C5    C14   A    
C8    I8    S    
C3    C40   S    
C13   C15   A    
C17   O8    A    
C31   H8    S    
C36   I5    S    
C24   H7    S    
C12   O4    A    
Cu2   O7    S    
C22   C30   A    
C27   I2    S    
C26   H14   S    
C6    C8    A    
C28   C30   A    
C37   C39   A    
C38   C40   A    
C39   H11   S    
C20   C26   A    
C36   C38   A    
C1    O1    A    
C9    N1    A    
C17   O6    A    
C23   C36   A    
Cu2   N2    S    
C9    H12   S    
C35   H4    S    
C3    C4    T    
Cu1   O4    S    
