data_mof_unit_49183.cif
_audit_creation_date              2013-03-05T15:50:44-0500
_audit_creation_method            fapswitch 2.2
_symmetry_space_group_name_H-M    P1
_symmetry_Int_Tables_number       1
_space_group_crystal_system       triclinic
_cell_length_a                    10.641485
_cell_length_b                    12.076042
_cell_length_c                    12.903363
_cell_angle_alpha                 93.575336
_cell_angle_beta                  91.808739
_cell_angle_gamma                 86.178028
_cell_volume                      1650.63927229

loop_
_atom_site_label
_atom_site_type_symbol
_atom_site_description
_atom_site_fract_x
_atom_site_fract_y
_atom_site_fract_z
_atom_type_partial_charge
O1    O     O_R   0.506240 0.421700 0.658830 -0.629869
O2    O     O_R   0.491240 0.609310 0.646410 -0.568889
C1    C     C_R   0.495656 0.522479 0.700420 0.886622
O3    O     O_R   0.692710 0.406190 0.506230 -0.634110
O4    O     O_R   0.677700 0.593810 0.493810 -0.632825
C2    C     C_R   0.742022 0.500249 0.502732 0.843677
Zn1   Zn    Zn3+2 0.510020 0.374730 0.508290 0.929996
Zn2   Zn    Zn3+2 0.489980 0.625270 0.491710 0.969360
O5    O     O_R   0.508760 0.390690 0.353590 -0.631124
O6    O     O_R   0.493760 0.578300 0.341170 -0.635276
O7    O     O_R   0.322300 0.406190 0.506190 -0.639797
O8    O     O_R   0.307290 0.593810 0.493770 -0.611310
C3    C     C_R   0.500987 0.477980 0.299747 0.867107
C4    C     C_R   0.257882 0.499870 0.499799 0.839815
C5    C     C_3   0.938904 0.387927 0.539909 -0.417687
H1    H     H_    0.905577 0.316498 0.490034 0.198255
H2    H     H_    0.912204 0.376634 0.621140 0.179122
C6    C     C_3   0.081596 0.386223 0.534583 -0.437283
H3    H     H_    0.125469 0.365070 0.610795 0.201702
H4    H     H_    0.114140 0.318514 0.477150 0.178995
H5    H     H_    0.885542 0.449623 0.337372 0.149753
H6    H     H_    0.097399 0.442678 0.338330 0.154818
C7    C     C_3   0.919258 0.517226 0.391877 -0.394901
C8    C     C_3   0.922481 0.596113 0.577982 -0.409819
C9    C     C_3   0.878296 0.500090 0.503261 0.114037
H7    H     H_    0.883401 0.677746 0.551400 0.166773
H8    H     H_    0.885028 0.588278 0.656702 0.174630
C10   C     C_3   0.121117 0.500600 0.501507 0.148856
C11   C     C_3   0.064130 0.516303 0.389007 -0.029960
C12   C     C_3   0.067391 0.594922 0.580653 0.027552
H9    H     H_    0.093992 0.676790 0.556439 0.184768
H10   H     H_    0.873982 0.596861 0.365417 0.192584
C13   C     C_R   0.499588 0.465121 0.188332 -0.054321
C14   C     C_R   0.487887 0.537185 0.812136 -0.198730
C15   C     C_R   0.472085 0.650169 0.972782 -0.279831
C16   C     C_R   0.471610 0.643343 0.865139 0.324145
C17   C     C_R   0.499816 0.440668 0.867396 -0.318136
C18   C     C_R   0.498719 0.447940 0.974050 0.186175
C19   C     C_R   0.485394 0.553493 0.026789 0.117733
C20   C     C_R   0.485398 0.561299 0.133325 -0.251008
C21   C     C_R   0.512214 0.359800 0.136436 -0.208275
C22   C     C_R   0.511728 0.351217 0.028842 -0.196618
H11   H     H_    0.474660 0.643106 0.173064 0.161724
H12   H     H_    0.522918 0.284829 0.178653 0.166889
H13   H     H_    0.460291 0.731040 0.014122 0.171740
H14   H     H_    0.522011 0.269692 0.988705 0.146957
H15   H     H_    0.511199 0.358875 0.827852 0.187322
N1    N     N_R   0.523380 0.207800 0.519350 -0.103486
N2    N     N_R   0.476620 0.792180 0.480650 -0.101364
C23   C     C_R   0.383623 0.950718 0.397945 -0.300727
C24   C     C_R   0.395246 0.836053 0.408716 0.013048
C25   C     C_R   0.548464 0.858575 0.543939 0.048053
C26   C     C_R   0.539905 0.974795 0.535794 -0.001020
C27   C     C_R   0.456655 0.022721 0.462172 0.085326
C28   C     C_R   0.448913 0.140614 0.454959 0.256825
C29   C     C_R   0.605753 0.158574 0.590635 0.321616
C30   C     C_R   0.613503 0.043011 0.599439 -0.301626
H16   H     H_    0.317677 0.980948 0.339142 0.158486
H17   H     H_    0.678362 0.006214 0.656208 0.174668
H18   H     H_    0.339257 0.781672 0.359212 0.128735
H19   H     H_    0.612520 0.820700 0.600407 0.137079
C31   C     C_3   0.104511 0.618608 0.335522 -0.931082
H20   H     H_    0.206449 0.610030 0.318935 0.250588
H21   H     H_    0.053866 0.624852 0.259263 0.249414
H22   H     H_    0.082682 0.696876 0.382937 0.249446
N3    N     N_R   0.452951 0.744337 0.812195 0.213342
O9    O     O_R   0.523670 0.826262 0.837083 -0.419884
O10   O     O_R   0.349957 0.763228 0.757302 -0.395676
C32   C     C_3   0.357533 0.188160 0.374850 -0.882183
H23   H     H_    0.260750 0.165185 0.390106 0.208056
H24   H     H_    0.351875 0.277888 0.373001 0.292123
H25   H     H_    0.384869 0.154711 0.296003 0.213840
C33   C     C_3   0.692656 0.221890 0.662920 -0.866731
H26   H     H_    0.791481 0.189479 0.650121 0.210643
H27   H     H_    0.689407 0.311041 0.653752 0.283218
H28   H     H_    0.669511 0.209621 0.744587 0.220280
C34   C     C_3   0.120043 0.585421 0.692897 -0.858167
H29   H     H_    0.088310 0.660784 0.741326 0.261299
H30   H     H_    0.086373 0.512005 0.728680 0.235743
H31   H     H_    0.224407 0.579405 0.695220 0.258778

loop_
_geom_bond_atom_site_label_1
_geom_bond_atom_site_label_2
_geom_bond_distance
_ccdc_geom_bond_type
C5    C6    1.520892 S    
N3    O10   1.301068 A    
H6    C11   1.115150 S    
N1    C28   1.391628 A    
C14   C17   1.400443 A    
C21   C22   1.385601 A    
C15   C16   1.386133 A    
C8    H8    1.114504 S    
C34   H29   1.110957 S    
Zn1   O7    2.008045 S    
C31   H20   1.109141 S    
O4    C2    1.290923 A    
C7    C11   1.542539 S    
C10   C11   1.573019 S    
C8    H7    1.113974 S    
C18   C22   1.399484 A    
C25   H19   1.083240 S    
C22   H14   1.084005 S    
C12   H9    1.112021 S    
O7    C4    1.288877 A    
C16   N3    1.434092 S    
C30   H17   1.085457 S    
C2    C9    1.449829 S    
C5    H1    1.114054 S    
C29   C30   1.403958 A    
C5    H2    1.113434 S    
C6    H3    1.112076 S    
C33   H26   1.111060 S    
C32   H24   1.082922 S    
O5    C3    1.294912 A    
C31   H21   1.111195 S    
C11   C31   1.543722 S    
C12   C34   1.544560 S    
C20   H11   1.085083 S    
N2    C24   1.357025 A    
C17   H15   1.084314 S    
C6    H4    1.113808 S    
N3    O9    1.301009 A    
C33   H27   1.088536 S    
O3    Zn1   2.006868 S    
C34   H30   1.109702 S    
C13   C20   1.395786 A    
C23   H16   1.080841 S    
C6    C10   1.558557 S    
C8    C9    1.549170 S    
O3    C2    1.286441 A    
C19   C20   1.372019 A    
C26   C30   1.388328 A    
C1    C14   1.445673 S    
C26   C27   1.403321 A    
O1    C1    1.298413 A    
C32   H25   1.111138 S    
C15   C19   1.393511 A    
C3    C13   1.436049 S    
C17   C18   1.373885 A    
Zn2   O8    2.006869 S    
N2    C25   1.361946 A    
C23   C24   1.397177 A    
C23   C27   1.416475 A    
C28   C32   1.509938 S    
O8    C4    1.289386 A    
H5    C7    1.114151 S    
C33   H28   1.110755 S    
C15   H13   1.084875 S    
C25   C26   1.410626 A    
C34   H31   1.107692 S    
N1    C29   1.384073 A    
C27   C28   1.429241 A    
C29   C33   1.503545 S    
C31   H22   1.108691 S    
O1    Zn1   1.990230 S    
O2    Zn2   2.016903 S    
O6    C3    1.291764 A    
O4    Zn2   2.008044 S    
C13   C21   1.400269 A    
Zn1   N1    2.025003 S    
C10   C12   1.572313 S    
O2    C1    1.292256 A    
C7    H10   1.114603 S    
C18   C19   1.407761 A    
C21   H12   1.083161 S    
C14   C16   1.417645 A    
C7    C9    1.545037 S    
C32   H23   1.110932 S    
C8    C12   1.540478 S    
C5    C9    1.555118 S    
Zn1   O5    2.016901 S    
Zn2   O6    1.990230 S    
C24   H18   1.081708 S    
C4    C10   1.455673 S    
Zn2   N2    2.024763 S    
