data_mof_unit_15960.cif
_audit_creation_date              2012-12-11T16:05:09-0500
_audit_creation_method            fapswitch 2.2
_symmetry_space_group_name_H-M    P1
_symmetry_Int_Tables_number       1
_space_group_crystal_system       triclinic
_cell_length_a                    10.588204
_cell_length_b                    10.73684
_cell_length_c                    16.866981
_cell_angle_alpha                 98.561016
_cell_angle_beta                  98.638729
_cell_angle_gamma                 61.65621
_cell_volume                      1661.83704205

loop_
_atom_site_label
_atom_site_type_symbol
_atom_type_description
_atom_site_fract_x
_atom_site_fract_y
_atom_site_fract_z
_atom_type_partial_charge
C1    C     C_R   0.350492 0.784874 0.403521 0.545894
C2    C     C_3   0.377047 0.719703 0.258005 -0.106640
C3    C     C_3   0.335469 0.837530 0.327411 0.046909
C4    C     C_R   0.366728 0.343541 0.360182 0.532584
C5    C     C_3   0.410059 0.908273 0.294004 -0.120975
C6    C     C_3   0.265426 0.998450 0.245460 -0.130573
C7    C     C_3   0.192453 0.927329 0.281573 -0.129176
C8    C     C_3   0.232822 0.810798 0.211876 0.008941
C9    C     C_3   0.307894 0.878853 0.176328 0.050391
C10   C     C_3   0.460830 0.252996 0.773571 -0.110023
C11   C     C_3   0.407247 0.392892 0.735155 -0.112117
C12   C     C_3   0.654670 0.362446 0.231437 -0.131960
C13   C     C_3   0.336066 0.335061 0.663178 0.054838
C14   C     C_3   0.389746 0.195986 0.700982 -0.111486
C15   C     C_3   0.247472 0.263971 0.741230 -0.108572
C16   C     C_R   0.703979 0.416948 0.391156 0.563184
C17   C     C_3   0.194079 0.404083 0.702218 -0.119657
C18   C     C_3   0.265057 0.460783 0.775763 -0.127244
C19   C     C_3   0.319464 0.321027 0.813083 0.051806
C20   C     C_1   0.817096 0.342554 0.709662 -0.047382
C21   C     C_1   0.843447 0.315191 0.778202 -0.046882
C22   C     C_1   0.358030 0.764921 0.714634 -0.048103
C23   C     C_3   0.737796 0.392050 0.308095 0.049826
C24   C     C_1   0.326928 0.811394 0.782292 -0.049998
C25   C     C_R   0.891810 0.309946 0.090763 0.532837
C26   C     C_R   0.291778 0.262576 0.122783 0.557444
C27   C     C_R   0.288760 0.901151 0.092202 0.542882
C28   C     C_R   0.379648 0.715681 0.631846 0.554261
C29   C     C_R   0.884693 0.299441 0.861118 0.544643
C30   C     C_R   0.308978 0.293790 0.892179 0.553433
C31   C     C_R   0.282786 0.880066 0.859862 0.551006
C32   C     C_R   0.366141 0.345991 0.584875 0.539413
C33   C     C_R   0.773692 0.380173 0.629564 0.544781
C34   C     C_3   0.877255 0.263519 0.284648 -0.104565
C35   C     C_1   0.326284 0.316723 0.278226 -0.088014
C36   C     C_1   0.306829 0.292764 0.207229 -0.085562
C37   C     C_3   0.795838 0.233519 0.206515 -0.110325
C38   C     C_R   0.114935 0.770987 0.178538 0.039198
C39   C     C_R   0.117573 0.651564 0.203521 -0.073536
C40   C     C_R   0.998041 0.626784 0.185499 -0.065451
C41   C     C_R   0.874768 0.719378 0.141374 -0.085795
C42   C     C_R   0.869612 0.840102 0.117077 -0.137869
C43   C     C_R   0.987630 0.867234 0.137289 -0.089349
C44   C     C_3   0.909955 0.360917 0.242950 -0.119039
C45   C     C_3   0.769268 0.490580 0.266625 -0.114383
C46   C     C_3   0.687200 0.460394 0.188183 -0.139808
C47   C     C_3   0.827591 0.332633 0.165338 0.050373
C48   C     C_3   0.451537 0.790962 0.223171 -0.141222
Cr1   Cr    Cr6+3 0.608340 0.611040 0.520430 1.014118
Cr2   Cr    Cr6+3 0.287650 0.601120 0.489350 1.014965
Cr3   Cr    Cr6+3 0.604040 0.287870 0.490280 1.018355
Cr4   Cr    Cr6+3 0.054020 0.052700 0.970850 1.008044
Cr5   Cr    Cr6+3 0.059230 0.375120 0.993390 1.023124
Cr6   Cr    Cr6+3 0.374950 0.061200 0.992340 1.009397
H1    H     H_    0.549582 0.362003 0.228152 0.120559
H2    H     H_    0.794386 0.133052 0.182481 0.115168
H3    H     H_    0.952156 0.192702 0.330203 0.121336
H4    H     H_    0.020257 0.349749 0.249552 0.090711
H5    H     H_    0.758613 0.596002 0.292653 0.125656
H6    H     H_    0.611562 0.530861 0.142242 0.112014
H7    H     H_    0.421576 0.605733 0.265972 0.096283
H8    H     H_    0.556225 0.747266 0.197741 0.103525
H9    H     H_    0.481570 0.948983 0.330128 0.134996
H10   H     H_    0.209100 0.581951 0.240587 0.119714
H11   H     H_    0.000840 0.536612 0.206727 0.123299
H12   H     H_    0.215147 0.113129 0.238043 0.098140
H13   H     H_    0.782539 0.699240 0.127673 0.120095
H14   H     H_    0.772693 0.915067 0.085011 0.117051
H15   H     H_    0.976497 0.966591 0.123588 0.158677
H16   H     H_    0.089386 0.972584 0.308742 0.115424
H17   H     H_    0.473848 0.445710 0.730577 0.101803
H18   H     H_    0.569940 0.193292 0.804502 0.131564
H19   H     H_    0.438800 0.088234 0.668615 0.136297
H20   H     H_    0.181321 0.210801 0.746124 0.120477
H21   H     H_    0.085578 0.463778 0.670682 0.137292
H22   H     H_    0.216156 0.568159 0.808543 0.131367
O1    O     O_R   0.751220 0.499230 0.435170 -0.514738
O2    O     O_R   0.412990 0.180750 0.091610 -0.511998
O3    O     O_R   0.366620 0.943130 0.065760 -0.519825
O4    O     O_R   0.477220 0.727600 0.436870 -0.516601
O5    O     O_R   0.160510 0.906330 0.879210 -0.504634
O6    O     O_R   0.930190 0.179050 0.889450 -0.493844
O7    O     O_R   0.909140 0.398170 0.896710 -0.505567
O8    O     O_R   0.186190 0.363460 0.918830 -0.491977
O9    O     O_R   0.401670 0.173200 0.913310 -0.516265
O10   O     O_R   0.356120 0.936130 0.900470 -0.492253
O11   O     O_3   0.162740 0.163010 0.985530 -0.276594
O12   O     O_R   0.297880 0.469080 0.560050 -0.512544
O13   O     O_R   0.258650 0.745120 0.411470 -0.515151
O14   O     O_R   0.297070 0.467240 0.395960 -0.504678
O15   O     O_R   0.488830 0.252610 0.387790 -0.515311
O16   O     O_R   0.724400 0.302390 0.420980 -0.497906
O17   O     O_R   0.752100 0.501210 0.612190 -0.512979
O18   O     O_R   0.478040 0.729440 0.600970 -0.493844
O19   O     O_R   0.259530 0.747110 0.588490 -0.499630
O20   O     O_R   0.489720 0.254590 0.564810 -0.513721
O21   O     O_R   0.725220 0.304230 0.585080 -0.489703
O22   O     O_3   0.500010 0.500010 0.500020 -0.298179
O23   O     O_R   0.171830 0.913880 0.057510 -0.532710
O24   O     O_R   0.940690 0.186050 0.054730 -0.522472
O25   O     O_R   0.920470 0.405720 0.075010 -0.532802
O26   O     O_R   0.196690 0.370460 0.084120 -0.492462

loop_
_geom_bond_atom_site_label_1
_geom_bond_atom_site_label_2
_ccdc_geom_bond_type
Cr3   O21   S    
C11   C18   S    
C23   C45   S    
C34   C37   S    
C41   C42   A    
C13   C32   S    
C35   C36   T    
C7    H16   S    
C7    C8    S    
C41   H13   S    
C45   C46   S    
C15   C19   S    
C39   H10   S    
C12   C23   S    
C27   O23   A    
C26   O2    A    
Cr5   O8    S    
C29   O7    A    
C3    C7    S    
Cr6   O11   S    
C11   H17   S    
Cr2   O19   S    
C32   O12   A    
C5    H9    S    
C28   O18   A    
C16   O1    A    
C12   C37   S    
Cr2   O13   S    
Cr3   O15   S    
Cr1   O22   S    
C37   H2    S    
Cr2   O14   S    
Cr5   O25   S    
C8    C9    S    
C34   H3    S    
C1    O13   A    
Cr1   O18   S    
C37   C47   S    
C25   C47   S    
C44   C47   S    
Cr2   O12   S    
Cr3   O20   S    
C4    O15   A    
Cr3   O22   S    
C4    C35   S    
C43   H15   S    
C31   O10   A    
C22   C28   S    
C13   C14   S    
C42   H14   S    
C8    C38   S    
C6    C9    S    
C4    O14   A    
C38   C39   A    
C5    C48   S    
Cr2   O22   S    
C14   H19   S    
C34   C44   S    
C12   C46   S    
C10   C14   S    
C44   H4    S    
C39   C40   A    
Cr6   O10   S    
C18   C19   S    
C2    C48   S    
C21   C29   S    
Cr4   O24   S    
C1    C3    S    
Cr3   O16   S    
Cr5   O26   S    
C25   O24   A    
C48   H8    S    
C6    H12   S    
C10   C19   S    
C23   C34   S    
C17   C18   S    
Cr5   O11   S    
C30   O9    A    
Cr4   O6    S    
C20   C33   S    
C26   C36   S    
C40   C41   A    
C32   O20   A    
C16   O16   A    
C16   C23   S    
C40   H11   S    
C28   O19   A    
C22   C24   T    
C42   C43   A    
C44   C45   S    
C9    C27   S    
Cr6   O3    S    
C15   C17   S    
C46   C47   S    
C45   H5    S    
C18   H22   S    
C46   H6    S    
Cr4   O11   S    
C2    C8    S    
C3    C5    S    
C33   O17   A    
Cr6   O9    S    
C2    H7    S    
C6    C7    S    
Cr4   O23   S    
C27   O3    A    
C31   O5    A    
Cr1   O4    S    
C13   C17   S    
Cr5   O7    S    
C2    C3    S    
C24   C31   S    
C38   C43   A    
C26   O26   A    
C11   C13   S    
C25   O25   A    
C5    C6    S    
Cr1   O1    S    
C33   O21   A    
C30   O8    A    
Cr4   O5    S    
C12   H1    S    
C10   C11   S    
C29   O6    A    
C15   H20   S    
C20   C21   T    
C9    C48   S    
C17   H21   S    
C1    O4    A    
C14   C15   S    
Cr1   O17   S    
C19   C30   S    
Cr6   O2    S    
C10   H18   S    
