data_mof_unit_26587.cif
_audit_creation_date              2012-12-11T15:56:44-0500
_audit_creation_method            fapswitch 2.2
_symmetry_space_group_name_H-M    P1
_symmetry_Int_Tables_number       1
_space_group_crystal_system       triclinic
_cell_length_a                    14.64265
_cell_length_b                    7.172448
_cell_length_c                    13.584862
_cell_angle_alpha                 89.996335
_cell_angle_beta                  99.831666
_cell_angle_gamma                 90.001587
_cell_volume                      1405.77828793

loop_
_atom_site_label
_atom_site_type_symbol
_atom_type_description
_atom_site_fract_x
_atom_site_fract_y
_atom_site_fract_z
_atom_type_partial_charge
O1    O     O_R   0.336930 0.638190 0.166330 -0.531664
O2    O     O_R   0.663070 0.361810 0.833670 -0.531666
O3    O     O_R   0.163070 0.138190 0.333670 -0.531630
O4    O     O_R   0.836930 0.861810 0.666330 -0.531627
O5    O     O_R   0.147900 0.305430 0.139630 -0.538862
O6    O     O_R   0.852100 0.694570 0.860370 -0.538863
O7    O     O_R   0.352100 0.805430 0.360370 -0.538880
O8    O     O_R   0.647900 0.194570 0.639630 -0.538879
C1    C     C_R   0.115104 0.477585 0.113134 0.709080
C2    C     C_R   0.884896 0.522415 0.886866 0.709076
C3    C     C_R   0.384896 0.977583 0.386867 0.709159
C4    C     C_R   0.615104 0.022417 0.613133 0.709160
O9    O     O_R   0.335280 0.308290 0.154310 -0.544431
O10   O     O_R   0.664720 0.691710 0.845690 -0.544426
O11   O     O_R   0.164720 0.808290 0.345690 -0.544471
O12   O     O_R   0.835280 0.191710 0.654310 -0.544455
O13   O     O_R   0.351790 0.140890 0.348460 -0.528932
O14   O     O_R   0.648210 0.859110 0.651540 -0.528933
O15   O     O_R   0.148210 0.640890 0.151540 -0.528925
O16   O     O_R   0.851790 0.359110 0.848460 -0.528930
C5    C     C_R   0.362219 0.477222 0.131057 0.662316
C6    C     C_R   0.637780 0.522778 0.868942 0.662311
C7    C     C_R   0.137797 0.977212 0.368964 0.662619
C8    C     C_R   0.862207 0.022788 0.631040 0.662629
O17   O     O_3   0.255200 0.472570 0.313680 -0.371945
O18   O     O_3   0.744800 0.527430 0.686320 -0.371933
O19   O     O_3   0.244800 0.972570 0.186320 -0.371997
O20   O     O_3   0.755200 0.027430 0.813680 -0.372001
V1    V     V_3+5 0.249040 0.196590 0.238190 1.462840
V2    V     V_3+5 0.750960 0.803410 0.761810 1.462880
V3    V     V_3+5 0.250960 0.696590 0.261810 1.462843
V4    V     V_3+5 0.749040 0.303410 0.738190 1.462895
C9    C     C_R   0.072393 0.867538 0.521964 -0.005294
C10   C     C_R   0.927627 0.132491 0.478058 -0.005318
C11   C     C_R   0.427160 0.368617 0.977591 -0.005566
C12   C     C_R   0.572826 0.631397 0.022395 -0.005550
C13   C     C_R   0.002420 0.880266 0.581138 -0.085987
C14   C     C_R   0.997592 0.119747 0.418876 -0.086130
C15   C     C_R   0.497113 0.381302 0.918373 -0.086870
C16   C     C_R   0.502882 0.618702 0.081621 -0.086948
H1    H     H_    0.005668 0.790509 0.645848 0.155901
H2    H     H_    0.994341 0.209508 0.354168 0.155857
H3    H     H_    0.493543 0.292369 0.853307 0.155911
H4    H     H_    0.506453 0.707640 0.146687 0.155892
C17   C     C_R   0.930570 0.012150 0.561382 -0.153935
C18   C     C_R   0.069438 0.987853 0.438627 -0.153929
C19   C     C_R   0.569405 0.512132 0.938584 -0.153939
C20   C     C_R   0.430591 0.487868 0.061412 -0.153931
C21   C     C_1   0.533924 0.008217 0.533131 -0.156817
C22   C     C_1   0.466076 0.991783 0.466869 -0.156817
C23   C     C_1   0.966076 0.508215 0.966869 -0.156855
C24   C     C_1   0.033924 0.491785 0.033131 -0.156856
C25   C     C_2   0.150408 0.735690 0.552447 0.403447
H5    H     H_    0.214896 0.750834 0.524214 0.051058
O21   O     O_2   0.144107 0.609172 0.611102 -0.525812
C26   C     C_2   0.849642 0.264417 0.447608 0.403469
H6    H     H_    0.785105 0.249124 0.475729 0.050985
O22   O     O_2   0.856033 0.391188 0.389129 -0.525837
C27   C     C_2   0.348683 0.238012 0.946704 0.402707
H7    H     H_    0.284503 0.252792 0.975585 0.051047
O23   O     O_2   0.354232 0.112972 0.886978 -0.525938
C28   C     C_2   0.651279 0.762061 0.053255 0.402638
H8    H     H_    0.715486 0.747235 0.024427 0.051032
O24   O     O_2   0.645672 0.887235 0.112887 -0.525973

loop_
_geom_bond_atom_site_label_1
_geom_bond_atom_site_label_2
_ccdc_geom_bond_type
O2    C6    A    
C11   C15   A    
O1    C5    A    
C28   H8    S    
O14   V2    S    
O12   V4    S    
C9    C25   S    
O13   V1    S    
O3    C7    A    
O1    V3    S    
C10   C26   S    
O8    C4    A    
C5    C20   S    
O15   V3    S    
O10   C6    A    
O11   V3    S    
O11   C7    A    
C4    C21   S    
O9    C5    A    
C27   H7    S    
O12   C8    A    
C10   C17   A    
C25   H5    S    
O7    C3    A    
C9    C18   A    
O3    V1    S    
O5    C1    A    
C1    C24   S    
O10   V2    S    
C12   C28   S    
C11   C20   A    
C11   C27   S    
O6    V2    S    
C26   O22   D    
C6    C19   S    
O5    V1    S    
C25   O21   D    
C13   H1    S    
O4    C8    A    
C9    C13   A    
C14   C18   A    
O19   V1    S    
O6    C2    A    
C2    C23   S    
C13   C17   A    
C23   C24   T    
O8    V4    S    
C14   H2    S    
C8    C17   S    
C16   H4    S    
O7    V3    S    
C26   H6    S    
C15   H3    S    
C12   C19   A    
O2    V4    S    
C21   C22   T    
O16   V4    S    
C27   O23   D    
C4    O14   A    
C7    C18   S    
C3    C22   S    
O18   V4    S    
C3    O13   A    
C12   C16   A    
C28   O24   D    
C16   C20   A    
C10   C14   A    
C15   C19   A    
O17   V3    S    
C1    O15   A    
O4    V2    S    
O9    V1    S    
C2    O16   A    
O20   V2    S    
