data_mof_unit_11628.cif
_audit_creation_date              2012-12-10T17:56:17-0500
_audit_creation_method            fapswitch 2.2
_symmetry_space_group_name_H-M    P1
_symmetry_Int_Tables_number       1
_space_group_crystal_system       triclinic
_cell_length_a                    13.001611
_cell_length_b                    10.830717
_cell_length_c                    9.519293
_cell_angle_alpha                 90.191424
_cell_angle_beta                  96.254783
_cell_angle_gamma                 90.351913
_cell_volume                      1332.46058566

loop_
_atom_site_label
_atom_site_type_symbol
_atom_type_description
_atom_site_fract_x
_atom_site_fract_y
_atom_site_fract_z
_atom_type_partial_charge
C1    C     C_R   0.499701 0.262080 0.499762 0.790363
C2    C     C_R   0.499910 0.737924 0.500139 0.789657
C3    C     C_R   0.499497 0.871775 0.499975 -0.014604
C4    C     C_R   0.499283 0.128233 0.499585 -0.018168
C5    C     C_R   0.432492 0.425322 0.065003 0.609934
C6    C     C_R   0.565016 0.577676 0.934678 0.609007
C7    C     C_R   0.434879 0.424142 0.915040 -0.251887
C8    C     C_R   0.565990 0.574775 0.085046 -0.250963
C9    C     C_R   0.300425 0.500214 0.473636 0.807814
C10   C     C_R   0.699576 0.500254 0.526418 0.808888
C11   C     C_R   0.812392 0.499873 0.541768 -0.055921
C12   C     C_R   0.187620 0.501599 0.458558 -0.048351
C13   C     C_R   0.023936 0.515318 0.311989 -0.221743
C14   C     C_R   0.976092 0.487327 0.688590 -0.224051
C15   C     C_R   0.131442 0.513230 0.324881 -0.199039
C16   C     C_R   0.868553 0.489785 0.675709 -0.176511
C17   C     C_R   0.135550 0.492649 0.579588 -0.267673
C18   C     C_R   0.864495 0.508622 0.420794 -0.269235
C19   C     C_R   0.028132 0.495379 0.567701 0.176818
C20   C     C_R   0.971908 0.506488 0.432795 0.178614
C21   C     C_R   0.509346 0.063540 0.374216 -0.165323
C22   C     C_R   0.488688 0.936485 0.625048 -0.186540
C23   C     C_R   0.509621 0.935790 0.374451 -0.193568
C24   C     C_R   0.488834 0.064207 0.624974 -0.194313
Cu1   Cu    Cu3+1 0.500000 0.500020 0.640660 0.981337
Cu2   Cu    Cu3+1 0.500000 0.499980 0.359340 0.981953
H1    H     H_    0.821692 0.517066 0.316961 0.153977
H2    H     H_    0.178366 0.483652 0.683355 0.147806
H3    H     H_    0.829489 0.483050 0.770273 0.173239
H4    H     H_    0.170459 0.521591 0.230546 0.160385
H5    H     H_    0.981617 0.524244 0.207986 0.135111
H6    H     H_    0.018440 0.478998 0.792657 0.130208
H7    H     H_    0.517537 0.111367 0.276251 0.164472
H8    H     H_    0.479594 0.888693 0.722659 0.153318
H9    H     H_    0.518121 0.887443 0.276609 0.145893
H10   H     H_    0.480316 0.112532 0.722813 0.150692
H11   H     H_    0.385681 0.361972 0.848537 0.160092
H12   H     H_    0.619813 0.631402 0.152014 0.160034
N1    N     N_R   0.500030 0.500030 0.852080 -0.214567
N2    N     N_R   0.499970 0.499970 0.147920 -0.214887
O1    O     O_R   0.499990 0.319660 0.618740 -0.597762
O2    O     O_R   0.500010 0.680340 0.381260 -0.598263
O3    O     O_R   0.499990 0.319630 0.381170 -0.540316
O4    O     O_R   0.500010 0.680370 0.618830 -0.546578
O5    O     O_R   0.349000 0.499990 0.599490 -0.597644
O6    O     O_R   0.651000 0.500010 0.400510 -0.596856
O7    O     O_R   0.348990 0.499960 0.361920 -0.543618
O8    O     O_R   0.651010 0.500040 0.638080 -0.538162
O9    O     O_3   0.369397 0.345846 0.132232 -0.543282
C25   C     C_3   0.270075 0.332594 0.057254 -0.382592
H13   H     H_    0.270847 0.261257 0.973317 0.161351
H14   H     H_    0.239248 0.421577 0.012373 0.139020
H15   H     H_    0.216042 0.299698 0.131755 0.202085
O10   O     O_3   0.633649 0.650426 0.868511 -0.545430
C26   C     C_3   0.645040 0.769670 0.928821 -0.377111
H16   H     H_    0.704005 0.769297 0.022441 0.159856
H17   H     H_    0.570423 0.807809 0.956651 0.140977
H18   H     H_    0.673750 0.832719 0.849950 0.202053

loop_
_geom_bond_atom_site_label_1
_geom_bond_atom_site_label_2
_ccdc_geom_bond_type
C12   C17   A    
C10   O6    A    
C25   H14   S    
C26   H16   S    
C11   C18   A    
C9    O5    A    
C14   C16   A    
C1    O3    A    
C11   C16   A    
C18   C20   A    
C19   C20   A    
C12   C15   A    
C1    C4    S    
Cu2   N2    S    
C21   C23   A    
C2    C3    S    
Cu1   Cu2   S    
Cu1   N1    S    
C4    C21   A    
Cu1   O8    S    
C5    O9    S    
C24   H10   S    
C8    H12   S    
Cu2   O7    S    
C6    O10   S    
C4    C24   A    
Cu1   O4    S    
C1    O1    A    
C17   C19   A    
C2    O2    A    
Cu2   O3    S    
C25   H13   S    
C23   H9    S    
C26   H17   S    
C13   C15   A    
C10   O8    A    
C22   H8    S    
C9    C12   S    
C22   C24   A    
C26   H18   S    
C9    O7    A    
C21   H7    S    
C10   C11   S    
Cu2   O6    S    
C25   H15   S    
Cu1   O5    S    
C2    O4    A    
Cu2   O2    S    
C15   H4    S    
O9    C25   S    
C5    N2    A    
Cu1   O1    S    
C5    C7    A    
C7    N1    A    
O10   C26   S    
C3    C22   A    
C6    C8    A    
C8    N2    A    
C13   C20   A    
C16   H3    S    
C6    N1    A    
C17   H2    S    
C3    C23   A    
C14   C19   A    
C13   H5    S    
C18   H1    S    
C14   H6    S    
C7    H11   S    
