data_mof_unit_24214.cif
_audit_creation_date              2012-12-10T17:33:54-0500
_audit_creation_method            fapswitch 2.2
_symmetry_space_group_name_H-M    P1
_symmetry_Int_Tables_number       1
_space_group_crystal_system       triclinic
_cell_length_a                    10.645212
_cell_length_b                    12.045696
_cell_length_c                    12.827929
_cell_angle_alpha                 94.048599
_cell_angle_beta                  90.807143
_cell_angle_gamma                 86.682397
_cell_volume                      1637.97504398

loop_
_atom_site_label
_atom_site_type_symbol
_atom_type_description
_atom_site_fract_x
_atom_site_fract_y
_atom_site_fract_z
_atom_type_partial_charge
C1    C     C_R   0.499812 0.522590 0.700342 0.902350
C2    C     C_3   0.121060 0.500468 0.502202 0.036478
C3    C     C_3   0.062785 0.621696 0.495735 -0.362815
C4    C     C_3   0.075637 0.447842 0.602012 -0.163450
C5    C     C_R   0.504971 0.463732 0.188015 -0.066523
C6    C     C_R   0.498632 0.537110 0.811934 -0.050107
C7    C     C_R   0.424003 0.637117 0.969721 -0.215619
C8    C     C_R   0.438583 0.632005 0.862414 -0.195633
C9    C     C_R   0.549514 0.449837 0.867901 -0.254866
C10   C     C_R   0.534889 0.453838 0.974467 0.179396
C11   C     C_R   0.470313 0.547651 0.025554 0.178350
C12   C     C_R   0.741915 0.500872 0.501125 0.844413
C13   C     C_R   0.454095 0.550928 0.131911 -0.268937
C14   C     C_R   0.568456 0.370432 0.137873 -0.168639
C15   C     C_R   0.582781 0.365116 0.030532 -0.201792
C16   C     C_R   0.413821 0.947282 0.382515 -0.267701
C17   C     C_R   0.416753 0.833565 0.396619 0.022617
C18   C     C_R   0.532693 0.860670 0.554549 -0.038367
C19   C     C_R   0.531208 0.977466 0.545023 0.062009
C20   C     C_R   0.472617 0.020845 0.456039 -0.018713
C21   C     C_R   0.472799 0.136903 0.443406 0.040238
C22   C     C_R   0.579934 0.166941 0.605603 -0.008441
C23   C     C_R   0.500899 0.477521 0.299624 0.873844
C24   C     C_R   0.586564 0.051824 0.620540 0.100485
C25   C     C_R   0.257816 0.499899 0.500777 0.864287
C26   C     C_3   0.931000 0.430858 0.401989 0.017349
C27   C     C_3   0.075943 0.429603 0.404756 -0.425696
C28   C     C_3   0.920435 0.623177 0.501729 -0.372794
C29   C     C_3   0.930558 0.450394 0.600984 -0.525342
C30   C     C_3   0.878081 0.501830 0.500279 0.153224
H1    H     H_    0.888757 0.671124 0.575040 0.191624
H2    H     H_    0.099038 0.679282 0.559218 0.221851
H3    H     H_    0.404289 0.622717 0.171423 0.148243
H4    H     H_    0.610765 0.304233 0.181821 0.198345
H5    H     H_    0.375218 0.709616 0.008650 0.149973
H6    H     H_    0.632796 0.293160 0.991778 0.146738
H7    H     H_    0.398807 0.699551 0.818687 0.175917
H8    H     H_    0.598005 0.377488 0.828170 0.144824
H9    H     H_    0.903435 0.343434 0.406406 0.170216
H10   H     H_    0.620375 0.224613 0.663368 0.140281
H11   H     H_    0.364927 0.976488 0.314274 0.163005
H12   H     H_    0.372297 0.777798 0.339494 0.125407
H13   H     H_    0.579213 0.823246 0.619963 0.139760
H14   H     H_    0.112810 0.341841 0.408128 0.213081
H15   H     H_    0.113925 0.461003 0.332548 0.182779
H16   H     H_    0.878280 0.667855 0.435551 0.186833
H17   H     H_    0.088996 0.654634 0.420473 0.172311
H18   H     H_    0.890439 0.498892 0.671167 0.188410
H19   H     H_    0.900504 0.363670 0.604264 0.175448
H20   H     H_    0.110431 0.358562 0.597396 0.156773
N1    N     N_R   0.523380 0.207800 0.519350 -0.156197
N2    N     N_R   0.476620 0.792180 0.480650 -0.104736
O1    O     O_R   0.506240 0.421700 0.658830 -0.616175
O2    O     O_R   0.491240 0.609310 0.646410 -0.632886
O3    O     O_R   0.692710 0.406190 0.506230 -0.640138
O4    O     O_R   0.677700 0.593810 0.493810 -0.625498
O5    O     O_R   0.508760 0.390690 0.353590 -0.603930
O6    O     O_R   0.493760 0.578300 0.341170 -0.628766
O7    O     O_R   0.322300 0.406190 0.506190 -0.571941
O8    O     O_R   0.307290 0.593810 0.493770 -0.633339
Zn1   Zn    Zn3+2 0.510020 0.374730 0.508290 0.979264
Zn2   Zn    Zn3+2 0.489980 0.625270 0.491710 0.940739
C31   C     C_3   0.878588 0.469813 0.297087 -0.906408
H21   H     H_    0.907563 0.554561 0.283448 0.252991
H22   H     H_    0.914822 0.411613 0.231922 0.247672
H23   H     H_    0.774459 0.469841 0.294568 0.236543
C32   C     C_2   0.126743 0.499908 0.703823 0.899278
O9    O     O_2   0.098053 0.596985 0.732265 -0.644823
O10   O     O_R   0.205428 0.434897 0.766427 -0.802251
H24   H     H_    0.231094 0.477058 0.833815 0.347987
C33   C     C_2   0.423256 0.180288 0.345673 0.948970
O11   O     O_2   0.479003 0.155220 0.263953 -0.664384
O12   O     O_R   0.310351 0.244702 0.345405 -0.813754
H25   H     H_    0.285975 0.268421 0.273222 0.326536
C34   C     C_3   0.650968 0.011215 0.717233 -0.934710
H26   H     H_    0.687957 0.080925 0.767743 0.241547
H27   H     H_    0.583206 0.968957 0.763744 0.250598
H28   H     H_    0.731380 0.951942 0.694741 0.246388

loop_
_geom_bond_atom_site_label_1
_geom_bond_atom_site_label_2
_ccdc_geom_bond_type
O6    Zn2   S    
C23   O6    A    
C31   H22   S    
O12   H25   S    
C19   C20   A    
N1    Zn1   S    
C34   H26   S    
C6    C9    A    
C18   N2    A    
C7    C8    A    
C29   H19   S    
C7    C11   A    
C28   H16   S    
C26   C27   S    
C21   C33   S    
C3    C28   S    
C10   C15   A    
C26   H9    S    
O8    Zn2   S    
C18   C19   A    
C1    O1    A    
C17   H12   S    
O1    Zn1   S    
C27   H14   S    
C16   C17   A    
C2    C27   S    
C25   O8    A    
C9    C10   A    
C5    C13   A    
C4    C29   S    
C27   H15   S    
C31   H23   S    
C3    H2    S    
C17   N2    A    
O7    Zn1   S    
C29   H18   S    
C32   O9    D    
C33   O12   S    
C6    C8    A    
O2    Zn2   S    
C1    C6    S    
C4    H20   S    
C32   O10   S    
C2    C4    S    
C26   C31   S    
C13   H3    S    
C29   C30   S    
C5    C23   S    
C16   C20   A    
C22   H10   S    
C34   H27   S    
C5    C14   A    
C12   O4    A    
C1    O2    A    
C26   C30   S    
O4    Zn2   S    
C8    H7    S    
C15   H6    S    
C21   N1    A    
C23   O5    A    
C12   C30   S    
C7    H5    S    
C28   H1    S    
C14   H4    S    
C4    C32   S    
C24   C34   S    
O5    Zn1   S    
C28   C30   S    
C19   C24   A    
C33   O11   D    
N2    Zn2   S    
C18   H13   S    
C11   C13   A    
O3    Zn1   S    
C3    H17   S    
C9    H8    S    
C2    C3    S    
C2    C25   S    
C22   C24   A    
O10   H24   S    
C34   H28   S    
C12   O3    A    
C10   C11   A    
C31   H21   S    
C20   C21   A    
C14   C15   A    
C25   O7    A    
C16   H11   S    
C22   N1    A    
