data_mof_unit_7823.cif
_audit_creation_date              2012-12-11T15:59:50-0500
_audit_creation_method            fapswitch 2.2
_symmetry_space_group_name_H-M    P1
_symmetry_Int_Tables_number       1
_space_group_crystal_system       triclinic
_cell_length_a                    10.713685
_cell_length_b                    10.682435
_cell_length_c                    17.05795
_cell_angle_alpha                 99.188999
_cell_angle_beta                  99.835162
_cell_angle_gamma                 61.094211
_cell_volume                      1677.17017184

loop_
_atom_site_label
_atom_site_type_symbol
_atom_type_description
_atom_site_fract_x
_atom_site_fract_y
_atom_site_fract_z
_atom_type_partial_charge
C1    C     C_R   0.377912 0.719086 0.388063 0.552720
C2    C     C_R   0.822601 0.348912 0.324827 0.006550
C3    C     C_R   0.361430 0.799651 0.151415 -0.002428
C4    C     C_R   0.369309 0.346588 0.357506 0.560561
C5    C     C_R   0.458533 0.825849 0.210296 0.017950
C6    C     C_R   0.446165 0.825772 0.291147 0.018568
C7    C     C_R   0.296309 0.707192 0.247955 -0.158264
C8    C     C_R   0.289996 0.729992 0.169879 -0.146777
C9    C     C_R   0.562072 0.858987 0.191449 -0.095761
C10   C     C_R   0.635038 0.911878 0.250756 -0.127904
C11   C     C_R   0.607438 0.932065 0.329503 -0.111442
C12   C     C_R   0.859807 0.201304 0.198942 0.031414
C13   C     C_R   0.511676 0.892473 0.349695 -0.091417
C14   C     C_R   0.367264 0.760540 0.309326 0.009147
C15   C     C_R   0.349246 0.353517 0.837541 -0.027183
C16   C     C_R   0.775680 0.378010 0.403440 0.533903
C17   C     C_R   0.489387 0.278733 0.814229 0.024457
C18   C     C_R   0.509039 0.273974 0.733931 -0.010963
C19   C     C_R   0.256236 0.461457 0.712704 0.106923
C20   C     C_R   0.237363 0.450066 0.789170 -0.136057
C21   C     C_R   0.607832 0.195622 0.867784 -0.057923
C22   C     C_R   0.731768 0.084809 0.839391 -0.065460
C23   C     C_R   0.869665 0.212142 0.283039 0.023189
C24   C     C_R   0.750862 0.072511 0.759929 -0.120291
C25   C     C_R   0.644728 0.169364 0.708749 -0.107956
C26   C     C_R   0.390994 0.368857 0.682451 0.012668
C27   C     C_1   0.847584 0.328483 0.705447 -0.053372
C28   C     C_R   0.355302 0.775715 0.626167 0.552651
C29   C     C_1   0.894636 0.294074 0.772260 -0.045148
C30   C     C_1   0.324285 0.840618 0.705257 -0.046044
C31   C     C_1   0.286998 0.886232 0.771164 -0.052624
C32   C     C_R   0.891241 0.308011 0.087100 0.553517
C33   C     C_R   0.319428 0.299594 0.120034 0.549340
C34   C     C_R   0.782289 0.469960 0.284526 -0.145473
C35   C     C_R   0.299823 0.882846 0.082000 0.562104
C36   C     C_R   0.943978 0.273773 0.854745 0.554251
C37   C     C_R   0.312354 0.298775 0.898289 0.525559
C38   C     C_R   0.247250 0.939219 0.850455 0.540779
C39   C     C_R   0.409304 0.376551 0.599740 0.576352
C40   C     C_R   0.778343 0.378072 0.628981 0.541210
C41   C     C_1   0.342801 0.336704 0.274102 -0.037609
C42   C     C_1   0.332199 0.326110 0.203288 -0.033517
C43   C     C_R   0.831591 0.323928 0.160827 -0.006616
C44   C     C_3   0.047971 0.696817 0.692609 -0.272098
C45   C     C_R   0.786691 0.457524 0.203926 -0.157887
C46   C     C_R   0.881277 0.067835 0.156949 -0.066184
C47   C     C_R   0.934328 0.945298 0.197182 -0.133721
C48   C     C_R   0.959746 0.954069 0.280036 -0.126628
C49   C     C_R   0.925535 0.086619 0.322994 -0.088057
Cr1   Cr    Cr6+3 0.608100 0.610860 0.522250 1.009408
Cr2   Cr    Cr6+3 0.288890 0.599990 0.488420 1.018894
Cr3   Cr    Cr6+3 0.603040 0.289190 0.489390 0.978292
Cr4   Cr    Cr6+3 0.053960 0.052250 0.967380 0.979825
Cr5   Cr    Cr6+3 0.059890 0.373160 0.992710 1.004982
Cr6   Cr    Cr6+3 0.373370 0.061690 0.991710 1.003813
H1    H     H_    0.743360 0.576995 0.314901 0.157482
H2    H     H_    0.853418 0.056385 0.093293 0.130807
H3    H     H_    0.761764 0.552248 0.175857 0.138347
H4    H     H_    0.953223 0.843562 0.164031 0.102972
H5    H     H_    0.000823 0.858830 0.311176 0.133118
H6    H     H_    0.945038 0.089773 0.387474 0.128609
H7    H     H_    0.240886 0.651880 0.260811 0.125996
H8    H     H_    0.590510 0.841155 0.131369 0.134295
H9    H     H_    0.221281 0.701834 0.124595 0.132551
H10   H     H_    0.072048 0.499366 0.636656 0.259726
H11   H     H_    0.978372 0.703746 0.736200 0.122707
H12   H     H_    0.709640 0.941352 0.235033 0.132549
H13   H     H_    0.978333 0.760022 0.642189 0.141975
H14   H     H_    0.118192 0.744352 0.721413 0.176091
H15   H     H_    0.661022 0.977750 0.375171 0.138167
H16   H     H_    0.487634 0.919549 0.410876 0.152977
H17   H     H_    0.601764 0.209827 0.931574 0.120644
H18   H     H_    0.130353 0.506714 0.807736 0.144139
H19   H     H_    0.816045 0.012541 0.879930 0.122254
H20   H     H_    0.850895 0.991216 0.738456 0.101653
H21   H     H_    0.674474 0.153619 0.650033 0.172269
N1    N     N_2   0.132875 0.549221 0.662363 -0.474705
O1    O     O_R   0.749810 0.499790 0.438040 -0.526163
O2    O     O_R   0.411730 0.181020 0.091530 -0.516664
O3    O     O_R   0.365010 0.944360 0.063320 -0.503076
O4    O     O_R   0.477660 0.726260 0.439290 -0.515490
O5    O     O_R   0.159380 0.906670 0.876210 -0.530156
O6    O     O_R   0.930820 0.177420 0.886730 -0.513562
O7    O     O_R   0.910360 0.395420 0.895720 -0.500019
O8    O     O_R   0.186010 0.361730 0.919870 -0.523182
O9    O     O_R   0.400000 0.173010 0.914630 -0.527662
O10   O     O_R   0.354140 0.936940 0.899340 -0.482860
O11   O     O_3   0.162410 0.162370 0.983930 -0.269846
O12   O     O_R   0.298970 0.468800 0.557390 -0.453216
O13   O     O_R   0.260150 0.743000 0.412270 -0.526242
O14   O     O_R   0.297740 0.466550 0.394720 -0.512004
O15   O     O_R   0.488080 0.253500 0.386430 -0.513071
O16   O     O_R   0.722670 0.303800 0.421940 -0.507305
O17   O     O_R   0.751130 0.502220 0.613520 -0.502335
O18   O     O_R   0.478890 0.728510 0.601960 -0.484895
O19   O     O_R   0.261470 0.745430 0.587750 -0.513039
O20   O     O_R   0.489400 0.255930 0.561910 -0.544072
O21   O     O_R   0.723890 0.306050 0.584610 -0.536109
O22   O     O_3   0.500010 0.500010 0.500020 -0.279871
O23   O     O_R   0.171100 0.914680 0.053100 -0.513877
O24   O     O_R   0.941680 0.184840 0.050710 -0.511758
O25   O     O_R   0.922080 0.403420 0.072610 -0.511273
O26   O     O_R   0.196880 0.369150 0.083850 -0.501099

loop_
_geom_bond_atom_site_label_1
_geom_bond_atom_site_label_2
_ccdc_geom_bond_type
C34   H1    S    
C1    O13   A    
C27   C29   T    
C41   C42   T    
C35   O3    A    
C44   H11   S    
C19   C20   A    
C18   C26   A    
Cr5   O7    S    
C11   H15   S    
C7    C8    A    
C10   H12   S    
C29   C36   S    
Cr1   O22   S    
C28   O18   A    
C33   C42   S    
C37   O8    A    
C44   N1    S    
C12   C43   A    
Cr2   O13   S    
C40   O21   A    
C30   C31   T    
C26   C39   S    
C39   O20   A    
C4    C41   S    
C36   O6    A    
C1    O4    A    
Cr3   O20   S    
Cr6   O11   S    
C19   N1    S    
C19   C26   A    
C15   C37   S    
Cr2   O14   S    
C7    C14   A    
Cr4   O24   S    
C2    C16   S    
C9    C10   A    
C16   O1    A    
Cr2   O19   S    
C4    O14   A    
C2    C34   A    
C9    H8    S    
C21   C22   A    
C38   O5    A    
C18   C25   A    
Cr1   O1    S    
C48   H5    S    
Cr4   O23   S    
Cr2   O22   S    
C15   C20   A    
C45   H3    S    
C49   H6    S    
C21   H17   S    
Cr5   O26   S    
C44   H14   S    
H10   N1    S    
C24   C25   A    
C12   C46   A    
C3    C8    A    
Cr1   O17   S    
C13   H16   S    
C17   C21   A    
Cr4   O5    S    
C7    H7    S    
C5    C9    A    
C6    C14   A    
Cr6   O2    S    
C37   O9    A    
C47   C48   A    
C12   C23   A    
C3    C35   S    
C27   C40   S    
C17   C18   A    
C16   O16   A    
Cr3   O16   S    
C34   C45   A    
C43   C45   A    
C8    H9    S    
C48   C49   A    
C46   H2    S    
C32   O25   A    
C44   H13   S    
C22   H19   S    
C35   O23   A    
C15   C17   A    
C46   C47   A    
C33   O26   A    
Cr5   O25   S    
C33   O2    A    
C40   O17   A    
C3    C5    A    
Cr5   O8    S    
C24   H20   S    
Cr3   O22   S    
C31   C38   S    
Cr4   O6    S    
C38   O10   A    
C28   O19   A    
C25   H21   S    
Cr6   O9    S    
C28   C30   S    
Cr2   O12   S    
C6    C13   A    
Cr5   O11   S    
Cr6   O3    S    
C11   C13   A    
C5    C6    A    
C36   O7    A    
Cr3   O21   S    
C32   C43   S    
C20   H18   S    
Cr4   O11   S    
C22   C24   A    
Cr6   O10   S    
Cr1   O18   S    
C23   C49   A    
C10   C11   A    
C47   H4    S    
C2    C23   A    
C32   O24   A    
C1    C14   S    
C39   O12   A    
Cr3   O15   S    
Cr1   O4    S    
C4    O15   A    
