data_mof_unit_48332.cif
_audit_creation_date              2012-12-10T17:49:31-0500
_audit_creation_method            fapswitch 2.2
_symmetry_space_group_name_H-M    P1
_symmetry_Int_Tables_number       1
_space_group_crystal_system       triclinic
_cell_length_a                    14.734832
_cell_length_b                    14.807236
_cell_length_c                    15.89094
_cell_angle_alpha                 76.38593
_cell_angle_beta                  103.271323
_cell_angle_gamma                 115.183783
_cell_volume                      3016.22013881

loop_
_atom_site_label
_atom_site_type_symbol
_atom_type_description
_atom_site_fract_x
_atom_site_fract_y
_atom_site_fract_z
_atom_type_partial_charge
C1    C     C_R   0.880100 0.312697 0.517260 0.781799
C2    C     C_3   0.955754 0.394672 0.061919 -0.365517
C3    C     C_3   0.005351 0.504134 0.083275 0.164505
C4    C     C_3   0.116390 0.558086 0.061637 -0.205996
C5    C     C_3   0.116895 0.553563 0.964181 -0.217214
C6    C     C_1   0.002641 0.502907 0.175216 -0.051194
C7    C     C_1   0.003018 0.502815 0.824749 -0.023377
C8    C     C_1   0.001411 0.501317 0.749254 -0.120051
C9    C     C_R   0.811430 0.208499 0.544450 -0.049346
C10   C     C_R   0.189457 0.797361 0.475931 -0.205947
C11   C     C_R   0.770001 0.061417 0.656958 -0.186265
C12   C     C_R   0.000213 0.500093 0.659680 0.833720
C13   C     C_R   0.842233 0.147574 0.616617 -0.182571
C14   C     C_R   0.708760 0.178970 0.509482 -0.204877
C15   C     C_R   0.634145 0.094826 0.550993 0.086849
C16   C     C_R   0.666304 0.036037 0.626051 0.148278
C17   C     C_R   0.528695 0.067611 0.520312 0.057163
C18   C     C_R   0.457915 0.974393 0.557872 0.066614
C19   C     C_R   0.491784 0.926828 0.639351 -0.167458
C20   C     C_R   0.594429 0.955360 0.671590 -0.207579
C21   C     C_R   0.491238 0.131742 0.455724 -0.198519
C22   C     C_R   0.388819 0.101216 0.424056 -0.188024
C23   C     C_R   0.120428 0.688113 0.485500 0.858711
C24   C     C_R   0.321889 0.002522 0.448801 0.118074
C25   C     C_R   0.355670 0.934995 0.513635 0.019326
C26   C     C_R   0.223234 0.970374 0.404197 -0.215789
C27   C     C_R   0.158188 0.868957 0.414454 -0.007295
C28   C     C_R   0.288795 0.830489 0.525688 -0.069357
C29   C     C_R   0.713729 0.664973 0.351111 -0.296484
C30   C     C_R   0.795055 0.635249 0.374941 0.085414
C31   C     C_R   0.715363 0.510987 0.488673 0.075985
C32   C     C_R   0.625805 0.530864 0.462277 -0.003994
C33   C     C_R   0.629478 0.614073 0.395473 0.137686
C34   C     C_R   0.000146 0.500402 0.340295 0.847932
C35   C     C_R   0.534882 0.473946 0.501119 0.027211
C36   C     C_R   0.456265 0.512467 0.482426 0.030412
C37   C     C_R   0.466665 0.599249 0.418682 -0.165785
C38   C     C_R   0.549998 0.646764 0.374231 -0.178372
C39   C     C_R   0.517379 0.377833 0.554029 0.370874
C40   C     C_R   0.432623 0.330192 0.597192 -0.251860
C41   C     C_R   0.360368 0.370958 0.584705 0.013935
C42   C     C_R   0.368617 0.461067 0.526244 -0.017420
C43   C     C_R   0.276684 0.317928 0.627993 -0.240603
C44   C     C_R   0.199794 0.352130 0.614075 0.592924
C45   C     C_3   0.958519 0.395006 0.964988 -0.502409
C46   C     C_R   0.287007 0.493449 0.513533 -0.000741
C47   C     C_3   0.938718 0.560050 0.925510 0.280247
C48   C     C_3   0.943467 0.563840 0.023432 -0.431791
C49   C     C_1   0.001032 0.501735 0.250608 -0.124691
C50   C     C_3   0.005303 0.505116 0.917052 0.193616
Cu1   Cu    Cu3+1 0.081750 0.475690 0.522550 0.981442
Cu2   Cu    Cu3+1 0.918250 0.524310 0.477450 0.980245
H1    H     H_    0.875492 0.359275 0.073988 0.171013
H2    H     H_    0.003445 0.351819 0.961921 0.209024
H3    H     H_    0.994178 0.346858 0.105602 0.222721
H4    H     H_    0.143117 0.638323 0.070365 0.176272
H5    H     H_    0.617563 0.914227 0.732638 0.152118
H6    H     H_    0.363022 0.153353 0.375140 0.154793
H7    H     H_    0.794975 0.016876 0.714496 0.146496
H8    H     H_    0.921163 0.169735 0.645201 0.193945
H9    H     H_    0.689233 0.225131 0.450882 0.148257
H10   H     H_    0.880163 0.355184 0.932310 0.175983
H11   H     H_    0.439693 0.869077 0.680764 0.172321
H12   H     H_    0.538705 0.207667 0.430511 0.177518
H13   H     H_    0.199487 0.023755 0.354873 0.166368
H14   H     H_    0.553304 0.711413 0.323938 0.156228
H15   H     H_    0.285946 0.559625 0.468099 0.160088
H16   H     H_    0.420977 0.257884 0.638941 0.140033
H17   H     H_    0.716671 0.727244 0.298309 0.146629
H18   H     H_    0.859020 0.672936 0.339619 0.168641
H19   H     H_    0.725479 0.459702 0.546815 0.192219
H20   H     H_    0.409981 0.630928 0.399716 0.159086
H21   H     H_    0.269599 0.247962 0.672275 0.167852
H22   H     H_    0.858555 0.515395 0.898977 0.087744
H23   H     H_    0.864949 0.531130 0.039575 0.145310
H24   H     H_    0.978203 0.643576 0.035498 0.212969
H25   H     H_    0.153954 0.501946 0.963484 0.150953
N1    N     N_R   0.795410 0.560790 0.443550 -0.204492
N2    N     N_R   0.204590 0.439170 0.556520 -0.235048
O1    O     O_R   0.977910 0.338120 0.529720 -0.572057
O2    O     O_R   0.839850 0.379180 0.491640 -0.581829
O3    O     O_R   0.069060 0.479460 0.639610 -0.594843
O4    O     O_R   0.931000 0.520530 0.601530 -0.583179
O5    O     O_R   0.160150 0.620820 0.508360 -0.569162
O6    O     O_R   0.022090 0.661880 0.470280 -0.565130
O7    O     O_R   0.069000 0.479470 0.398470 -0.577022
O8    O     O_R   0.930940 0.520540 0.360390 -0.569959
C51   C     C_2   0.325576 0.753464 0.580823 0.839537
O9    O     O_2   0.392558 0.738972 0.559832 -0.598495
O10   O     O_R   0.282548 0.696949 0.656054 -0.730645
H26   H     H_    0.313035 0.646075 0.687666 0.345932
C52   C     C_2   0.063864 0.840477 0.350699 0.847889
O11   O     O_2   0.043292 0.773945 0.307736 -0.616700
O12   O     O_R   0.001741 0.894043 0.336068 -0.758391
H27   H     H_    0.940713 0.869232 0.289735 0.321780
O13   O     O_3   0.117893 0.291043 0.656455 -0.755932
H28   H     H_    0.087164 0.333134 0.667676 0.353828
O14   O     O_3   0.968867 0.657596 0.876596 -0.676375
H29   H     H_    0.914195 0.681345 0.872907 0.324974
O15   O     O_3   0.577785 0.326548 0.557020 -0.780899
H30   H     H_    0.555241 0.261348 0.597170 0.329095
C53   C     C_2   0.180098 0.655625 0.916749 0.911061
O16   O     O_2   0.242591 0.661337 0.874517 -0.585599
O17   O     O_R   0.169053 0.743178 0.922319 -0.704590
H31   H     H_    0.215983 0.805914 0.887928 0.339434
C54   C     C_2   0.190091 0.517921 0.124583 0.840222
O18   O     O_2   0.183052 0.432125 0.126654 -0.597844
O19   O     O_R   0.266900 0.580265 0.180394 -0.759377
H32   H     H_    0.311277 0.545643 0.219751 0.336802

loop_
_geom_bond_atom_site_label_1
_geom_bond_atom_site_label_2
_ccdc_geom_bond_type
C10   C27   A    
C43   H21   S    
C41   C42   A    
C45   H10   S    
C36   C42   A    
C19   C20   A    
C9    C14   A    
C3    C6    S    
C39   O15   S    
C7    C8    T    
C13   H8    S    
C25   C28   A    
C26   C27   A    
C29   C30   A    
C47   O14   S    
C36   C37   A    
C24   C26   A    
C2    H3    S    
C42   C46   A    
C46   N2    A    
Cu2   N1    S    
C54   O18   D    
C1    O2    A    
C15   C16   A    
C29   C33   A    
C3    C48   S    
O19   H32   S    
C18   C19   A    
C34   O7    A    
C9    C13   A    
Cu1   O1    S    
O15   H30   S    
C21   H12   S    
C47   C48   S    
C19   H11   S    
C28   C51   S    
C8    C12   S    
C31   H19   S    
C21   C22   A    
C4    H4    S    
C41   C43   A    
C48   H23   S    
O12   H27   S    
C18   C25   A    
C11   H7    S    
Cu1   O7    S    
O17   H31   S    
C30   H18   S    
C47   C50   S    
C29   H17   S    
C44   N2    A    
C2    C45   S    
C23   O5    A    
Cu1   Cu2   S    
C32   C35   A    
C38   H14   S    
C1    C9    S    
C24   C25   A    
C7    C50   S    
C39   C40   A    
C14   H9    S    
C4    C54   S    
C17   C21   A    
C12   O4    A    
C35   C36   A    
Cu2   O4    S    
C35   C39   A    
C43   C44   A    
C37   C38   A    
C44   O13   S    
C11   C16   A    
C31   C32   A    
C16   C20   A    
O13   H28   S    
C52   O12   S    
C17   C18   A    
C12   O3    A    
C27   C52   S    
C53   O17   S    
Cu1   O3    S    
C40   C41   A    
C51   O10   S    
C45   H2    S    
C23   O6    A    
C22   C24   A    
C5    C50   S    
C5    H25   S    
C3    C4    S    
C31   N1    A    
C10   C28   A    
C15   C17   A    
C5    C53   S    
Cu2   O6    S    
C34   C49   S    
C26   H13   S    
Cu2   O8    S    
C47   H22   S    
C4    C5    S    
C2    H1    S    
C22   H6    S    
C10   C23   S    
C33   C38   A    
Cu2   O2    S    
C32   C33   A    
C2    C3    S    
C46   H15   S    
C11   C13   A    
O10   H26   S    
C54   O19   S    
C45   C50   S    
C52   O11   D    
C34   O8    A    
C6    C49   T    
C53   O16   D    
Cu1   N2    S    
C48   H24   S    
C30   N1    A    
C51   O9    D    
O14   H29   S    
C40   H16   S    
C37   H20   S    
C1    O1    A    
C14   C15   A    
C20   H5    S    
Cu1   O5    S    
