data_mof_unit_56824.cif
_audit_creation_date              2012-12-10T18:45:04-0500
_audit_creation_method            fapswitch 2.2
_symmetry_space_group_name_H-M    P1
_symmetry_Int_Tables_number       1
_space_group_crystal_system       triclinic
_cell_length_a                    10.697769
_cell_length_b                    9.895857
_cell_length_c                    10.727258
_cell_angle_alpha                 93.154595
_cell_angle_beta                  91.371186
_cell_angle_gamma                 90.696617
_cell_volume                      1133.47725608

loop_
_atom_site_label
_atom_site_type_symbol
_atom_type_description
_atom_site_fract_x
_atom_site_fract_y
_atom_site_fract_z
_atom_type_partial_charge
C1    C     C_R   0.260884 0.500270 0.511606 0.907093
C2    C     C_R   0.740221 0.500324 0.492240 0.863632
C3    C     C_R   0.942913 0.623517 0.488954 0.130711
C4    C     C_R   0.063475 0.623992 0.539310 0.155940
C5    C     C_R   0.587174 0.079150 0.567523 -0.046225
C6    C     C_R   0.414357 0.068368 0.430567 -0.070013
C7    C     C_R   0.589451 0.935362 0.568339 0.155425
C8    C     C_R   0.415816 0.925149 0.425867 0.197124
C9    C     C_R   0.500051 0.496089 0.259889 0.935626
C10   C     C_R   0.491183 0.504420 0.739983 0.933126
C11   C     C_R   0.666273 0.666486 0.133356 -0.123557
C12   C     C_R   0.568195 0.748122 0.908935 -0.140710
C13   C     C_R   0.703376 0.790308 0.090256 -0.153597
C14   C     C_R   0.648082 0.834599 0.981845 -0.145558
C15   C     C_R   0.538673 0.617273 0.947461 0.059479
C16   C     C_R   0.572022 0.587786 0.068793 0.050364
C17   C     C_R   0.502152 0.488714 0.126312 -0.246931
C18   C     C_R   0.473625 0.515784 0.873105 -0.268441
C19   C     C_R   0.414671 0.404939 0.057817 0.225927
C20   C     C_R   0.405665 0.413556 0.928921 0.233634
C21   C     C_R   0.063340 0.377568 0.513267 -0.173640
C22   C     C_R   0.935515 0.377982 0.502432 -0.218626
C23   C     C_R   0.874379 0.500829 0.488821 -0.078663
C24   C     C_R   0.128421 0.500840 0.527373 -0.057790
H1    H     H_    0.705448 0.635029 0.220275 0.139735
H2    H     H_    0.522126 0.789739 0.829631 0.175346
H3    H     H_    0.767972 0.855698 0.144990 0.146237
H4    H     H_    0.665852 0.936579 0.956042 0.157100
H5    H     H_    0.110595 0.281252 0.510660 0.182976
H6    H     H_    0.885575 0.281912 0.499901 0.169977
H7    H     H_    0.656504 0.142399 0.617588 0.162828
H8    H     H_    0.346303 0.120784 0.375464 0.178215
N1    N     N_R   0.500000 0.857200 0.500000 -0.128779
N2    N     N_R   0.500000 0.142810 0.500000 -0.116920
O1    O     O_R   0.316770 0.614620 0.499990 -0.656103
O2    O     O_R   0.683230 0.614620 0.500010 -0.658768
O3    O     O_R   0.316800 0.385290 0.500000 -0.597024
O4    O     O_R   0.683200 0.385290 0.500000 -0.627990
O5    O     O_R   0.500010 0.614690 0.316770 -0.632351
O6    O     O_R   0.499990 0.614690 0.683230 -0.658157
O7    O     O_R   0.500040 0.385360 0.316770 -0.579456
O8    O     O_R   0.499960 0.385360 0.683230 -0.573164
Zn1   Zn    Zn3+2 0.500000 0.653120 0.500000 0.909070
Zn2   Zn    Zn3+2 0.500000 0.346880 0.500000 0.990185
Br1   Br    Br    0.300847 0.286440 0.138829 -0.509455
Br2   Br    Br    0.289265 0.296476 0.831674 -0.475481
C25   C     C_3   0.914657 0.729110 0.394614 -0.478664
C26   C     C_3   0.981951 0.695197 0.272812 -0.837099
H9    H     H_    0.945306 0.598158 0.228432 0.269261
H10   H     H_    0.967273 0.776687 0.207283 0.249067
H11   H     H_    0.084126 0.686334 0.290417 0.261498
H12   H     H_    0.945594 0.831590 0.430622 0.202112
H13   H     H_    0.814165 0.736965 0.372613 0.223343
C27   C     C_3   0.116462 0.753426 0.605295 -0.421878
C28   C     C_3   0.165047 0.729125 0.737281 -0.788759
H14   H     H_    0.089015 0.687079 0.792977 0.258393
H15   H     H_    0.244344 0.658022 0.735519 0.262252
H16   H     H_    0.198111 0.826461 0.783861 0.256195
H17   H     H_    0.190053 0.800562 0.550846 0.229912
H18   H     H_    0.042102 0.830240 0.616307 0.204029
C29   C     C_3   0.699551 0.869784 0.631704 -0.372242
C30   C     C_3   0.782869 0.961759 0.719224 -0.972664
H19   H     H_    0.726113 0.025380 0.783752 0.267659
H20   H     H_    0.846124 0.898852 0.774907 0.277462
H21   H     H_    0.841985 0.028566 0.664230 0.260409
H22   H     H_    0.667781 0.783593 0.683589 0.255613
H23   H     H_    0.761134 0.831924 0.558125 0.226238
C31   C     C_3   0.326221 0.855026 0.331145 -0.435651
C32   C     C_3   0.362771 0.880401 0.197545 -0.800638
H24   H     H_    0.461231 0.851314 0.182829 0.282580
H25   H     H_    0.301766 0.818749 0.130479 0.252503
H26   H     H_    0.351949 0.988549 0.177950 0.285171
H27   H     H_    0.321123 0.745860 0.337497 0.276745
H28   H     H_    0.230200 0.893068 0.346574 0.184800

loop_
_geom_bond_atom_site_label_1
_geom_bond_atom_site_label_2
_ccdc_geom_bond_type
C21   H5    S    
C32   H26   S    
C6    H8    S    
C28   H14   S    
C19   Br1   S    
O4    Zn2   S    
C30   H19   S    
C22   H6    S    
C15   C18   A    
O1    Zn1   S    
C11   C16   A    
C29   H23   S    
C3    C23   A    
C19   C20   A    
C12   C15   A    
C1    O3    A    
C25   H13   S    
C14   H4    S    
C5    N2    A    
O3    Zn2   S    
C26   H10   S    
C30   H20   S    
C32   H25   S    
C27   H18   S    
C13   C14   A    
C7    N1    A    
C9    O5    A    
C32   H24   S    
O8    Zn2   S    
C26   H11   S    
C10   C18   S    
C27   C28   S    
C3    C25   S    
C26   H9    S    
C17   C19   A    
C12   C14   A    
C8    C31   S    
C18   C20   A    
C27   H17   S    
C28   H15   S    
O5    Zn1   S    
C29   C30   S    
C4    C24   A    
O7    Zn2   S    
C20   Br2   S    
C21   C24   A    
C10   O8    A    
C11   H1    S    
C31   H28   S    
C15   C16   A    
N1    Zn1   S    
C6    N2    A    
C11   C13   A    
C2    O2    A    
C1    O1    A    
C1    C24   S    
C10   O6    A    
C28   H16   S    
C9    C17   S    
C2    C23   S    
C5    C7    A    
C25   H12   S    
C2    O4    A    
C22   C23   A    
C7    C29   S    
O2    Zn1   S    
C6    C8    A    
N2    Zn2   S    
C30   H21   S    
C4    C27   S    
C31   H27   S    
C21   C22   A    
C9    O7    A    
C29   H22   S    
C31   C32   S    
O6    Zn1   S    
C13   H3    S    
C3    C4    A    
C25   C26   S    
C16   C17   A    
C12   H2    S    
C8    N1    A    
C5    H7    S    
