data_mof_unit_17040.cif
_audit_creation_date              2012-12-11T17:14:06-0500
_audit_creation_method            fapswitch 2.2
_symmetry_space_group_name_H-M    P1
_symmetry_Int_Tables_number       1
_space_group_crystal_system       triclinic
_cell_length_a                    18.222644
_cell_length_b                    7.091449
_cell_length_c                    13.004253
_cell_angle_alpha                 89.793924
_cell_angle_beta                  72.214687
_cell_angle_gamma                 90.02576
_cell_volume                      1600.14780827

loop_
_atom_site_label
_atom_site_type_symbol
_atom_type_description
_atom_site_fract_x
_atom_site_fract_y
_atom_site_fract_z
_atom_type_partial_charge
O1    O     O_R   0.453880 0.506200 0.150010 -0.545442
O2    O     O_R   0.546120 0.006200 0.849990 -0.545648
O3    O     O_R   0.604080 0.177770 0.007280 -0.543720
O4    O     O_R   0.395920 0.677770 0.992720 -0.544120
C1    C     C_R   0.635999 0.344526 0.001716 0.735433
C2    C     C_R   0.364005 0.844469 0.998293 0.734847
O5    O     O_R   0.458010 0.176640 0.159130 -0.529681
O6    O     O_R   0.541990 0.676640 0.840870 -0.527486
O7    O     O_R   0.399010 0.004010 0.002930 -0.531040
O8    O     O_R   0.600990 0.504010 0.997070 -0.532207
C3    C     C_R   0.442840 0.344996 0.201689 0.726163
C4    C     C_R   0.557263 0.845832 0.798285 0.721925
O9    O     O_3   0.480810 0.338440 0.948570 -0.376392
O10   O     O_3   0.519190 0.838440 0.051430 -0.377028
V1    V     V_3+5 0.503560 0.064490 0.009540 1.445547
V2    V     V_3+5 0.496440 0.564490 0.990460 1.445030
C5    C     C_R   0.589068 0.959624 0.506857 -0.164473
C6    C     C_R   0.413204 0.415195 0.496516 -0.164593
H1    H     H_    0.493824 0.977063 0.651610 0.121117
H2    H     H_    0.509348 0.434055 0.352707 0.119198
H3    H     H_    0.666800 0.982998 0.299295 0.120717
H4    H     H_    0.335862 0.414333 0.704683 0.121559
H5    H     H_    0.555236 0.011961 0.457234 0.129635
H6    H     H_    0.448438 0.446311 0.548123 0.129360
C7    C     C_R   0.594533 0.859358 0.681683 -0.025030
C8    C     C_R   0.405097 0.354583 0.318131 -0.022206
C9    C     C_R   0.957081 0.834113 0.384462 0.193956
C10   C     C_R   0.042342 0.369700 0.615020 0.196396
C11   C     C_R   0.925052 0.835119 0.496757 -0.151866
C12   C     C_R   0.074688 0.383219 0.503053 -0.154915
C13   C     C_R   0.845675 0.848829 0.544171 -0.220285
C14   C     C_R   0.154296 0.383516 0.456001 -0.218045
C15   C     C_R   0.794802 0.854286 0.481160 0.077585
C16   C     C_R   0.204870 0.361112 0.518661 0.078891
C17   C     C_R   0.827664 0.871990 0.367151 0.022320
C18   C     C_R   0.172342 0.362985 0.633131 0.021752
C19   C     C_R   0.712676 0.859633 0.527864 0.037738
C20   C     C_R   0.286960 0.354812 0.471878 0.038790
C21   C     C_R   0.667702 0.920601 0.461615 0.112342
C22   C     C_R   0.333486 0.388538 0.540280 0.112897
C23   C     C_R   0.701346 0.942578 0.350462 -0.188515
C24   C     C_R   0.300339 0.394967 0.652128 -0.190148
C25   C     C_R   0.779473 0.911197 0.303306 -0.186507
C26   C     C_R   0.221401 0.374825 0.698119 -0.185055
C27   C     C_R   0.672458 0.808649 0.637191 0.131377
C28   C     C_R   0.325690 0.317094 0.360494 0.130072
C29   C     C_R   0.553787 0.937821 0.617028 -0.233609
C30   C     C_R   0.448091 0.406687 0.385664 -0.240364
C31   C     C_R   0.908538 0.856930 0.319406 -0.093227
C32   C     C_R   0.091159 0.362409 0.680487 -0.091418
H7    H     H_    0.825873 0.864379 0.630440 0.137926
H8    H     H_    0.174831 0.411830 0.370738 0.134821
H9    H     H_    0.961791 0.827642 0.548287 0.131117
H10   H     H_    0.038078 0.398616 0.451739 0.128845
H11   H     H_    0.802247 0.927018 0.216509 0.119007
H12   H     H_    0.198962 0.377992 0.785369 0.117983
C33   C     C_1   0.216274 0.858793 0.000473 -0.178761
C34   C     C_1   0.783723 0.358719 0.999539 -0.179965
C35   C     C_1   0.283567 0.852525 0.999265 -0.180423
C36   C     C_1   0.716431 0.352595 0.000746 -0.182519
O11   O     O_R   0.899030 0.205490 0.002790 -0.536257
O12   O     O_R   0.100970 0.705490 0.997210 -0.538748
O13   O     O_R   0.042000 0.536370 0.840840 -0.547435
O14   O     O_R   0.958000 0.036370 0.159160 -0.538214
C37   C     C_R   0.056767 0.368547 0.798191 0.725182
C38   C     C_R   0.943076 0.867626 0.201772 0.727333
O15   O     O_R   0.895930 0.535070 0.992690 -0.541023
O16   O     O_R   0.104070 0.035070 0.007310 -0.537967
O17   O     O_R   0.953870 0.707520 0.150040 -0.544959
O18   O     O_R   0.046130 0.207520 0.849960 -0.535490
C39   C     C_R   0.864145 0.366717 0.998602 0.741726
C40   C     C_R   0.135849 0.866777 0.001402 0.743534
O19   O     O_3   0.019200 0.374340 0.051340 -0.377544
O20   O     O_3   0.980800 0.874340 0.948660 -0.375807
V3    V     V_3+5 0.996440 0.648350 0.990470 1.423032
V4    V     V_3+5 0.003560 0.148350 0.009530 1.446423
N1    N     N_3   0.704498 0.685006 0.700222 -0.677313
H13   H     H_    0.724503 0.763909 0.753942 0.215826
H14   H     H_    0.747216 0.597965 0.651401 0.240950
N2    N     N_3   0.290179 0.215759 0.292552 -0.679245
H15   H     H_    0.272839 0.310156 0.242646 0.217045
H16   H     H_    0.244835 0.130619 0.337561 0.245714
N3    N     N_3   0.039094 0.818425 0.335814 -0.682574
H17   H     H_    0.066998 0.814985 0.395161 0.231713
H18   H     H_    0.049892 0.688447 0.296338 0.216954
N4    N     N_3   0.960015 0.370241 0.663176 -0.682037
H19   H     H_    0.932463 0.361201 0.603599 0.232703
H20   H     H_    0.944709 0.500633 0.700908 0.216820

loop_
_geom_bond_atom_site_label_1
_geom_bond_atom_site_label_2
_ccdc_geom_bond_type
C12   C14   A    
O13   C37   A    
C9    C11   A    
C23   C25   A    
O1    C3    A    
O2    C4    A    
C2    O7    A    
O3    V1    S    
C21   C23   A    
N1    H13   S    
O5    C3    A    
C12   H10   S    
C5    H5    S    
O20   V4    S    
C6    H6    S    
N4    H20   S    
C34   C39   S    
C33   C35   T    
C38   O17   A    
C34   C36   T    
C37   O18   A    
C5    C21   A    
C6    C22   A    
C14   H8    S    
C10   C32   A    
C10   C12   A    
C17   C31   A    
C13   C15   A    
C17   C25   A    
C7    C29   A    
O15   C39   A    
C8    C30   A    
O11   C39   A    
C22   C24   A    
O6    V2    S    
O19   V3    S    
C24   C26   A    
N1    H14   S    
O11   V4    S    
O20   V3    S    
N2    H16   S    
C31   C38   S    
N4    H19   S    
C3    C8    S    
C15   C19   A    
O16   C40   A    
C11   H9    S    
C14   C16   A    
O4    V2    S    
C26   H12   S    
N3    H17   S    
O6    C4    A    
O14   V4    S    
O12   C40   A    
O1    V2    S    
O2    V1    S    
H2    C30   S    
H3    C23   S    
O4    C2    A    
N3    H18   S    
C10   N4    S    
O19   V4    S    
O12   V3    S    
C18   C26   A    
O15   V3    S    
O18   V4    S    
C19   C27   A    
C7    C27   A    
C18   C32   A    
C25   H11   S    
C1    C36   S    
C16   C20   A    
C2    C35   S    
C5    C29   A    
C13   H7    S    
N2    H15   S    
O3    C1    A    
C6    C30   A    
O9    V2    S    
O16   V4    S    
C4    C7    S    
C9    N3    S    
O7    V1    S    
C1    O8    A    
C11   C13   A    
O8    V2    S    
C20   C22   A    
H4    C24   S    
O13   V3    S    
O5    V1    S    
C15   C17   A    
O17   V3    S    
C16   C18   A    
C33   C40   S    
C32   C37   S    
C20   C28   A    
C8    C28   A    
C19   C21   A    
H1    C29   S    
O10   V1    S    
C27   N1    S    
C28   N2    S    
C9    C31   A    
O14   C38   A    
