data_mof_unit_53306.cif
_audit_creation_date              2012-12-11T16:43:10-0500
_audit_creation_method            fapswitch 2.2
_symmetry_space_group_name_H-M    P1
_symmetry_Int_Tables_number       1
_space_group_crystal_system       triclinic
_cell_length_a                    6.925703
_cell_length_b                    23.26441
_cell_length_c                    25.840726
_cell_angle_alpha                 104.834291
_cell_angle_beta                  90.249618
_cell_angle_gamma                 90.457301
_cell_volume                      4024.53451061

loop_
_atom_site_label
_atom_site_type_symbol
_atom_type_description
_atom_site_fract_x
_atom_site_fract_y
_atom_site_fract_z
_atom_type_partial_charge
O1    O     O_R   0.505750 0.453350 0.547660 -0.540687
O2    O     O_R   0.170990 0.432220 0.437590 -0.541029
O3    O     O_R   0.005600 0.546650 0.452340 -0.540555
C1    C     C_R   0.339818 0.415150 0.417620 0.710743
O4    O     O_R   0.175720 0.446240 0.546340 -0.542226
O5    O     O_R   0.010370 0.560770 0.561860 -0.536536
C2    C     C_R   0.344730 0.434184 0.562855 0.691653
O6    O     O_R   0.500990 0.439230 0.438140 -0.538890
O7    O     O_3   0.340820 0.537560 0.504970 -0.368177
V1    V     V_3+5 0.064050 0.493030 0.499080 1.399311
O8    O     O_R   0.680940 0.567780 0.562410 -0.542525
C3    C     C_R   0.850727 0.584515 0.582488 0.712952
O9    O     O_R   0.676210 0.553760 0.453660 -0.542157
C4    C     C_R   0.845179 0.565851 0.437171 0.690355
V2    V     V_3+5 0.564640 0.506970 0.500920 1.398665
O10   O     O_3   0.837740 0.462440 0.495030 -0.369494
C5    C     C_R   0.773954 0.884467 0.122395 -0.160787
H1    H     H_    0.642418 0.903694 0.111763 0.120715
C6    C     C_R   0.762622 0.848929 0.158569 -0.143755
H2    H     H_    0.623184 0.842394 0.175079 0.100576
C7    C     C_R   0.929319 0.823262 0.174080 0.094754
C8    C     C_R   0.107835 0.834163 0.152328 -0.141877
H3    H     H_    0.238844 0.814471 0.162693 0.099269
C9    C     C_R   0.119312 0.869889 0.116228 -0.162073
H4    H     H_    0.259158 0.877221 0.100333 0.119576
C10   C     C_R   0.952452 0.895544 0.100766 -0.055251
C11   C     C_R   0.062391 0.788109 0.251606 -0.151036
H5    H     H_    0.184679 0.818035 0.254292 0.110049
C12   C     C_R   0.050025 0.753051 0.288200 -0.151519
H6    H     H_    0.163307 0.756984 0.317942 0.108522
C13   C     C_R   0.891766 0.714413 0.287142 0.081696
C14   C     C_R   0.746172 0.711883 0.248450 -0.151185
H7    H     H_    0.623887 0.681956 0.245765 0.109802
C15   C     C_R   0.758537 0.746942 0.211856 -0.151818
H8    H     H_    0.645258 0.743009 0.182113 0.108175
C16   C     C_R   0.916814 0.785573 0.212908 0.081663
C17   C     C_R   0.700865 0.665776 0.347716 -0.141543
H9    H     H_    0.569815 0.685457 0.337365 0.099391
C18   C     C_R   0.689495 0.630041 0.383813 -0.161883
H10   H     H_    0.549687 0.622691 0.399720 0.119659
C19   C     C_R   0.856420 0.604403 0.399258 -0.055284
C20   C     C_R   0.034864 0.615498 0.377612 -0.160593
H11   H     H_    0.166447 0.596283 0.388228 0.120691
C21   C     C_R   0.046089 0.651044 0.341443 -0.143725
H12   H     H_    0.185494 0.657594 0.324922 0.100465
C22   C     C_R   0.879337 0.676703 0.325954 0.094741
C23   C     C_R   0.714111 0.643690 0.669420 -0.209974
C24   C     C_R   0.864055 0.633957 0.631748 -0.107213
C25   C     C_R   0.029449 0.670618 0.641901 -0.189101
C26   C     C_R   0.044878 0.717017 0.688682 0.114936
C27   C     C_R   0.895502 0.725920 0.726912 -0.013357
C28   C     C_R   0.729976 0.688468 0.717811 0.060495
C29   C     C_R   0.208164 0.754485 0.698020 -0.170918
C30   C     C_R   0.225173 0.800054 0.745126 -0.199047
C31   C     C_R   0.078746 0.809224 0.783628 0.103293
C32   C     C_R   0.912475 0.772299 0.774338 0.044131
C33   C     C_R   0.763189 0.781880 0.812383 0.054331
C34   C     C_R   0.600906 0.744166 0.803616 -0.264307
C35   C     C_R   0.584491 0.696868 0.757334 0.291322
C36   C     C_R   0.095189 0.854921 0.831067 -0.220183
C37   C     C_R   0.944958 0.865456 0.868685 -0.086681
C38   C     C_R   0.779124 0.828805 0.858878 -0.197382
H13   H     H_    0.586806 0.615405 0.661204 0.163354
H14   H     H_    0.145450 0.663493 0.612963 0.125497
H15   H     H_    0.324077 0.748095 0.669124 0.130283
H16   H     H_    0.353507 0.827995 0.751537 0.134279
H17   H     H_    0.222879 0.883194 0.838123 0.123763
H18   H     H_    0.663250 0.836348 0.887862 0.127371
H19   H     H_    0.487216 0.750879 0.833222 0.134369
C39   C     C_R   0.288350 0.170367 0.140116 -0.213516
C40   C     C_R   0.456231 0.135339 0.131086 -0.085465
C41   C     C_R   0.604794 0.147233 0.169822 -0.224218
C42   C     C_R   0.584222 0.192397 0.217561 0.093610
C43   C     C_R   0.415461 0.227255 0.226066 0.052564
C44   C     C_R   0.267864 0.216465 0.186943 0.088031
C45   C     C_R   0.728470 0.203012 0.257283 -0.180163
C46   C     C_R   0.707664 0.248311 0.304440 -0.193966
C47   C     C_R   0.541528 0.283648 0.312980 0.087965
C48   C     C_R   0.393932 0.272860 0.273856 0.052554
C49   C     C_R   0.225166 0.307717 0.282364 0.093686
C50   C     C_R   0.080921 0.297103 0.242641 -0.180353
C51   C     C_R   0.101730 0.251803 0.195483 -0.194161
C52   C     C_R   0.521031 0.329739 0.359811 -0.213429
C53   C     C_R   0.353138 0.364760 0.368847 -0.085334
C54   C     C_R   0.204580 0.352873 0.330109 -0.224293
H20   H     H_    0.173242 0.161839 0.110477 0.128621
H21   H     H_    0.733828 0.120307 0.163496 0.123863
H22   H     H_    0.858370 0.176532 0.251729 0.137339
H23   H     H_    0.822390 0.255938 0.334133 0.134212
H24   H     H_    0.636131 0.338260 0.389451 0.128569
H25   H     H_    0.075535 0.379794 0.336442 0.123754
H26   H     H_    0.951018 0.323581 0.248196 0.137246
H27   H     H_    0.987002 0.244176 0.165790 0.134120
C55   C     C_R   0.274532 0.124040 0.884974 -0.160741
H28   H     H_    0.141909 0.111702 0.901578 0.121411
C56   C     C_R   0.263091 0.159751 0.848963 -0.143673
H29   H     H_    0.122383 0.174372 0.839446 0.099956
C57   C     C_R   0.430898 0.177079 0.826196 0.094438
C58   C     C_R   0.610811 0.158007 0.840843 -0.141041
H30   H     H_    0.742900 0.169731 0.823588 0.099098
C59   C     C_R   0.622370 0.122418 0.877069 -0.160712
H31   H     H_    0.763133 0.108217 0.887030 0.117483
C60   C     C_R   0.454242 0.104777 0.899498 -0.054995
C61   C     C_R   0.556726 0.259209 0.787471 -0.150931
H32   H     H_    0.673939 0.267509 0.816364 0.110409
C62   C     C_R   0.543883 0.294560 0.751127 -0.152807
H33   H     H_    0.651701 0.329024 0.753115 0.108289
C63   C     C_R   0.391860 0.286390 0.713524 0.080879
C64   C     C_R   0.252959 0.241879 0.713367 -0.150616
H34   H     H_    0.135778 0.233560 0.684464 0.111098
C65   C     C_R   0.265796 0.206534 0.749709 -0.151792
H35   H     H_    0.157998 0.172061 0.747707 0.109586
C66   C     C_R   0.417833 0.214692 0.787305 0.080958
C67   C     C_R   0.198964 0.342890 0.659816 -0.142811
C68   C     C_R   0.187383 0.378217 0.623376 -0.161368
H36   H     H_    0.046605 0.392330 0.613332 0.117143
C69   C     C_R   0.355488 0.395686 0.600819 -0.054641
C70   C     C_R   0.535234 0.376613 0.615510 -0.162665
H37   H     H_    0.667850 0.388879 0.598854 0.121177
C71   C     C_R   0.546699 0.341158 0.651738 -0.144319
H38   H     H_    0.687419 0.326629 0.661348 0.100217
C72   C     C_R   0.378878 0.323916 0.674560 0.094603
O11   O     O_R   0.308350 0.060850 0.061810 -0.538781
O12   O     O_R   0.633860 0.053770 0.953650 -0.542132
O13   O     O_R   0.798960 0.939210 0.938150 -0.538632
C73   C     C_R   0.464897 0.065982 0.937214 0.690136
O14   O     O_R   0.638360 0.067800 0.062400 -0.540860
O15   O     O_R   0.803500 0.953330 0.047670 -0.540406
C74   C     C_R   0.469528 0.084920 0.082335 0.711292
O16   O     O_R   0.303810 0.046730 0.952290 -0.540640
O17   O     O_3   0.468430 0.962490 0.995010 -0.368633
V3    V     V_3+5 0.745300 0.006960 0.000930 1.396900
O18   O     O_R   0.132880 0.946160 0.046390 -0.542358
C75   C     C_R   0.963844 0.934098 0.062857 0.690465
O19   O     O_R   0.128380 0.932130 0.937650 -0.541637
C76   C     C_R   0.958560 0.915354 0.917596 0.710953
V4    V     V_3+5 0.244670 0.992930 0.999140 1.397222
O20   O     O_3   0.971670 0.037510 0.005000 -0.368955
N1    N     N_2   0.421062 0.658060 0.751011 -0.519613
H39   H     H_    0.297755 0.678387 0.768891 0.268922
C77   C     C_3   0.456579 0.602961 0.765477 -0.567207
H40   H     H_    0.489074 0.612053 0.809003 0.196695
H41   H     H_    0.579325 0.578833 0.742424 0.203090
H42   H     H_    0.326184 0.573973 0.756315 0.202397
H43   H     H_    0.066871 0.331257 0.677128 0.098838

loop_
_geom_bond_atom_site_label_1
_geom_bond_atom_site_label_2
_ccdc_geom_bond_type
C31   C32   A    
O18   V4    S    
C59   H31   S    
C11   C12   A    
C42   C43   A    
C2    C69   S    
C6    H2    S    
C1    O6    A    
C49   C54   A    
C61   C62   A    
C67   C68   A    
C54   H25   S    
C33   C38   A    
C18   C19   A    
C7    C16   S    
C46   C47   A    
C63   C64   A    
C46   H23   S    
C17   H9    S    
O17   V4    S    
C5    C10   A    
C7    C8    A    
C6    C7    A    
C9    C10   A    
C27   C32   A    
C64   C65   A    
C23   H13   S    
C62   H33   S    
C73   O16   A    
V3    O20   S    
C68   H36   S    
C32   C33   A    
O12   V3    S    
C15   H8    S    
C19   C20   A    
C60   C73   S    
C70   H37   S    
O14   V3    S    
C50   H26   S    
O8    V2    S    
C47   C52   A    
C52   C53   A    
C36   H17   S    
C71   C72   A    
C68   C69   A    
C13   C22   S    
C56   C57   A    
C39   C40   A    
O1    V2    S    
C29   H15   S    
O7    V1    S    
C45   H22   S    
C3    C24   S    
C59   C60   A    
C51   H27   S    
O9    C4    A    
O11   C74   A    
C55   H28   S    
C20   C21   A    
O15   V3    S    
C61   H32   S    
C21   C22   A    
C50   C51   A    
C45   C46   A    
C26   C29   A    
C43   C44   A    
C27   C28   A    
C23   C24   A    
O19   C76   A    
C9    H4    S    
C77   H42   S    
C18   H10   S    
O4    C2    A    
C34   H19   S    
C47   C48   A    
C41   C42   A    
C57   C66   S    
C26   C27   A    
C34   C35   A    
C29   C30   A    
C61   C66   A    
C36   C37   A    
C14   C15   A    
O2    C1    A    
O14   C74   A    
C12   H6    S    
C10   C75   S    
C28   C35   A    
O15   C75   A    
C40   C74   S    
C58   H30   S    
C1    C53   S    
C35   N1    S    
N1    H39   S    
C56   H29   S    
C5    H1    S    
C65   C66   A    
C53   C54   A    
C55   C56   A    
O3    C4    A    
C4    C19   S    
O13   C76   A    
C24   C25   A    
C58   C59   A    
C55   C60   A    
C57   C58   A    
O6    V2    S    
C43   C48   A    
O9    V2    S    
O18   C75   A    
C42   C45   A    
C8    C9    A    
C20   H11   S    
O17   V3    S    
C39   H20   S    
C11   H5    S    
C41   H21   S    
C71   H38   S    
O12   C73   A    
O19   V4    S    
C52   H24   S    
C30   C31   A    
C65   H35   S    
O1    C2    A    
C13   C14   A    
C21   H12   S    
C67   H43   S    
C63   C72   S    
C49   C50   A    
O5    V1    S    
O8    C3    A    
C44   C51   A    
C23   C28   A    
C30   H16   S    
C11   C16   A    
V4    O20   S    
O11   V4    S    
C69   C70   A    
C38   H18   S    
C14   H7    S    
C77   H41   S    
O7    V2    S    
O4    V1    S    
C12   C13   A    
O3    V1    S    
V1    O10   S    
C77   H40   S    
O5    C3    A    
N1    C77   S    
O13   V3    S    
C33   C34   A    
C62   C63   A    
C5    C6    A    
C15   C16   A    
C37   C38   A    
C70   C71   A    
C48   C49   A    
C67   C72   A    
C40   C41   A    
C17   C18   A    
C25   C26   A    
C64   H34   S    
C39   C44   A    
C25   H14   S    
C8    H3    S    
C17   C22   A    
C31   C36   A    
O16   V4    S    
V2    O10   S    
C37   C76   S    
O2    V1    S    
