data_mof_unit_52629.cif
_audit_creation_date              2012-12-10T16:59:22-0500
_audit_creation_method            fapswitch 2.2
_symmetry_space_group_name_H-M    P1
_symmetry_Int_Tables_number       1
_space_group_crystal_system       triclinic
_cell_length_a                    7.725132
_cell_length_b                    8.544544
_cell_length_c                    27.66842
_cell_angle_alpha                 90.695774
_cell_angle_beta                  86.856354
_cell_angle_gamma                 93.654585
_cell_volume                      1819.80445081

loop_
_atom_site_label
_atom_site_type_symbol
_atom_type_description
_atom_site_fract_x
_atom_site_fract_y
_atom_site_fract_z
_atom_type_partial_charge
C1    C     C_R   0.545906 0.794851 0.498730 0.977004
C2    C     C_R   0.504196 0.642731 0.127831 -0.007137
C3    C     C_R   0.515189 0.498749 0.646499 -0.038948
C4    C     C_R   0.484827 0.501231 0.353500 -0.038955
C5    C     C_R   0.542268 0.640155 0.025927 0.066957
C6    C     C_R   0.458395 0.359453 0.974064 0.066942
C7    C     C_R   0.428446 0.364353 0.025137 -0.010605
C8    C     C_R   0.572278 0.635234 0.974859 -0.010632
C9    C     C_R   0.475363 0.502825 0.050914 0.076984
C10   C     C_R   0.525255 0.496802 0.949079 0.076990
C11   C     C_R   0.573290 0.779551 0.053018 -0.243844
C12   C     C_R   0.454094 0.205149 0.501270 0.977005
C13   C     C_R   0.427288 0.220093 0.946962 -0.243813
C14   C     C_R   0.557740 0.779708 0.102955 -0.150845
C15   C     C_R   0.442664 0.220003 0.897023 -0.150777
C16   C     C_R   0.504098 0.499850 0.593966 0.874246
C17   C     C_R   0.495903 0.500149 0.406034 0.874246
C18   C     C_R   0.655604 0.762877 0.949068 -0.213549
C19   C     C_R   0.345231 0.236667 0.050933 -0.213576
C20   C     C_2   0.570227 0.958314 0.497999 -0.373057
C21   C     C_2   0.429773 0.041686 0.502001 -0.373057
C22   C     C_R   0.604417 0.627594 0.821026 0.493796
C23   C     C_R   0.544346 0.495379 0.897828 -0.068725
C24   C     C_R   0.395846 0.372192 0.178974 0.493797
C25   C     C_R   0.501818 0.358224 0.821804 0.500198
C26   C     C_R   0.498335 0.641590 0.178183 0.500200
C27   C     C_R   0.689679 0.493542 0.716463 -0.097255
C28   C     C_R   0.310389 0.506477 0.283526 -0.097259
C29   C     C_R   0.678202 0.495380 0.666585 -0.211495
C30   C     C_R   0.321836 0.504687 0.333407 -0.211504
C31   C     C_R   0.364003 0.500363 0.676987 -0.208159
C32   C     C_R   0.636019 0.499488 0.323018 -0.208124
C33   C     C_R   0.375958 0.498111 0.726899 -0.100524
C34   C     C_R   0.456121 0.504311 0.102163 -0.068724
C35   C     C_R   0.624096 0.501692 0.273105 -0.100569
C36   C     C_R   0.538676 0.494666 0.746541 0.334634
C37   C     C_R   0.461402 0.505220 0.253456 0.334678
C38   C     C_3   0.775126 0.904258 0.872779 -0.303644
C39   C     C_3   0.873042 0.024657 0.904459 -0.933062
C40   C     C_3   0.225392 0.095419 0.127214 -0.303629
C41   C     C_3   0.127486 0.975043 0.095523 -0.933102
C42   C     C_R   0.609697 0.631550 0.872151 -0.090426
C43   C     C_R   0.390737 0.368162 0.127845 -0.090408
C44   C     C_R   0.677002 0.764273 0.898404 0.155068
C45   C     C_R   0.323608 0.235368 0.101594 0.155085
C46   C     C_R   0.496136 0.357010 0.872155 -0.007138
H1    H     H_    0.237001 0.502807 0.662359 0.160260
H2    H     H_    0.815456 0.490969 0.731814 0.132647
H3    H     H_    0.588746 0.888554 0.122030 0.191661
H4    H     H_    0.411577 0.111188 0.877941 0.191664
H5    H     H_    0.607577 0.892244 0.036980 0.142299
H6    H     H_    0.393039 0.107379 0.962988 0.142284
H7    H     H_    0.709500 0.861929 0.968313 0.162918
H8    H     H_    0.291601 0.137485 0.031700 0.162906
H9    H     H_    0.702836 0.009464 0.494183 0.180625
H10   H     H_    0.297163 0.990536 0.505817 0.180625
H11   H     H_    0.780978 0.088840 0.928354 0.266524
H12   H     H_    0.763006 0.496970 0.337651 0.160268
H13   H     H_    0.966386 0.966580 0.926366 0.263705
H14   H     H_    0.947761 0.112297 0.880913 0.273910
H15   H     H_    0.874666 0.858503 0.846696 0.242943
H16   H     H_    0.682007 0.968782 0.852670 0.259406
H17   H     H_    0.034348 0.033178 0.073562 0.263723
H18   H     H_    0.219565 0.910706 0.071678 0.266540
H19   H     H_    0.052533 0.887528 0.119063 0.273896
H20   H     H_    0.318428 0.030882 0.147350 0.259433
H21   H     H_    0.125806 0.141214 0.153275 0.242957
H22   H     H_    0.013930 0.383622 0.463468 0.191598
H23   H     H_    0.986070 0.616378 0.536532 0.191594
H24   H     H_    0.259205 0.499349 0.750398 0.133674
H25   H     H_    0.740854 0.500351 0.249611 0.133645
H26   H     H_    0.203193 0.505761 0.356132 0.160184
H27   H     H_    0.796842 0.494411 0.643855 0.160180
H28   H     H_    0.184631 0.509114 0.268168 0.132632
N1    N     N_R   0.550239 0.493055 0.797721 -0.351088
N2    N     N_R   0.449888 0.506780 0.202274 -0.351097
N3    N     N_2   0.950320 0.457960 0.486880 -0.175742
N4    N     N_2   0.049680 0.542040 0.513120 -0.175742
O1    O     O_R   0.389250 0.738570 0.503220 -0.610998
O2    O     O_2   0.353527 0.242927 0.205580 -0.570177
O3    O     O_2   0.543332 0.773471 0.203130 -0.550084
O4    O     O_2   0.456692 0.226387 0.796850 -0.550073
O5    O     O_R   0.610750 0.261430 0.496780 -0.610997
O6    O     O_R   0.678390 0.711630 0.494810 -0.629643
O7    O     O_R   0.321610 0.288370 0.505190 -0.629643
O8    O     O_R   0.355440 0.513440 0.575450 -0.620304
O9    O     O_R   0.644560 0.486560 0.424550 -0.620311
O10   O     O_R   0.644590 0.486500 0.567040 -0.630876
O11   O     O_R   0.355410 0.513500 0.432960 -0.630873
O12   O     O_2   0.646720 0.756879 0.794428 -0.570223
Zn1   Zn    Zn3+2 0.306940 0.517990 0.505620 0.948943
Zn2   Zn    Zn3+2 0.693060 0.482010 0.494380 0.948941

loop_
_geom_bond_atom_site_label_1
_geom_bond_atom_site_label_2
_ccdc_geom_bond_type
C27   H2    S    
N3    Zn2   S    
C27   C29   A    
C32   H12   S    
C28   H28   S    
O7    Zn1   S    
N3    N4    D    
C1    O6    A    
C5    C9    A    
O5    Zn2   S    
C23   C42   A    
C12   O7    A    
C35   C37   A    
C5    C11   A    
O8    Zn1   S    
C38   C39   S    
C11   C14   A    
C14   H3    S    
C29   H27   S    
C39   H11   S    
C33   C36   A    
C15   H4    S    
C3    C29   A    
C18   H7    S    
C24   O2    S    
O10   Zn2   S    
C40   H21   S    
C26   N2    A    
C31   C33   A    
O11   Zn1   S    
O1    Zn1   S    
C38   H15   S    
C2    C34   A    
C35   H25   S    
C23   C46   A    
C31   H1    S    
O9    Zn2   S    
C16   O8    A    
H23   N4    S    
C42   C44   A    
C22   N1    A    
C20   H9    S    
C40   C45   S    
C32   C35   A    
C17   O11   A    
C24   N2    A    
C41   H19   S    
C12   C21   S    
C8    C18   A    
C12   O5    A    
C25   N1    A    
C38   C44   S    
C36   N1    S    
C18   C44   A    
C5    C8    A    
C13   H6    S    
C39   H13   S    
C22   O12   S    
C2    C26   A    
N4    Zn1   S    
C3    C31   A    
C43   C45   A    
C4    C32   A    
C33   H24   S    
C4    C17   S    
C19   H8    S    
C40   C41   S    
C37   N2    S    
C26   O3    S    
C7    C19   A    
C13   C15   A    
C25   O4    S    
C1    O1    A    
C41   H17   S    
H22   N3    S    
C7    C9    A    
C1    C20   S    
C17   O9    A    
C34   C43   A    
C6    C10   A    
C21   H10   S    
C30   H26   S    
C19   C45   A    
C6    C7    A    
C10   C23   A    
C15   C46   A    
C27   C36   A    
C28   C30   A    
C6    C13   A    
C22   C42   A    
C28   C37   A    
C39   H14   S    
C9    C34   A    
C2    C14   A    
C11   H5    S    
C20   C21   D    
C8    C10   A    
C16   O10   A    
C24   C43   A    
C40   H20   S    
O6    Zn2   S    
C41   H18   S    
C25   C46   A    
C4    C30   A    
C3    C16   S    
C38   H16   S    
