data_mof_unit_30627.cif
_audit_creation_date              2012-12-11T15:03:48-0500
_audit_creation_method            fapswitch 2.2
_symmetry_space_group_name_H-M    P1
_symmetry_Int_Tables_number       1
_space_group_crystal_system       triclinic
_cell_length_a                    8.232205
_cell_length_b                    15.019356
_cell_length_c                    18.880418
_cell_angle_alpha                 100.602021
_cell_angle_beta                  91.755014
_cell_angle_gamma                 99.109957
_cell_volume                      2261.32776937

loop_
_atom_site_label
_atom_site_type_symbol
_atom_type_description
_atom_site_fract_x
_atom_site_fract_y
_atom_site_fract_z
_atom_type_partial_charge
Ba1   Ba    Ba6+2 0.854120 0.540280 0.465540 1.781274
Ba2   Ba    Ba6+2 0.335710 0.459790 0.534460 1.725646
C1    C     C_3   0.720044 0.865977 0.297453 -0.216608
C2    C     C_3   0.668794 0.770974 0.314706 0.369809
C3    C     C_3   0.373224 0.180506 0.314118 0.179027
C4    C     C_3   0.420370 0.084443 0.295914 -0.409023
C5    C     C_3   0.060319 0.279701 0.728076 0.369988
C6    C     C_3   0.062979 0.255775 0.802934 0.577489
C7    C     C_3   0.532172 0.229175 0.689273 0.292991
C8    C     C_3   0.495912 0.135602 0.710664 -0.259259
C9    C     C_R   0.991649 0.453485 0.045479 0.032116
C10   C     C_R   0.886802 0.408641 0.090431 -0.004295
C11   C     C_R   0.721447 0.373764 0.065143 -0.072866
C12   C     C_3   0.142066 0.726074 0.267679 0.273623
C13   C     C_R   0.663089 0.381376 0.996930 -0.082877
C14   C     C_R   0.768430 0.422092 0.951006 0.038911
C15   C     C_R   0.933102 0.458677 0.974894 0.034259
C16   C     C_R   0.710950 0.424814 0.881156 -0.088095
C17   C     C_R   0.816122 0.461848 0.832622 -0.031979
C18   C     C_R   0.980914 0.502558 0.856729 0.001461
C19   C     C_R   0.038792 0.499799 0.928109 0.004302
C20   C     C_R   0.761478 0.457748 0.760343 0.008832
C21   C     C_R   0.870427 0.492422 0.712929 -0.291215
C22   C     C_R   0.029225 0.539593 0.735971 0.003857
C23   C     C_3   0.112776 0.747132 0.192193 0.940289
C24   C     C_R   0.085968 0.547533 0.810465 -0.081419
C25   C     C_R   0.156201 0.489644 0.069658 0.061782
C26   C     C_R   0.213160 0.488944 0.141611 0.065738
C27   C     C_R   0.106782 0.446244 0.188635 -0.052375
C28   C     C_R   0.950113 0.396131 0.158064 -0.021658
C29   C     C_R   0.242125 0.597159 0.841284 0.009102
C30   C     C_R   0.307078 0.582027 0.907748 -0.007003
C31   C     C_R   0.203231 0.535927 0.952275 0.013169
C32   C     C_R   0.262165 0.530308 0.022682 0.069293
C33   C     C_R   0.472964 0.615663 0.932340 -0.080079
C34   C     C_3   0.248591 0.741219 0.620792 0.231650
C35   C     C_R   0.531999 0.607782 0.000423 -0.065730
C36   C     C_R   0.426674 0.567480 0.046633 0.051293
C37   C     C_R   0.377539 0.530855 0.165930 -0.004974
C38   C     C_R   0.483443 0.566461 0.116979 -0.057307
C39   C     C_R   0.430786 0.537988 0.238872 -0.006067
C40   C     C_R   0.321182 0.504387 0.286530 -0.250369
C41   C     C_R   0.162340 0.457397 0.263635 0.038646
C42   C     C_R   0.763607 0.236014 0.527385 -0.393706
C43   C     C_R   0.859914 0.176804 0.549368 0.000464
C44   C     C_R   0.801960 0.081930 0.536556 0.581558
C45   C     C_3   0.319469 0.843881 0.642577 -0.338053
C46   C     C_R   0.637177 0.046100 0.507870 -0.051940
C47   C     C_R   0.541908 0.109579 0.488410 -0.220886
C48   C     C_R   0.610371 0.201449 0.492204 0.031538
C49   C     C_R   0.416654 0.908143 0.452257 -0.204385
C50   C     C_R   0.349779 0.814852 0.442495 -0.039948
C51   C     C_R   0.583576 0.787963 0.510909 -0.022359
C52   C     C_R   0.642948 0.882355 0.526397 -0.153588
C53   C     C_R   0.566601 0.944538 0.494461 0.031697
C54   C     C_R   0.439771 0.754097 0.467114 0.320007
C55   C     C_3   0.926918 0.256942 0.374822 0.239792
C56   C     C_3   0.844943 0.157295 0.345235 -0.160076
C57   C     C_3   0.761934 0.687567 0.687811 0.252409
C58   C     C_3   0.861101 0.741441 0.756950 -0.189383
H1    H     H_    0.741831 0.768089 0.364436 0.062117
H2    H     H_    0.435028 0.852098 0.676937 0.158486
H3    H     H_    0.350501 0.872444 0.593923 -0.028646
H4    H     H_    0.830685 0.297155 0.394616 0.037283
H5    H     H_    0.017702 0.260280 0.420302 0.036893
H6    H     H_    0.783684 0.153228 0.291372 0.120067
H7    H     H_    0.749071 0.134753 0.380235 -0.031012
H8    H     H_    0.846137 0.650058 0.653941 -0.022355
H9    H     H_    0.660880 0.636527 0.701522 0.061548
H10   H     H_    0.855717 0.880845 0.295299 0.189477
H11   H     H_    0.973003 0.783372 0.742061 0.123049
H12   H     H_    0.900400 0.692334 0.788461 0.029971
H13   H     H_    0.535882 0.761620 0.324506 -0.064330
H14   H     H_    0.680894 0.918732 0.339808 0.029900
H15   H     H_    0.269058 0.177545 0.349511 0.045008
H16   H     H_    0.469081 0.063462 0.344378 0.090313
H17   H     H_    0.309840 0.033222 0.273768 0.175540
H18   H     H_    0.515225 0.082482 0.255348 0.115766
H19   H     H_    0.663437 0.869809 0.244400 0.185794
H20   H     H_    0.153648 0.342004 0.728924 -0.005956
H21   H     H_    0.936247 0.294964 0.715382 -0.106018
H22   H     H_    0.185805 0.239642 0.816971 0.044043
H23   H     H_    0.038607 0.314880 0.843512 -0.088175
H24   H     H_    0.666051 0.244624 0.681574 -0.026234
H25   H     H_    0.461496 0.225358 0.637501 0.084779
H26   H     H_    0.531956 0.082480 0.667712 0.067873
H27   H     H_    0.362182 0.117648 0.718017 0.171875
H28   H     H_    0.071587 0.656865 0.268898 0.072806
H29   H     H_    0.566706 0.136591 0.761908 0.182341
H30   H     H_    0.634257 0.341177 0.097902 0.137933
H31   H     H_    0.535309 0.353880 0.979646 0.083823
H32   H     H_    0.828116 0.485419 0.657042 0.058296
H33   H     H_    0.583366 0.396508 0.865190 0.105263
H34   H     H_    0.559466 0.647273 0.898860 0.147457
H35   H     H_    0.659948 0.635098 0.017494 0.133061
H36   H     H_    0.610557 0.595758 0.133247 0.137946
H37   H     H_    0.275243 0.724812 0.277197 -0.107394
H38   H     H_    0.362969 0.512022 0.342531 0.118559
H39   H     H_    0.346581 0.950167 0.427553 0.086561
H40   H     H_    0.743143 0.905454 0.566748 0.198577
H41   H     H_    0.416604 0.089341 0.466883 0.120006
H42   H     H_    0.812805 0.308307 0.532823 0.081404
H43   H     H_    0.345951 0.704605 0.596642 0.063935
H44   H     H_    0.144233 0.731189 0.580201 0.063419
O1    O     O_2   0.871030 0.438240 0.324420 -0.444447
O2    O     O_3   0.695002 0.748821 0.652438 -0.606640
O3    O     O_3   0.088512 0.792727 0.320151 -0.650382
O4    O     O_2   0.318670 0.561790 0.675630 -0.431854
O5    O     O_3   0.069120 0.554770 0.586270 -0.487983
O6    O     O_3   0.526680 0.394150 0.629950 -0.484589
O7    O     O_3   0.196450 0.708092 0.682246 -0.635104
O8    O     O_3   0.607620 0.388570 0.462320 -0.450533
O9    O     O_3   0.103380 0.345110 0.593380 -0.513423
O10   O     O_2   0.200262 0.183584 0.547456 -0.428138
O11   O     O_3   0.098185 0.205636 0.677783 -0.563227
O12   O     O_3   0.120590 0.445310 0.413740 -0.466384
O13   O     O_3   0.582100 0.611510 0.537680 -0.421158
O14   O     O_2   0.334040 0.276520 0.462890 -0.463691
O15   O     O_3   0.513418 0.244643 0.345245 -0.668968
O16   O     O_2   0.422450 0.462454 0.756541 -0.495331
O17   O     O_3   0.483948 0.295696 0.743424 -0.614259
O18   O     O_3   0.663040 0.605930 0.370050 -0.466067
O19   O     O_2   0.773288 0.540258 0.244119 -0.469714
O20   O     O_3   0.005025 0.291771 0.318737 -0.622797
O21   O     O_3   0.699604 0.704131 0.256390 -0.535044
O22   O     O_2   0.855660 0.723510 0.537160 -0.489207
O23   O     O_3   0.086340 0.654970 0.406630 -0.422845
O24   O     O_2   0.015603 0.820007 0.455240 -0.472448
P1    P     P_3+3 0.038110 0.412300 0.335300 1.037984
P2    P     P_3+3 0.679950 0.711710 0.558590 1.055521
P3    P     P_3+3 0.135941 0.772107 0.406189 1.000950
P4    P     P_3+3 0.151600 0.587780 0.664700 1.014079
P5    P     P_3+3 0.066438 0.226683 0.590700 1.074462
P6    P     P_3+3 0.640420 0.594880 0.276766 1.019721
P7    P     P_3+3 0.514580 0.272827 0.439879 0.962355
P8    P     P_3+3 0.549899 0.404445 0.723183 0.937897
C59   C     C_2   0.200650 0.898999 0.682087 0.945423
O25   O     O_2   0.233587 0.936494 0.745043 -0.540677
O26   O     O_R   0.054818 0.910115 0.647582 -0.665151
H45   H     H_    0.044149 0.880639 0.594652 0.307260
C60   C     C_2   0.963103 0.090520 0.339756 0.814921
O27   O     O_2   0.989385 0.048453 0.280532 -0.539723
O28   O     O_R   0.037680 0.073868 0.402570 -0.747211
H46   H     H_    0.112422 0.026117 0.391911 0.309847
C61   C     C_2   0.768577 0.805141 0.804548 1.019896
O29   O     O_2   0.719025 0.867980 0.782046 -0.532873
O30   O     O_R   0.745672 0.794471 0.875729 -0.736746
H47   H     H_    0.681955 0.841256 0.902644 0.333589
C62   C     C_2   0.310484 0.207474 0.245924 0.937132
O31   O     O_2   0.211899 0.151887 0.203726 -0.469389
O32   O     O_R   0.359253 0.294729 0.229662 -0.734219
H48   H     H_    0.432916 0.339087 0.268927 0.286345
F1    F     F_    0.169365 0.682664 0.141505 -0.741926
F2    F     F_    0.942941 0.180525 0.804700 -0.648116
C63   C     C_2   0.872445 0.313237 0.183613 0.889388
O33   O     O_2   0.938670 0.245005 0.173977 -0.525113
O34   O     O_R   0.718921 0.310256 0.213297 -0.740590
H49   H     H_    0.674350 0.247402 0.223514 0.313065
C64   C     C_2   0.314599 0.682754 0.818469 0.888299
O35   O     O_2   0.446007 0.688171 0.790102 -0.624539
O36   O     O_R   0.236307 0.759438 0.833943 -0.729233
H50   H     H_    0.302064 0.815735 0.819789 0.355296
F3    F     F_    0.911885 0.026961 0.547781 -0.679830
F4    F     F_    0.381163 0.662709 0.453072 -0.717861
F5    F     F_    0.945891 0.741686 0.176648 -0.657569
C65   C     C_2   0.202245 0.840298 0.185961 0.890854
O37   O     O_2   0.124936 0.900459 0.175805 -0.507361
O38   O     O_R   0.374392 0.856763 0.189504 -0.784800
H51   H     H_    0.421187 0.920254 0.181028 0.317335

loop_
_geom_bond_atom_site_label_1
_geom_bond_atom_site_label_2
_ccdc_geom_bond_type
O21   P6    S    
C46   C53   S    
C55   H4    S    
Ba2   O5    S    
O34   H49   S    
C11   H30   S    
C63   O34   S    
C6    H23   S    
C39   C40   A    
O6    P8    S    
C17   C18   A    
C1    H19   S    
C45   H2    S    
C61   O29   D    
Ba2   O14   S    
C5    C6    S    
C37   C39   A    
C51   C52   A    
C59   O26   S    
Ba2   O8    S    
C35   C36   A    
C2    O21   S    
C3    O15   S    
C34   H43   S    
C6    H22   S    
C26   C27   A    
C33   C35   A    
C22   C24   A    
Ba1   Ba2   S    
Ba1   P1    S    
C48   P7    S    
C62   O32   S    
Ba1   O8    S    
C45   H3    S    
C3    C4    S    
Ba2   O9    S    
C4    H18   S    
C19   C31   A    
C58   H12   S    
O28   H46   S    
C3    C62   S    
C35   H35   S    
C34   C45   S    
C16   C17   A    
C5    O11   S    
C45   C59   S    
C1    H14   S    
Ba1   O18   S    
O18   P6    S    
Ba1   O5    S    
Ba2   O12   S    
C56   H6    S    
Ba2   O6    S    
O12   P1    S    
O30   H47   S    
C8    H29   S    
C14   C15   A    
Ba2   P4    S    
C21   C22   A    
C64   O36   S    
Ba1   O12   S    
C6    F2    S    
C7    C8    S    
C7    H25   S    
C57   C58   S    
O17   P8    S    
O9    P5    S    
C27   C41   A    
C65   O38   S    
C52   H40   S    
C38   H36   S    
C39   P6    S    
C61   O30   S    
Ba2   O13   S    
O36   H50   S    
C20   C21   A    
C25   C32   A    
C49   H39   S    
C44   C46   A    
C8    H27   S    
C57   O2    S    
O19   P6    D    
C23   F1    S    
C49   C50   A    
C30   C33   A    
O38   H51   S    
C41   P1    S    
C17   C20   A    
Ba1   O22   S    
O3    P3    S    
Ba1   P2    S    
C37   C38   A    
C42   H42   S    
C4    H17   S    
O1    P1    D    
O11   P5    S    
C26   C37   A    
C23   F5    S    
C43   C44   A    
C2    H1    S    
O15   P7    S    
C20   P8    S    
O16   P8    D    
C60   O28   S    
C3    H15   S    
C27   C28   A    
C57   H8    S    
C22   P4    S    
C7    O17   S    
C64   O35   D    
C9    C25   A    
O32   H48   S    
C1    H10   S    
C34   O7    S    
C31   C32   A    
Ba1   O13   S    
C10   C11   A    
O13   P2    S    
C2    H13   S    
C57   H9    S    
C28   C63   S    
C5    H21   S    
C44   F3    S    
C11   C13   A    
C65   O37   D    
C40   C41   A    
O8    P7    S    
C1    C2    S    
O24   P3    D    
C12   O3    S    
C63   O33   D    
C42   C43   A    
C12   H37   S    
C47   H41   S    
C51   C54   A    
C42   C48   A    
O2    P2    S    
C52   C53   A    
C8    H26   S    
C10   C28   A    
C32   C36   A    
C50   P3    S    
C29   C30   A    
Ba1   O23   S    
C55   H5    S    
C9    C15   A    
O26   H45   S    
C4    H16   S    
C23   C65   S    
C59   O25   D    
C54   F4    S    
O5    P4    S    
C43   P5    S    
C58   H11   S    
C34   H44   S    
C30   C31   A    
C33   H34   S    
C40   H38   S    
C12   H28   S    
C56   H7    S    
C60   O27   D    
C55   O20   S    
C36   C38   A    
C56   C60   S    
C55   C56   S    
C18   C24   A    
C46   C47   A    
Ba2   O4    S    
O10   P5    D    
O20   P1    S    
C49   C53   A    
C12   C23   S    
O23   P3    S    
O4    P4    D    
C7    H24   S    
C13   H31   S    
C50   C54   A    
O7    P4    S    
C24   C29   A    
C18   C19   A    
C14   C16   A    
C47   C48   A    
C58   C61   S    
C25   C26   A    
C16   H33   S    
O22   P2    D    
C21   H32   S    
C51   P2    S    
C62   O31   D    
C29   C64   S    
O14   P7    D    
C13   C14   A    
C9    C10   A    
Ba1   O1    S    
C5    H20   S    
C15   C19   A    
