data_mof_unit_5568.cif
_audit_creation_date              2012-10-26T18:32:41-0400
_audit_creation_method            fapswitch 2.2
_symmetry_space_group_name_H-M    P1
_symmetry_Int_Tables_number       1
_space_group_crystal_system       triclinic
_cell_length_a                    13.945851
_cell_length_b                    13.886355
_cell_length_c                    15.028237
_cell_angle_alpha                 85.894136
_cell_angle_beta                  90.047516
_cell_angle_gamma                 84.607089
_cell_volume                      2889.92148278

loop_
_atom_site_label
_atom_site_type_symbol
_atom_type_description
_atom_site_fract_x
_atom_site_fract_y
_atom_site_fract_z
_atom_type_partial_charge
C1    C     C_R   0.499924 0.501434 0.329320 0.537825
C2    C     C_R   0.565486 0.326280 0.971964 0.265602
C3    C     C_R   0.787975 0.572738 0.451702 0.141422
C4    C     C_R   0.212025 0.427262 0.548298 0.141422
C5    C     C_R   0.801726 0.427107 0.547925 0.139053
C6    C     C_R   0.198273 0.572893 0.452077 0.139051
C7    C     C_R   0.904445 0.423079 0.543503 0.002452
C8    C     C_R   0.095554 0.576921 0.456498 0.002453
C9    C     C_R   0.948484 0.499987 0.499962 0.030197
C10   C     C_R   0.051515 0.500013 0.500039 0.030197
C11   C     C_R   0.889959 0.576854 0.456320 0.001857
C12   C     C_R   0.500076 0.498567 0.670679 0.537827
C13   C     C_R   0.110041 0.423146 0.543680 0.001857
C14   C     C_R   0.964723 0.344162 0.582948 -0.142245
C15   C     C_R   0.035277 0.655839 0.417055 -0.142246
C16   C     C_R   0.515872 0.317383 0.500325 0.531544
C17   C     C_R   0.484128 0.682617 0.499675 0.531543
C18   C     C_R   0.064591 0.344187 0.583020 -0.142930
C19   C     C_R   0.935409 0.655814 0.416981 -0.142931
C20   C     C_1   0.474218 0.785641 0.499668 -0.044428
C21   C     C_1   0.525782 0.214359 0.500332 -0.044429
C22   C     C_2   0.459563 0.976517 0.500397 0.022166
C23   C     C_R   0.500301 0.497237 0.953214 -0.010912
C24   C     C_2   0.540437 0.023483 0.499604 0.022166
C25   C     C_1   0.533408 0.127577 0.500107 -0.044033
C26   C     C_1   0.466592 0.872423 0.499893 -0.044032
C27   C     C_R   0.529772 0.406968 0.819278 -0.009122
C28   C     C_R   0.470239 0.593040 0.180722 -0.009139
C29   C     C_R   0.500126 0.493597 0.767360 0.011660
C30   C     C_R   0.499877 0.506408 0.232639 0.011660
C31   C     C_R   0.468190 0.577945 0.806682 -0.136111
C32   C     C_R   0.531826 0.422064 0.193317 -0.136108
C33   C     C_R   0.467446 0.580354 0.898643 -0.033168
C34   C     C_R   0.499729 0.502777 0.046784 -0.010911
C35   C     C_R   0.532582 0.419660 0.101355 -0.033158
C36   C     C_3   0.639773 0.970069 0.497941 -0.390745
C37   C     C_3   0.360227 0.029931 0.502059 -0.390743
C38   C     C_3   0.552106 0.313857 0.772922 -0.360427
C39   C     C_3   0.447878 0.686145 0.227083 -0.360428
C40   C     C_3   0.445102 0.837433 0.034816 -0.022415
C41   C     C_3   0.409258 0.923807 0.086694 -0.378012
C42   C     C_3   0.555106 0.162551 0.965216 -0.022416
C43   C     C_3   0.590944 0.076224 0.913274 -0.378012
C44   C     C_3   0.731775 0.649133 0.390105 -0.330339
C45   C     C_R   0.532695 0.408845 0.914255 0.049931
C46   C     C_3   0.268225 0.350867 0.609895 -0.330338
C47   C     C_3   0.759803 0.350538 0.608913 -0.333930
C48   C     C_3   0.240197 0.649464 0.391090 -0.333935
C49   C     C_R   0.467338 0.591170 0.085743 0.049908
C50   C     C_R   0.433457 0.665914 0.935807 -0.113399
C51   C     C_R   0.566589 0.334105 0.064191 -0.113411
C52   C     C_R   0.434571 0.673741 0.028032 0.265597
Cu1   Cu    Cu3+1 0.597420 0.500010 0.499990 0.913585
Cu2   Cu    Cu3+1 0.402580 0.499990 0.500010 0.913583
H1    H     H_    0.444147 0.642679 0.764710 0.110103
H2    H     H_    0.650985 0.918737 0.557985 0.135489
H3    H     H_    0.648001 0.929159 0.437115 0.126461
H4    H     H_    0.303520 0.978772 0.502534 0.128033
H5    H     H_    0.351999 0.070841 0.562885 0.126463
H6    H     H_    0.349015 0.081263 0.442015 0.135490
H7    H     H_    0.537371 0.321355 0.700290 0.093388
H8    H     H_    0.629363 0.287422 0.781570 0.177564
H9    H     H_    0.505086 0.258791 0.799665 0.145211
H10   H     H_    0.462566 0.678637 0.299723 0.093395
H11   H     H_    0.494917 0.741211 0.200379 0.145206
H12   H     H_    0.555869 0.357331 0.235287 0.110103
H13   H     H_    0.370626 0.712586 0.218396 0.177565
H14   H     H_    0.434255 0.859382 0.962677 0.126539
H15   H     H_    0.523574 0.820005 0.048924 0.120240
H16   H     H_    0.418875 0.905462 0.159463 0.146344
H17   H     H_    0.450370 0.986573 0.067252 0.085769
H18   H     H_    0.331688 0.944531 0.072067 0.162925
H19   H     H_    0.476607 0.179913 0.951210 0.120233
H20   H     H_    0.566074 0.140581 0.037338 0.126558
H21   H     H_    0.668558 0.055598 0.927762 0.162961
H22   H     H_    0.549949 0.013394 0.932788 0.085788
H23   H     H_    0.403880 0.727229 0.892429 0.109748
H24   H     H_    0.581165 0.094570 0.840522 0.146288
H25   H     H_    0.659276 0.634149 0.372652 0.193395
H26   H     H_    0.727523 0.720344 0.419860 0.103210
H27   H     H_    0.768024 0.655101 0.324427 0.084682
H28   H     H_    0.340724 0.365851 0.627347 0.193394
H29   H     H_    0.231977 0.344899 0.675573 0.084685
H30   H     H_    0.272477 0.279656 0.580139 0.103211
H31   H     H_    0.796658 0.344385 0.674902 0.090446
H32   H     H_    0.684537 0.366005 0.625454 0.193574
H33   H     H_    0.768903 0.279465 0.578945 0.106701
H34   H     H_    0.596180 0.272798 0.107570 0.109709
H35   H     H_    0.203339 0.655622 0.325102 0.090435
H36   H     H_    0.231100 0.720534 0.421062 0.106710
H37   H     H_    0.315461 0.633992 0.374547 0.193573
H38   H     H_    0.936014 0.280455 0.613993 0.110145
H39   H     H_    0.063986 0.719547 0.386011 0.110145
H40   H     H_    0.105258 0.280472 0.614075 0.108466
H41   H     H_    0.894742 0.719529 0.385928 0.108465
H42   H     H_    0.696480 0.021228 0.497466 0.128031
N1    N     N_R   0.743820 0.499960 0.499930 -0.214970
N2    N     N_R   0.256180 0.500040 0.500070 -0.214970
O1    O     O_R   0.582280 0.500030 0.370250 -0.510509
O2    O     O_3   0.607856 0.241929 0.938822 -0.570194
O3    O     O_R   0.417720 0.499970 0.629750 -0.510509
O4    O     O_R   0.417740 0.500020 0.370270 -0.504918
O5    O     O_R   0.582260 0.499980 0.629730 -0.504916
O6    O     O_R   0.593900 0.362160 0.500010 -0.507244
O7    O     O_R   0.406100 0.637840 0.499990 -0.507246
O8    O     O_R   0.429360 0.362150 0.500030 -0.505641
O9    O     O_R   0.570640 0.637850 0.499970 -0.505641
O10   O     O_3   0.392250 0.758116 0.061163 -0.570196

loop_
_geom_bond_atom_site_label_1
_geom_bond_atom_site_label_2
_ccdc_geom_bond_type
C16   C21   S    
C23   C45   A    
C4    N2    A    
C12   C29   S    
C27   C29   A    
C14   C18   A    
Cu2   O3    S    
C1    O1    A    
C4    C46   S    
Cu1   Cu2   S    
Cu1   O1    S    
C43   H24   S    
C15   C19   A    
C39   H10   S    
C5    C47   S    
C11   C19   A    
C24   C36   S    
C6    C48   S    
C13   C18   A    
C47   H31   S    
C17   O7    A    
C17   O9    A    
C27   C38   S    
C17   C20   S    
C34   C35   A    
C4    C13   A    
C36   H42   S    
C46   H28   S    
C16   O6    A    
C7    C14   A    
C23   C33   A    
C48   H37   S    
C50   C52   A    
C31   C33   A    
C9    C10   A    
C37   H4    S    
C16   O8    A    
C41   H17   S    
C38   H7    S    
C49   C52   A    
C2    O2    S    
C48   H36   S    
C39   H11   S    
C2    C45   A    
C43   H21   S    
C3    C44   S    
C42   H20   S    
C40   H15   S    
Cu2   O8    S    
C40   H14   S    
C47   H32   S    
C44   H26   S    
C24   C25   S    
C12   O5    A    
C44   H27   S    
C5    C7    A    
C6    C8    A    
C28   C39   S    
Cu1   N1    S    
C33   C50   A    
C22   C37   S    
C47   H33   S    
C32   C35   A    
C36   H2    S    
C42   O2    S    
C28   C49   A    
Cu1   O9    S    
C23   C34   A    
C9    C11   A    
C14   H38   S    
C37   H5    S    
C41   H18   S    
C46   H30   S    
C40   C41   S    
C5    N1    A    
C36   H3    S    
C8    C15   A    
C48   H35   S    
C35   C51   A    
C18   H40   S    
C22   C24   D    
C42   C43   S    
C50   H23   S    
C6    N2    A    
C19   H41   S    
C32   H12   S    
C38   H9    S    
C43   H22   S    
C7    C9    A    
C21   C25   T    
C34   C49   A    
C3    N1    A    
Cu2   O7    S    
C39   H13   S    
Cu2   O4    S    
C44   H25   S    
C10   C13   A    
C51   H34   S    
C15   H39   S    
C40   O10   S    
C28   C30   A    
C12   O3    A    
C29   C31   A    
C30   C32   A    
C27   C45   A    
C20   C26   T    
Cu1   O5    S    
C1    C30   S    
C42   H19   S    
C37   H6    S    
C3    C11   A    
C2    C51   A    
C46   H29   S    
C52   O10   S    
C8    C10   A    
C22   C26   S    
Cu2   N2    S    
Cu1   O6    S    
C31   H1    S    
C1    O4    A    
C41   H16   S    
C38   H8    S    
