data_mof_unit_23772.cif
_audit_creation_date              2012-12-10T17:05:20-0500
_audit_creation_method            fapswitch 2.2
_symmetry_space_group_name_H-M    P1
_symmetry_Int_Tables_number       1
_space_group_crystal_system       triclinic
_cell_length_a                    10.071336
_cell_length_b                    10.678299
_cell_length_c                    15.414213
_cell_angle_alpha                 90.346736
_cell_angle_beta                  67.491328
_cell_angle_gamma                 91.314379
_cell_volume                      1531.02558948

loop_
_atom_site_label
_atom_site_type_symbol
_atom_type_description
_atom_site_fract_x
_atom_site_fract_y
_atom_site_fract_z
_atom_type_partial_charge
C1    C     C_R   0.503281 0.737323 0.497618 0.932689
C2    C     C_R   0.437018 0.436919 0.903462 -0.010850
C3    C     C_R   0.315153 0.358966 0.950138 0.073300
C4    C     C_R   0.547672 0.448242 0.939393 0.018062
C5    C     C_R   0.513272 0.413012 0.034158 0.052116
C6    C     C_R   0.388787 0.337844 0.080430 -0.183972
C7    C     C_R   0.294198 0.307598 0.037295 -0.148112
C8    C     C_R   0.691720 0.489465 0.884986 -0.020989
C9    C     C_R   0.785910 0.519015 0.929578 -0.268345
C10   C     C_R   0.742861 0.504831 0.026144 0.134892
C11   C     C_R   0.605407 0.452744 0.079324 0.100184
C12   C     C_R   0.408828 0.496228 0.676545 0.930844
C13   C     C_R   0.836047 0.541779 0.070385 -0.181830
C14   C     C_R   0.789468 0.535971 0.167865 -0.130926
C15   C     C_R   0.559759 0.450511 0.177148 -0.246103
C16   C     C_2   0.627841 0.069740 0.453017 -0.329849
C17   C     C_2   0.507366 0.132957 0.471202 0.450326
C18   C     C_2   0.627085 0.935520 0.438484 0.004251
C19   C     C_2   0.510881 0.870065 0.495944 -0.268377
C20   C     C_2   0.102849 0.580322 0.456003 -0.164273
C21   C     C_2   0.947092 0.589861 0.469416 0.590861
C22   C     C_R   0.501340 0.262702 0.494487 0.811778
C23   C     C_R   0.590486 0.499179 0.323779 0.887476
C24   C     C_R   0.351212 0.469344 0.778004 -0.237865
C25   C     C_R   0.649076 0.494342 0.221428 -0.055462
C26   C     C_R   0.214420 0.334410 0.909706 -0.243101
C27   C     C_R   0.233697 0.384691 0.821985 -0.117930
C28   C     C_R   0.439567 0.505305 0.825441 0.568282
H1    H     H_    0.201564 0.247394 0.073828 0.160634
H2    H     H_    0.943223 0.578315 0.029851 0.154878
H3    H     H_    0.726368 0.115677 0.451068 0.211502
H4    H     H_    0.421409 0.915208 0.550112 0.198972
H5    H     H_    0.178851 0.649281 0.411546 0.201783
H6    H     H_    0.072878 0.447467 0.552054 0.187700
H7    H     H_    0.451467 0.421202 0.220655 0.170223
H8    H     H_    0.860768 0.568521 0.201353 0.191655
H9    H     H_    0.894309 0.552624 0.888608 0.203965
H10   H     H_    0.122329 0.273144 0.945568 0.185939
H11   H     H_    0.365676 0.296362 0.148511 0.162246
N1    N     N_2   0.148330 0.498670 0.499030 -0.194404
N2    N     N_2   0.852680 0.498640 0.499000 -0.212676
O1    O     O_R   0.386950 0.680940 0.500010 -0.598576
O2    O     O_R   0.613110 0.680900 0.499990 -0.534402
O3    O     O_R   0.322330 0.500030 0.632270 -0.581109
O4    O     O_R   0.548480 0.499990 0.632240 -0.540918
O5    O     O_R   0.386890 0.319100 0.500010 -0.557055
O6    O     O_R   0.613050 0.319060 0.499990 -0.639857
O7    O     O_R   0.451520 0.500010 0.367760 -0.613504
O8    O     O_R   0.677670 0.499970 0.367730 -0.598083
Zn1   Zn    Zn3+2 0.349000 0.500030 0.500020 1.038498
Zn2   Zn    Zn3+2 0.651000 0.499970 0.499980 1.088842
F1    F     F_    0.390818 0.079800 0.459455 -0.636618
C29   C     C_2   0.752598 0.880955 0.361596 1.042363
O9    O     O_2   0.739639 0.783093 0.323708 -0.640171
O10   O     O_R   0.885029 0.945519 0.329596 -0.776445
H12   H     H_    0.961901 0.900396 0.276530 0.355285
F2    F     F_    0.903572 0.702619 0.451577 -0.620542
C30   C     C_2   0.902799 0.373407 0.483891 0.927989
O11   O     O_2   0.850835 0.295363 0.546076 -0.556147
O12   O     O_R   0.007177 0.338806 0.397315 -0.824997
H13   H     H_    0.032127 0.247112 0.395370 0.365554
C31   C     C_2   0.130277 0.343501 0.779809 0.941720
O13   O     O_2   0.076537 0.419772 0.745063 -0.616732
O14   O     O_R   0.087736 0.217303 0.784914 -0.778524
H14   H     H_    0.014603 0.200705 0.755499 0.367784
F3    F     F_    0.525051 0.609492 0.795699 -0.654179
C32   C     C_2   0.755977 0.486956 0.781175 1.067867
O15   O     O_2   0.727596 0.400485 0.738364 -0.601540
O16   O     O_R   0.851335 0.583216 0.732579 -0.727639
H15   H     H_    0.886800 0.572877 0.662169 0.331645

loop_
_geom_bond_atom_site_label_1
_geom_bond_atom_site_label_2
_ccdc_geom_bond_type
C2    C4    A    
O10   H12   S    
C10   C13   A    
C21   F2    S    
C31   O13   D    
C7    H1    S    
C27   C31   S    
C3    C26   A    
C2    C28   A    
C9    C10   A    
C12   C24   S    
C28   F3    S    
C17   C22   S    
C24   C27   A    
C4    C8    A    
O14   H14   S    
O5    Zn1   S    
O7    Zn1   S    
C2    C3    A    
O12   H13   S    
C12   O3    A    
C13   C14   A    
C16   H3    S    
C5    C6    A    
O2    Zn2   S    
C26   C27   A    
C6    C7    A    
O1    Zn1   S    
C21   N2    D    
C20   H5    S    
C17   F1    S    
C15   H7    S    
C22   O5    A    
C29   O9    D    
C1    O2    A    
N2    C30   S    
C5    C11   A    
C3    C7    A    
C29   O10   S    
C14   C25   A    
C14   H8    S    
O16   H15   S    
C20   N1    D    
H6    N1    S    
C23   O8    A    
C15   C25   A    
C10   C11   A    
C19   H4    S    
C30   O12   S    
C32   O15   D    
N1    Zn1   S    
C1    O1    A    
C4    C5    A    
C23   C25   S    
C20   C21   S    
C8    C32   S    
C16   C18   S    
C18   C19   D    
O3    Zn1   S    
C12   O4    A    
O4    Zn2   S    
C6    H11   S    
C26   H10   S    
C31   O14   S    
C23   O7    A    
C18   C29   S    
O8    Zn2   S    
C30   O11   D    
C13   H2    S    
C1    C19   S    
C11   C15   A    
N2    Zn2   S    
C22   O6    A    
O6    Zn2   S    
C24   C28   A    
C16   C17   D    
C8    C9    A    
C32   O16   S    
C9    H9    S    
