data_mof_unit_14983.cif
_audit_creation_date              2012-12-10T16:59:59-0500
_audit_creation_method            fapswitch 2.2
_symmetry_space_group_name_H-M    P1
_symmetry_Int_Tables_number       1
_space_group_crystal_system       triclinic
_cell_length_a                    23.4632
_cell_length_b                    10.939822
_cell_length_c                    9.685997
_cell_angle_alpha                 89.920613
_cell_angle_beta                  90.105022
_cell_angle_gamma                 90.288508
_cell_volume                      2486.19495965

loop_
_atom_site_label
_atom_site_type_symbol
_atom_type_description
_atom_site_fract_x
_atom_site_fract_y
_atom_site_fract_z
_atom_type_partial_charge
C1    C     C_R   0.499173 0.265346 0.500117 0.838816
C2    C     C_R   0.970183 0.469458 0.752881 -0.164724
C3    C     C_R   0.029653 0.471476 0.752834 -0.163535
C4    C     C_R   0.059894 0.476909 0.627830 -0.013290
C5    C     C_R   0.029762 0.479634 0.501945 -0.018251
C6    C     C_R   0.059636 0.485243 0.376072 -0.012699
C7    C     C_R   0.029164 0.487536 0.251038 -0.164022
C8    C     C_R   0.969706 0.484761 0.250988 -0.164640
C9    C     C_R   0.119692 0.479421 0.625254 0.534244
C10   C     C_R   0.119414 0.488842 0.378663 0.533776
C11   C     C_R   0.239170 0.585100 0.561591 -0.096803
C12   C     C_R   0.391178 0.497747 0.499973 0.786848
C13   C     C_R   0.298532 0.586425 0.561440 -0.245578
C14   C     C_R   0.328906 0.490856 0.500116 -0.045440
C15   C     C_R   0.299230 0.390762 0.440768 0.045342
C16   C     C_R   0.239467 0.390668 0.442280 -0.123707
C17   C     C_R   0.209390 0.487436 0.501703 0.321024
C18   C     C_R   0.758181 0.374853 0.485436 -0.128585
C19   C     C_R   0.698512 0.379515 0.484621 0.093089
C20   C     C_R   0.671129 0.493854 0.500474 -0.062832
C21   C     C_R   0.703977 0.601714 0.517490 0.019259
C22   C     C_R   0.763508 0.593775 0.518274 -0.132986
C23   C     C_R   0.500178 0.734664 0.500038 0.854101
C24   C     C_R   0.790422 0.481328 0.502239 0.304534
C25   C     C_2   0.496582 0.933165 0.386827 -0.152663
C26   C     C_2   0.501782 0.866650 0.502401 -0.328190
C27   C     C_2   0.499490 0.067101 0.386768 -0.170639
C28   C     C_2   0.495866 0.133457 0.502576 -0.326777
C29   C     C_2   0.470275 0.423169 0.922146 -0.054872
C30   C     C_2   0.473241 0.418429 0.077684 -0.074514
C31   C     C_R   0.608786 0.499868 0.500092 0.803859
C32   C     C_R   0.879691 0.479083 0.378658 0.538258
C33   C     C_R   0.879915 0.472136 0.625338 0.540037
C34   C     C_R   0.939712 0.472533 0.627914 -0.017488
C35   C     C_R   0.969606 0.477155 0.501941 -0.018566
C36   C     C_R   0.939477 0.479952 0.375980 -0.016245
Cu1   Cu    Cu3+1 0.500010 0.500020 0.638630 0.938294
Cu2   Cu    Cu3+1 0.499990 0.499980 0.361370 0.934246
H1    H     H_    0.948215 0.465803 0.851079 0.185071
H2    H     H_    0.789375 0.675490 0.529813 0.140294
H3    H     H_    0.491540 0.888525 0.287411 0.169639
H4    H     H_    0.509101 0.907528 0.602491 0.144459
H5    H     H_    0.504198 0.111824 0.287204 0.163385
H6    H     H_    0.489086 0.092615 0.602964 0.148784
H7    H     H_    0.442701 0.357450 0.870938 0.153001
H8    H     H_    0.527960 0.556330 0.894154 0.194525
H9    H     H_    0.451378 0.343769 0.128788 0.157423
H10   H     H_    0.051798 0.469184 0.851027 0.185377
H11   H     H_    0.517793 0.572931 0.105868 0.193481
H12   H     H_    0.051120 0.491630 0.152843 0.185363
H13   H     H_    0.947556 0.486942 0.152798 0.185508
H14   H     H_    0.216230 0.660271 0.607783 0.152508
H15   H     H_    0.320913 0.663037 0.607657 0.150868
H16   H     H_    0.216041 0.314258 0.398693 0.143910
H17   H     H_    0.779854 0.288229 0.474002 0.139300
N1    N     N_R   0.851373 0.475921 0.502041 -0.463523
N2    N     N_R   0.148163 0.485669 0.501959 -0.465512
N3    N     N_2   0.499380 0.498660 0.846910 -0.279734
N4    N     N_2   0.499370 0.498630 0.153040 -0.279006
O1    O     O_R   0.500010 0.321960 0.617040 -0.581179
O2    O     O_2   0.850465 0.468529 0.744824 -0.523856
O3    O     O_2   0.149177 0.474464 0.744870 -0.529945
O4    O     O_2   0.148609 0.496453 0.259009 -0.533004
O5    O     O_R   0.499990 0.321920 0.382900 -0.581457
O6    O     O_R   0.417890 0.499980 0.617100 -0.568454
O7    O     O_R   0.417870 0.499940 0.382950 -0.566244
O8    O     O_R   0.500010 0.678080 0.617100 -0.581535
O9    O     O_R   0.499990 0.678040 0.382960 -0.579745
O10   O     O_R   0.582130 0.500060 0.617050 -0.575939
O11   O     O_R   0.582110 0.500020 0.382900 -0.580128
O12   O     O_2   0.850030 0.482479 0.259228 -0.526558
C37   C     C_3   0.665346 0.261193 0.469723 -0.415062
C38   C     C_3   0.648923 0.209959 0.610873 -0.808574
H18   H     H_    0.687817 0.187866 0.671323 0.257707
H19   H     H_    0.623026 0.276736 0.669355 0.270567
H20   H     H_    0.623332 0.125267 0.597623 0.236895
H21   H     H_    0.626524 0.274690 0.405938 0.214074
H22   H     H_    0.691421 0.192225 0.414694 0.203701
C39   C     C_3   0.677217 0.726705 0.530632 -0.417216
C40   C     C_3   0.663295 0.779662 0.387840 -0.337896
C41   C     C_3   0.650166 0.915757 0.396752 -0.843187
H23   H     H_    0.615938 0.932199 0.473072 0.265799
H24   H     H_    0.688936 0.967072 0.428695 0.253920
H25   H     H_    0.636065 0.950011 0.294345 0.247604
H26   H     H_    0.700102 0.767350 0.317084 0.235875
H27   H     H_    0.625894 0.731010 0.343315 0.230634
H28   H     H_    0.638058 0.722200 0.594816 0.194235
H29   H     H_    0.707152 0.789280 0.585448 0.209483
C42   C     C_3   0.329294 0.280363 0.381881 -0.413336
C43   C     C_3   0.326397 0.280151 0.223814 -0.304167
C44   C     C_3   0.354564 0.166305 0.164463 -0.861986
H30   H     H_    0.399510 0.159901 0.199654 0.248824
H31   H     H_    0.331129 0.082919 0.197843 0.264466
H32   H     H_    0.353930 0.170910 0.049944 0.241721
H33   H     H_    0.281231 0.282243 0.189051 0.235658
H34   H     H_    0.348283 0.362896 0.182940 0.231025
H35   H     H_    0.374525 0.276805 0.415219 0.195309
H36   H     H_    0.308715 0.196059 0.422975 0.198173

loop_
_geom_bond_atom_site_label_1
_geom_bond_atom_site_label_2
_ccdc_geom_bond_type
Cu2   O11   S    
Cu1   O10   S    
C38   H18   S    
C35   C36   A    
C10   O4    S    
C39   H28   S    
C41   H23   S    
C7    C8    A    
C29   C30   S    
C18   C24   A    
C32   C36   A    
Cu1   Cu2   S    
C18   C19   A    
C5    C6    A    
C40   C41   S    
C44   H31   S    
C15   C16   A    
C5    C35   A    
C3    H10   S    
C34   C35   A    
C8    C36   A    
C23   C26   S    
C23   O8    A    
C37   H22   S    
C11   H14   S    
C37   H21   S    
C2    H1    S    
C31   O11   A    
Cu2   O7    S    
C16   C17   A    
Cu1   O6    S    
C1    C28   S    
C40   H27   S    
Cu2   O5    S    
Cu1   N3    S    
C2    C34   A    
C33   N1    A    
C21   C22   A    
H8    N3    S    
C38   H19   S    
C19   C37   S    
C39   H29   S    
C41   H24   S    
C32   O12   S    
C13   H15   S    
C9    O3    S    
C30   H9    S    
C43   H33   S    
C10   N2    A    
C1    O1    A    
C25   H3    S    
C44   H30   S    
C4    C5    A    
C25   C26   D    
C12   O7    A    
C28   H6    S    
C39   C40   S    
C42   H35   S    
C23   O9    A    
C40   H26   S    
C15   C42   S    
C22   H2    S    
C30   N4    D    
C21   C39   S    
C33   C34   A    
C20   C21   A    
C8    H13   S    
C18   H17   S    
C12   C14   S    
C38   H20   S    
C22   C24   A    
C25   C27   S    
C3    C4    A    
C1    O5    A    
C41   H25   S    
C26   H4    S    
C11   C17   A    
C7    H12   S    
Cu2   O9    S    
C37   C38   S    
C6    C10   A    
C43   H34   S    
C6    C7    A    
C24   N1    S    
C12   O6    A    
H11   N4    S    
C42   H36   S    
C19   C20   A    
C2    C3    A    
C4    C9    A    
C44   H32   S    
C11   C13   A    
C43   C44   S    
Cu1   O8    S    
C9    N2    A    
C16   H16   S    
Cu1   O1    S    
Cu2   N4    S    
C27   H5    S    
C31   O10   A    
C29   N3    D    
C33   O2    S    
C29   H7    S    
C27   C28   D    
C14   C15   A    
C42   C43   S    
C13   C14   A    
C32   N1    A    
C17   N2    S    
C20   C31   S    
