data_mof_unit_27381.cif
_audit_creation_date              2012-12-10T20:31:05-0500
_audit_creation_method            fapswitch 2.2
_symmetry_space_group_name_H-M    P1
_symmetry_Int_Tables_number       1
_space_group_crystal_system       triclinic
_cell_length_a                    14.91434
_cell_length_b                    10.70835
_cell_length_c                    9.937798
_cell_angle_alpha                 89.134027
_cell_angle_beta                  89.973408
_cell_angle_gamma                 89.701557
_cell_volume                      1586.94264901

loop_
_atom_site_label
_atom_site_type_symbol
_atom_type_description
_atom_site_fract_x
_atom_site_fract_y
_atom_site_fract_z
_atom_type_partial_charge
C1    C     C_R   0.496283 0.260372 0.500976 0.872678
C2    C     C_R   0.187846 0.383500 0.527026 0.047009
C3    C     C_R   0.232642 0.495187 0.500297 -0.107496
C4    C     C_R   0.327601 0.498477 0.500144 0.862350
C5    C     C_R   0.188322 0.605258 0.470457 -0.225691
C6    C     C_R   0.476045 0.061439 0.622473 0.007932
C7    C     C_R   0.479085 0.129752 0.502199 -0.122709
C8    C     C_R   0.460801 0.070004 0.380794 -0.240290
C9    C     C_R   0.460313 0.940667 0.376764 -0.019149
C10   C     C_R   0.477481 0.871779 0.497079 -0.140307
C11   C     C_R   0.474407 0.933843 0.619366 0.046084
C12   C     C_R   0.907283 0.617242 0.469273 0.077728
C13   C     C_3   0.529167 0.919943 0.745631 -0.167808
C14   C     C_3   0.530741 0.063133 0.749485 -0.029566
C15   C     C_R   0.433721 0.440292 0.071780 0.108715
C16   C     C_R   0.495211 0.739954 0.498817 0.888456
C17   C     C_R   0.567330 0.554347 0.069603 0.026722
C18   C     C_R   0.568300 0.551095 0.926572 -0.171647
C19   C     C_R   0.433163 0.442684 0.929929 0.148070
C20   C     C_3   0.334261 0.465966 0.920598 -0.304292
C21   C     C_3   0.333481 0.462492 0.075449 -0.027398
C22   C     C_R   0.672535 0.501513 0.499998 0.901276
C23   C     C_R   0.950585 0.276477 0.547261 0.018843
C24   C     C_R   0.812840 0.618763 0.480592 -0.047913
C25   C     C_R   0.767948 0.505732 0.499780 -0.112685
C26   C     C_R   0.812589 0.393713 0.518077 -0.250571
C27   C     C_R   0.905381 0.390012 0.519984 0.078370
C28   C     C_R   0.953416 0.501749 0.494213 -0.012380
C29   C     C_1   0.760344 0.733592 0.481268 0.216137
C30   C     C_1   0.448991 0.884573 0.246818 0.253153
C31   C     C_1   0.482313 0.118629 0.863213 0.238649
C32   C     C_1   0.621066 0.115370 0.732582 0.183493
C33   C     C_1   0.635324 0.625972 0.134885 0.251284
C34   C     C_R   0.043970 0.273375 0.551940 0.110990
C35   C     C_1   0.310880 0.588464 0.858722 0.269305
C36   C     C_1   0.304781 0.580624 0.138157 0.311438
C37   C     C_1   0.100270 0.830423 0.386934 0.137164
C38   C     C_R   0.093447 0.383409 0.524921 0.089671
C39   C     C_R   0.047340 0.497802 0.494518 -0.037584
C40   C     C_R   0.095494 0.608581 0.465067 0.068137
C41   C     C_R   0.050653 0.720351 0.429911 -0.034517
C42   C     C_R   0.956860 0.725473 0.432564 0.033946
H1    H     H_    0.595608 0.874564 0.729161 0.173927
H2    H     H_    0.301785 0.341405 0.230929 0.206963
H3    H     H_    0.862889 0.141838 0.490829 0.199996
H4    H     H_    0.863466 0.173506 0.659214 0.218825
H5    H     H_    0.068267 0.090281 0.516770 0.214813
H6    H     H_    0.066589 0.128605 0.681739 0.203615
H7    H     H_    0.280423 0.253747 0.471726 0.175272
H8    H     H_    0.278347 0.284176 0.639078 0.190564
H9    H     H_    0.933089 0.910900 0.455725 0.197883
H10   H     H_    0.930584 0.862192 0.293622 0.202727
H11   H     H_    0.621911 0.596065 0.870906 0.156171
H12   H     H_    0.298588 0.387268 0.872842 0.162754
H13   H     H_    0.773232 0.309972 0.532775 0.155381
H14   H     H_    0.227806 0.688552 0.452094 0.161572
H15   H     H_    0.453412 0.123002 0.287472 0.179438
H16   H     H_    0.481657 0.765110 0.846210 0.228072
H17   H     H_    0.410743 0.886766 0.850513 0.221398
H18   H     H_    0.303123 0.273635 0.080767 0.199736
N1    N     N_R   0.499390 0.499140 0.142800 -0.138257
N2    N     N_1   0.281439 0.673215 0.185769 -0.207909
N3    N     N_3   0.283923 0.355106 0.130153 -0.445339
N4    N     N_3   0.903161 0.162262 0.573640 -0.483932
N5    N     N_3   0.087826 0.157425 0.585933 -0.411506
N6    N     N_3   0.238594 0.271248 0.553853 -0.423777
N7    N     N_1   0.140089 0.917578 0.352060 -0.200627
N8    N     N_3   0.912290 0.839431 0.392542 -0.443035
N9    N     N_R   0.499390 0.499180 0.857150 -0.119377
N10   N     N_1   0.718126 0.824621 0.482343 -0.215280
N11   N     N_1   0.440193 0.839873 0.142536 -0.191802
N12   N     N_3   0.478591 0.861721 0.856399 -0.419563
N13   N     N_1   0.444183 0.159989 0.953663 -0.252518
N14   N     N_1   0.692048 0.156746 0.719871 -0.236250
N15   N     N_1   0.690333 0.684802 0.185503 -0.196316
N16   N     N_1   0.292113 0.684145 0.810530 -0.215871
O1    O     O_R   0.500010 0.316790 0.614690 -0.617104
O2    O     O_R   0.500000 0.316760 0.385350 -0.624827
O3    O     O_R   0.367850 0.499990 0.614680 -0.622112
O4    O     O_R   0.367840 0.499950 0.385340 -0.634141
O5    O     O_R   0.500000 0.683240 0.614650 -0.629185
O6    O     O_R   0.499990 0.683210 0.385310 -0.613260
O7    O     O_R   0.632160 0.500050 0.614660 -0.616090
O8    O     O_R   0.632150 0.500010 0.385320 -0.609148
Zn1   Zn    Zn3+2 0.500010 0.500020 0.653130 0.954056
Zn2   Zn    Zn3+2 0.499990 0.499980 0.346870 0.968461

loop_
_geom_bond_atom_site_label_1
_geom_bond_atom_site_label_2
_ccdc_geom_bond_type
C1    O1    A    
C41   C42   A    
C5    H14   S    
C19   C20   S    
C13   H1    S    
C14   C31   S    
C26   H13   S    
C30   N11   T    
C7    C8    A    
C21   C36   S    
C15   C19   A    
C26   C27   A    
C12   C28   A    
H18   N3    S    
O8    Zn2   S    
C4    O4    A    
C32   N14   T    
C38   C39   A    
C31   N13   T    
C24   C29   S    
C12   C42   A    
C18   H11   S    
C17   N1    A    
C20   C35   S    
C33   N15   T    
C8    C9    A    
C22   C25   S    
O4    Zn2   S    
C23   C27   A    
H6    N5    S    
C9    C10   A    
H10   N8    S    
H17   N12   S    
O2    Zn2   S    
C18   N9    A    
O1    Zn1   S    
C34   C38   A    
C13   C14   S    
C42   N8    S    
C1    O2    A    
C17   C33   S    
C36   N2    T    
C34   N5    S    
H2    N3    S    
C35   N16   T    
H7    N6    S    
C24   C25   A    
C4    O3    A    
C20   H12   S    
C10   C11   A    
C6    C11   A    
C28   C39   A    
C3    C5    A    
C25   C26   A    
O6    Zn2   S    
H4    N4    S    
C22   O8    A    
C8    H15   S    
C6    C14   S    
C2    C38   A    
C23   C34   A    
C16   O6    A    
C17   C18   A    
C15   N1    A    
H8    N6    S    
C9    C30   S    
C40   C41   A    
O7    Zn1   S    
C19   N9    A    
C3    C4    S    
O3    Zn1   S    
N9    Zn1   S    
C29   N10   T    
C23   N4    S    
C1    C7    S    
C14   C32   S    
C2    N6    S    
C6    C7    A    
C13   N12   S    
C12   C24   A    
H3    N4    S    
C22   O7    A    
C2    C3    A    
C10   C16   S    
C11   C13   S    
H16   N12   S    
C37   N7    T    
C16   O5    A    
H9    N8    S    
C37   C41   S    
C21   N3    S    
N1    Zn2   S    
C39   C40   A    
C15   C21   S    
C20   C21   S    
C5    C40   A    
C27   C28   A    
H5    N5    S    
O5    Zn1   S    
