data_mof_unit_67147.cif
_audit_creation_date              2013-03-05T15:58:57-0500
_audit_creation_method            fapswitch 2.2
_symmetry_space_group_name_H-M    P1
_symmetry_Int_Tables_number       1
_space_group_crystal_system       triclinic
_cell_length_a                    8.251172
_cell_length_b                    12.787488
_cell_length_c                    15.029037
_cell_angle_alpha                 96.335941
_cell_angle_beta                  97.110714
_cell_angle_gamma                 99.136744
_cell_volume                      1539.8384873

loop_
_atom_site_label
_atom_site_type_symbol
_atom_site_description
_atom_site_fract_x
_atom_site_fract_y
_atom_site_fract_z
_atom_type_partial_charge
P1    P     P_3+3 0.998730 0.403530 0.291970 0.465504
O1    O     O_2   0.827880 0.435260 0.277750 -0.377328
O2    O     O_3   0.100280 0.438960 0.391170 -0.413846
O3    O     O_3   0.625580 0.634130 0.333250 -0.379835
O4    O     O_2   0.715212 0.569316 0.179646 -0.342774
O5    O     O_3   0.953531 0.264299 0.264332 -0.538432
O6    O     O_3   0.658955 0.766918 0.205676 -0.448618
H1    H     H_    0.498116 0.803878 0.297371 -0.024696
C1    C     C_3   0.614848 0.945374 0.252333 -0.126418
H2    H     H_    0.727039 0.957713 0.303757 0.122622
P2    P     P_3+3 0.687380 0.751030 0.571310 0.521217
P3    P     P_3+3 0.104161 0.828856 0.383054 0.489279
O7    O     O_2   0.857130 0.766340 0.543890 -0.322280
O8    O     O_3   0.056550 0.691050 0.379010 -0.384372
O9    O     O_2   0.973130 0.877522 0.430903 -0.381415
O10   O     O_3   0.753704 0.778547 0.688177 -0.527966
O11   O     O_3   0.068850 0.859997 0.272468 -0.523553
C2    C     C_3   0.083188 0.771051 0.212031 0.433953
C3    C     C_3   0.079171 0.801707 0.117029 -0.764131
H3    H     H_    0.955612 0.820151 0.093714 0.335512
H4    H     H_    0.175702 0.872611 0.116037 0.259297
C4    C     C_3   0.139150 0.788825 0.755880 0.790647
H5    H     H_    0.015545 0.738731 0.747230 0.001874
C5    C     C_3   0.202009 0.822456 0.857030 -0.936948
H6    H     H_    0.337624 0.828350 0.871017 0.297373
H7    H     H_    0.172786 0.901321 0.881503 0.312599
H8    H     H_    0.142216 0.764395 0.897499 0.213271
Ba1   Ba    Ba6+2 0.843750 0.550210 0.455600 1.625291
C6    C     C_3   0.943255 0.211792 0.340782 0.362354
H9    H     H_    0.810398 0.186948 0.345510 0.079186
C7    C     C_3   0.020870 0.112521 0.326994 -0.871867
H10   H     H_    0.956884 0.059704 0.265597 0.297010
H11   H     H_    0.014637 0.069248 0.386720 0.222473
H12   H     H_    0.151293 0.134763 0.316645 0.270344
C8    C     C_3   0.663427 0.704519 0.732577 0.186870
H13   H     H_    0.664322 0.620986 0.703168 0.101502
C9    C     C_3   0.734689 0.715111 0.832387 -0.109878
H14   H     H_    0.853771 0.685991 0.842424 0.065883
H15   H     H_    0.647380 0.662767 0.864978 0.136281
P4    P     P_3+3 0.190990 0.596560 0.708040 0.463329
O12   O     O_2   0.361830 0.564780 0.722310 -0.401721
O13   O     O_3   0.089430 0.561130 0.608830 -0.353421
O14   O     O_3   0.564130 0.365960 0.666760 -0.360311
O15   O     O_3   0.251749 0.735122 0.714393 -0.592225
P5    P     P_3+3 0.086768 0.171050 0.618609 0.537522
O16   O     O_3   0.601940 0.368240 0.453770 -0.381689
O17   O     O_3   0.133170 0.309040 0.621000 -0.404208
O18   O     O_2   0.226713 0.122021 0.579263 -0.391467
O19   O     O_3   0.104045 0.147292 0.731957 -0.460238
Ba2   Ba    Ba6+2 0.346090 0.449880 0.544410 1.609650
P6    P     P_3+3 0.589240 0.633297 0.217687 0.524960
C10   C     C_3   0.540739 0.826832 0.233689 0.328936
H16   H     H_    0.432789 0.815155 0.179723 0.058542
H17   H     H_    0.523044 0.989107 0.280817 0.090170
O20   O     O_3   0.587780 0.631850 0.546230 -0.405541
C11   C     C_3   0.411629 0.293267 0.268746 0.365743
H18   H     H_    0.317788 0.325118 0.305821 0.093674
H19   H     H_    0.520693 0.357279 0.271606 0.131752
C12   C     C_3   0.334532 0.259140 0.170394 -0.809304
H20   H     H_    0.213791 0.204985 0.166420 0.262622
H21   H     H_    0.314558 0.329866 0.136798 0.212777
H22   H     H_    0.418005 0.216605 0.133592 0.330231
P7    P     P_3+3 0.505876 0.234020 0.422499 0.426045
O21   O     O_2   0.332590 0.233690 0.456160 -0.387075
O22   O     O_3   0.461423 0.204620 0.304613 -0.565916
C13   C     C_3   0.143167 0.244868 0.790119 0.451319
H23   H     H_    0.267052 0.285703 0.783229 0.138410
H24   H     H_    0.056491 0.300075 0.775006 0.114996
C14   C     C_3   0.138508 0.224959 0.887774 -0.773940
H25   H     H_    0.010242 0.191414 0.897279 0.289237
P8    P     P_3+3 0.602365 0.380543 0.785651 0.508409
C15   C     C_3   0.544347 0.168298 0.761692 0.578957
O23   O     O_2   0.479123 0.448583 0.820064 -0.379290
O24   O     O_3   0.543311 0.257582 0.825026 -0.554058
C16   C     C_3   0.467145 0.067789 0.799788 -0.134490
H26   H     H_    0.489907 0.994319 0.760162 0.156859
H27   H     H_    0.331295 0.062518 0.792179 0.154058
C17   C     C_R   0.816678 0.445970 0.835890 0.263049
C18   C     C_R   0.887393 0.451168 0.928965 -0.184137
C19   C     C_R   0.044334 0.460108 0.112079 -0.071590
C20   C     C_R   0.886215 0.402079 0.081791 -0.167726
C21   C     C_R   0.802784 0.404250 0.996134 0.396160
C22   C     C_R   0.112430 0.470332 0.204890 0.258113
H28   H     H_    0.817655 0.358420 0.126407 0.209884
C23   C     C_R   0.273204 0.527943 0.231672 -0.517625
C24   C     C_R   0.077513 0.539916 0.799099 0.145737
C25   C     C_R   0.147780 0.549130 0.891602 -0.043613
C26   C     C_R   0.056069 0.503121 0.956156 0.001864
C27   C     C_R   0.306568 0.606584 0.921557 -0.188878
C28   C     C_R   0.379765 0.620093 0.011435 0.368820
C29   C     C_R   0.297736 0.569061 0.077271 -0.143469
C30   C     C_R   0.133055 0.510905 0.048652 0.009888
C31   C     C_R   0.369266 0.574077 0.169984 0.163555
C32   C     C_R   0.914080 0.487961 0.773657 -0.463247
H29   H     H_    0.374956 0.647949 0.875749 0.164749
H30   H     H_    0.860323 0.481561 0.703431 0.180915
C33   C     C_R   0.780372 0.177332 0.518184 -0.438587
C34   C     C_R   0.412501 0.813359 0.478215 -0.384803
C35   C     C_R   0.384450 0.987972 0.438696 -0.215546
C36   C     C_R   0.316523 0.881606 0.439420 0.256807
C37   C     C_R   0.577476 0.850277 0.517806 0.250446
C38   C     C_R   0.647726 0.960087 0.518336 -0.101662
C39   C     C_R   0.548897 0.029329 0.477893 -0.062172
C40   C     C_R   0.617429 0.138351 0.477934 0.230827
C41   C     C_R   0.879087 0.110857 0.556763 0.300372
C42   C     C_R   0.812680 0.003251 0.557404 -0.085531
H31   H     H_    0.307697 0.036884 0.405704 0.175256
H32   H     H_    0.890656 0.955008 0.589643 0.229916
H33   H     H_    0.357737 0.730526 0.477685 0.167498
H34   H     H_    0.007471 0.259439 0.405116 0.116285
H35   H     H_    0.538088 0.723835 0.728610 0.170636
N1    N     N_R   0.753696 0.824753 0.875442 0.337916
O25   O     O_R   0.630113 0.875535 0.866116 -0.321362
O26   O     O_R   0.887400 0.868868 0.930160 -0.308775
N2    N     N_R   0.655140 0.987479 0.169840 0.302334
O27   O     O_R   0.772016 0.956090 0.128687 -0.261509
O28   O     O_R   0.584142 0.063734 0.141406 -0.294275
H36   H     H_    0.101331 0.734344 0.069721 0.187429
H37   H     H_    0.180386 0.301281 0.933616 0.218946
H38   H     H_    0.221520 0.168461 0.906176 0.289528
N3    N     N_R   0.712853 0.161781 0.744167 0.202140
O29   O     O_R   0.788567 0.234605 0.703179 -0.488668
O30   O     O_R   0.778459 0.077425 0.756096 -0.332787
H39   H     H_    0.467183 0.173330 0.697166 0.064579
N4    N     N_R   0.530123 0.070428 0.895700 0.332213
O31   O     O_R   0.427289 0.048543 0.952737 -0.309795
O32   O     O_R   0.688726 0.089838 0.924484 -0.218339
H40   H     H_    0.977993 0.705219 0.211448 0.173593
N5    N     N_R   0.628519 0.365810 0.985215 0.259778
O33   O     O_R   0.530778 0.435271 0.992216 -0.385503
O34   O     O_R   0.577570 0.271460 0.006242 -0.346176
N6    N     N_R   0.534354 0.691740 0.032414 0.234058
O35   O     O_R   0.534438 0.791970 0.024626 -0.337985
O36   O     O_R   0.670907 0.654576 0.026030 -0.371411
H41   H     H_    0.326958 0.533527 0.301777 0.173437
H42   H     H_    0.830801 0.261227 0.520492 0.165512
H43   H     H_    0.200623 0.741980 0.230972 -0.032457
N7    N     N_R   0.119413 0.883412 0.712881 0.224856
O37   O     O_R   0.018566 0.943739 0.741124 -0.327571
O38   O     O_R   0.194396 0.905394 0.644206 -0.411188

loop_
_geom_bond_atom_site_label_1
_geom_bond_atom_site_label_2
_geom_bond_distance
_ccdc_geom_bond_type
C13   H24   1.103156 S    
C25   C26   1.423505 A    
P7    O22   1.750199 S    
C27   H29   1.074205 S    
C37   C38   1.430281 A    
C15   N3    1.460154 S    
Ba2   O21   2.910407 S    
C35   C39   1.404734 A    
C3    H3    1.106323 S    
C5    H8    1.105527 S    
N1    O26   1.298824 A    
C20   C21   1.387970 A    
P2    O20   1.593372 S    
Ba1   O16   2.809648 S    
C9    H14   1.103969 S    
O2    Ba1   2.932823 S    
C3    H4    1.110528 S    
C5    H7    1.108051 S    
O6    C10   1.408358 S    
C2    C3    1.519638 S    
C19   C22   1.421556 A    
O10   C8    1.390961 S    
C13   C14   1.521075 S    
C11   O22   1.404396 S    
C11   H18   1.110301 S    
P1    O1    1.524401 D    
P4    C24   1.896011 S    
C18   C26   1.432138 A    
C9    N1    1.453909 S    
C24   C32   1.392060 A    
P8    O24   1.758797 S    
C2    H40   1.107510 S    
C23   C31   1.410666 A    
O2    Ba2   2.849534 S    
C4    O15   1.405371 S    
C26   C30   1.441060 A    
C3    H36   1.108147 S    
N6    O35   1.299728 A    
N2    O28   1.299247 A    
P3    O11   1.751776 S    
P1    Ba1   3.423923 S    
C7    H11   1.107508 S    
O7    Ba1   2.910097 S    
C1    H2    1.108472 S    
H1    C10   1.112832 S    
C28   N6    1.425250 S    
P4    O13   1.597390 S    
C13   H23   1.094025 S    
C12   H20   1.110265 S    
C34   H33   1.082335 S    
C15   H39   1.106286 S    
C38   C39   1.429614 A    
C1    C10   1.523067 S    
Ba1   Ba2   4.511186 S    
C15   C16   1.542138 S    
N1    O25   1.294659 A    
O3    Ba1   2.828939 S    
Ba1   O20   2.916252 S    
P5    C41   1.849792 S    
O17   Ba2   2.758331 S    
P5    O17   1.740564 S    
C12   H21   1.107968 S    
P3    C36   1.836844 S    
O19   C13   1.409490 S    
O3    P6    1.724083 S    
P1    O5    1.751864 S    
C1    N2    1.459457 S    
C6    H34   1.107907 S    
C5    H6    1.101581 S    
C15   O24   1.405304 S    
C29   C30   1.431154 A    
P8    O23   1.539627 D    
C17   C18   1.437598 A    
C19   C20   1.389589 A    
C14   H37   1.110014 S    
P1    O2    1.597234 S    
C8    H13   1.111551 S    
C19   C30   1.423004 A    
C2    H43   1.107975 S    
C16   H26   1.110329 S    
C6    H9    1.105155 S    
C29   C31   1.434789 A    
P2    O10   1.752919 S    
C7    H10   1.102242 S    
P3    O9    1.542959 D    
P5    O19   1.755677 S    
C6    C7    1.515759 S    
O11   C2    1.404996 S    
C7    H12   1.103254 S    
P2    C37   1.868111 S    
C21   N5    1.426669 S    
C32   H30   1.082069 S    
C16   H27   1.103017 S    
N3    O29   1.293862 A    
N7    O38   1.301529 A    
O13   Ba2   2.933668 S    
P4    O12   1.524639 D    
C22   C23   1.398760 A    
C23   H41   1.081461 S    
C34   C36   1.395059 A    
C25   C27   1.390794 A    
N4    O31   1.300275 A    
C4    C5    1.534472 S    
O12   Ba2   2.882798 S    
C20   H28   1.075897 S    
C8    H35   1.096912 S    
C10   H16   1.107098 S    
N5    O33   1.295503 A    
P5    O18   1.547011 D    
C4    N7    1.454679 S    
C12   H22   1.105899 S    
O14   P8    1.759325 S    
C8    C9    1.525031 S    
C24   C25   1.423157 A    
P3    O8    1.736072 S    
P7    C40   1.852204 S    
C18   C21   1.428822 A    
C11   C12   1.522070 S    
O14   Ba2   2.828279 S    
P1    C22   1.902315 S    
C34   C37   1.401163 A    
C35   H31   1.074551 S    
C41   C42   1.399468 A    
O16   Ba2   2.915500 S    
C14   H38   1.105423 S    
Ba2   O20   2.809103 S    
P6    C31   1.871722 S    
C35   C36   1.388140 A    
O16   P7    1.758589 S    
O8    Ba1   2.757753 S    
C33   C41   1.390664 A    
C9    H15   1.101584 S    
P2    O7    1.497850 D    
C28   C29   1.425139 A    
C42   H32   1.069647 S    
P2    Ba1   3.450433 S    
C17   C32   1.403180 A    
P4    Ba2   3.424467 S    
Ba1   O13   2.848779 S    
C11   H19   1.109248 S    
C38   C42   1.412071 A    
C14   H25   1.109626 S    
N3    O30   1.301106 A    
C33   C40   1.393291 A    
N7    O37   1.298737 A    
O6    P6    1.750626 S    
P7    O21   1.574145 D    
P4    O15   1.751750 S    
O5    C6    1.398007 S    
N6    O36   1.300503 A    
C39   C40   1.418692 A    
N4    O32   1.301657 A    
C4    H5    1.099418 S    
O4    P6    1.546154 D    
O1    Ba1   2.882240 S    
C1    H17   1.109853 S    
C33   H42   1.082444 S    
C16   N4    1.465346 S    
C27   C28   1.390187 A    
P8    C17   1.859364 S    
N2    O27   1.299785 A    
N5    O34   1.299294 A    
