data_mof_unit_45327.cif
_audit_creation_date              2012-12-10T18:46:15-0500
_audit_creation_method            fapswitch 2.2
_symmetry_space_group_name_H-M    P1
_symmetry_Int_Tables_number       1
_space_group_crystal_system       triclinic
_cell_length_a                    9.862923
_cell_length_b                    10.672172
_cell_length_c                    12.99587
_cell_angle_alpha                 90.118878
_cell_angle_beta                  72.292954
_cell_angle_gamma                 89.660217
_cell_volume                      1303.08917819

loop_
_atom_site_label
_atom_site_type_symbol
_atom_type_description
_atom_site_fract_x
_atom_site_fract_y
_atom_site_fract_z
_atom_type_partial_charge
C1    C     C_R   0.499401 0.739779 0.500545 0.879554
C2    C     C_R   0.384834 0.575139 0.811430 -0.146693
C3    C     C_R   0.573983 0.933061 0.562275 -0.231590
C4    C     C_R   0.424565 0.521689 0.701315 0.877451
C5    C     C_R   0.576677 0.062255 0.562868 0.212160
C6    C     C_R   0.499439 0.127247 0.504695 -0.074011
C7    C     C_R   0.420079 0.064768 0.448131 -0.234499
C8    C     C_R   0.418983 0.936391 0.447501 -0.147788
C9    C     C_R   0.497384 0.871798 0.503376 -0.056969
C10   C     C_R   0.945192 0.400619 0.459062 -0.077440
C11   C     C_R   0.088769 0.400477 0.459280 -0.041484
C12   C     C_R   0.449352 0.612025 0.974876 -0.017094
C13   C     C_R   0.055591 0.600331 0.539197 -0.018516
C14   C     C_R   0.912469 0.600772 0.538173 -0.056717
C15   C     C_R   0.499622 0.260009 0.502066 0.895162
C16   C     C_R   0.577084 0.499153 0.295835 0.905473
C17   C     C_R   0.803077 0.514625 0.004782 0.215760
C18   C     C_R   0.621281 0.511444 0.179084 -0.132632
C19   C     C_R   0.242043 0.597491 0.868272 -0.245271
C20   C     C_R   0.203590 0.638484 0.975188 -0.199315
C21   C     C_R   0.305129 0.646099 0.030541 0.353134
C22   C     C_3   0.801624 0.107349 0.593438 -0.737423
C23   C     C_R   0.489349 0.604019 0.861787 0.051698
C24   C     C_3   0.009856 0.370768 0.976338 -0.780178
C25   C     C_R   0.555381 0.578499 0.023556 0.075893
C26   C     C_R   0.700928 0.566873 0.959754 0.093894
C27   C     C_R   0.738528 0.605719 0.852149 -0.250595
C28   C     C_R   0.633002 0.624848 0.803827 -0.148765
C29   C     C_R   0.517962 0.539662 0.129996 -0.171901
C30   C     C_R   0.763500 0.498681 0.117175 -0.212310
H1    H     H_    0.841018 0.470944 0.156458 0.165167
H2    H     H_    0.161249 0.588417 0.828272 0.190986
H3    H     H_    0.093666 0.664023 0.015167 0.194267
H4    H     H_    0.664352 0.655298 0.721036 0.157004
H5    H     H_    0.630087 0.880575 0.608268 0.141613
H6    H     H_    0.602981 0.112980 0.708229 0.223738
H7    H     H_    0.827833 0.011459 0.614978 0.220658
H8    H     H_    0.850427 0.176359 0.635339 0.237959
H9    H     H_    0.847707 0.120591 0.504921 0.244847
H10   H     H_    0.945689 0.457078 0.857185 0.223836
H11   H     H_    0.105531 0.339186 0.910855 0.246276
H12   H     H_    0.361050 0.115251 0.403148 0.167758
H13   H     H_    0.937461 0.289628 0.002129 0.251913
H14   H     H_    0.047107 0.404121 0.043959 0.241067
H15   H     H_    0.085801 0.594559 0.234248 0.341034
H16   H     H_    0.359493 0.887637 0.402132 0.207626
H17   H     H_    0.905168 0.321833 0.425051 0.134165
H18   H     H_    0.156541 0.320898 0.426270 0.126498
H19   H     H_    0.096538 0.680716 0.570674 0.120925
H20   H     H_    0.847027 0.682681 0.566901 0.111718
H21   H     H_    0.848278 0.617335 0.803705 0.133562
H22   H     H_    0.407544 0.530155 0.175515 0.221299
N1    N     N_R   0.142790 0.500030 0.500030 -0.069641
N2    N     N_R   0.857180 0.499940 0.500010 -0.078755
N3    N     N_2   0.649029 0.126584 0.626497 -0.291838
N4    N     N_2   0.939016 0.471085 0.937002 -0.328011
O1    O     O_R   0.385370 0.683250 0.500010 -0.616717
O2    O     O_2   0.149261 0.830171 0.152760 -0.292227
O3    O     O_3   0.167464 0.626605 0.255592 -0.559590
O4    O     O_R   0.614700 0.683220 0.500010 -0.631018
O5    O     O_R   0.328400 0.499990 0.653620 -0.622252
O6    O     O_R   0.557730 0.499960 0.653620 -0.612683
O7    O     O_R   0.385300 0.316780 0.499990 -0.636502
O8    O     O_R   0.614630 0.316750 0.499990 -0.591685
O9    O     O_R   0.442270 0.500040 0.346380 -0.583826
O10   O     O_R   0.671600 0.500010 0.346380 -0.616260
O11   O     O_2   0.376836 0.781981 0.182105 -0.283054
S1    S     S_3+6 0.251016 0.726181 0.156778 -0.003576
Zn1   Zn    Zn3+2 0.346870 0.500020 0.500000 0.975770
Zn2   Zn    Zn3+2 0.653130 0.499980 0.500000 0.958962

loop_
_geom_bond_atom_site_label_1
_geom_bond_atom_site_label_2
_ccdc_geom_bond_type
C8    C9    A    
C2    C4    S    
C15   O8    A    
C22   N3    S    
C3    C9    A    
C3    H5    S    
O3    S1    S    
C24   N4    S    
N2    Zn2   S    
C19   C20   A    
C11   N1    A    
O4    Zn2   S    
C12   C25   A    
C3    C5    A    
C27   C28   A    
N1    Zn1   S    
C12   C21   A    
C6    C15   S    
C28   H4    S    
C7    C8    A    
H6    N3    S    
O10   Zn2   S    
C23   C28   A    
C25   C29   A    
C24   H11   S    
C17   N4    S    
C11   H18   S    
C6    C7    A    
C17   C30   A    
O9    Zn1   S    
C17   C26   A    
C4    O5    A    
O2    S1    D    
C14   N2    A    
C27   H21   S    
C13   N1    A    
C21   S1    S    
C26   C27   A    
C5    C6    A    
C24   H14   S    
O8    Zn2   S    
C13   H19   S    
C7    H12   S    
C16   O10   A    
C10   C11   A    
C14   H20   S    
C10   N2    A    
O11   S1    D    
C22   H8    S    
C18   C30   A    
C4    O6    A    
C10   H17   S    
C1    C9    S    
C20   C21   A    
O6    Zn2   S    
C20   H3    S    
C1    O4    A    
O5    Zn1   S    
C2    C23   A    
C18   C29   A    
C24   H13   S    
C15   O7    A    
C30   H1    S    
H15   O3    S    
C12   C23   A    
C16   O9    A    
C8    H16   S    
O1    Zn1   S    
C25   C26   A    
C2    C19   A    
C22   H7    S    
C22   H9    S    
C19   H2    S    
C5    N3    S    
C16   C18   S    
O7    Zn1   S    
C13   C14   A    
H10   N4    S    
C29   H22   S    
C1    O1    A    
