data_mof_unit_42802.cif
_audit_creation_date              2012-12-11T14:08:43-0500
_audit_creation_method            fapswitch 2.2
_symmetry_space_group_name_H-M    P1
_symmetry_Int_Tables_number       1
_space_group_crystal_system       triclinic
_cell_length_a                    27.975192
_cell_length_b                    7.191167
_cell_length_c                    17.192959
_cell_angle_alpha                 89.77957
_cell_angle_beta                  102.474447
_cell_angle_gamma                 89.900979
_cell_volume                      3377.09112435

loop_
_atom_site_label
_atom_site_type_symbol
_atom_type_description
_atom_site_fract_x
_atom_site_fract_y
_atom_site_fract_z
_atom_type_partial_charge
O1    O     O_R   0.000700 0.436510 0.857920 -0.535617
O2    O     O_R   0.999300 0.563490 0.142080 -0.532369
O3    O     O_R   0.999300 0.936510 0.642080 -0.531923
O4    O     O_R   0.000700 0.063490 0.357920 -0.532163
O5    O     O_R   0.930080 0.766380 0.721890 -0.540146
O6    O     O_R   0.069920 0.233620 0.278110 -0.536540
O7    O     O_R   0.069920 0.266380 0.778110 -0.538027
O8    O     O_R   0.930080 0.733620 0.221890 -0.533955
C1    C     C_R   0.910385 0.598619 0.705774 0.713286
C2    C     C_R   0.089511 0.402270 0.292311 0.694025
C3    C     C_R   0.089279 0.097432 0.791470 0.706777
C4    C     C_R   0.910679 0.902593 0.209420 0.704160
O9    O     O_R   0.996180 0.766230 0.862310 -0.542353
O10   O     O_R   0.003820 0.233770 0.137690 -0.545380
O11   O     O_R   0.003820 0.266230 0.637690 -0.543658
O12   O     O_R   0.996180 0.733770 0.362310 -0.546453
O13   O     O_R   0.065870 0.936460 0.783500 -0.529214
O14   O     O_R   0.934130 0.063540 0.216500 -0.533340
O15   O     O_R   0.934130 0.436460 0.716500 -0.537388
O16   O     O_R   0.065870 0.563540 0.283500 -0.537601
C5    C     C_R   0.998514 0.596283 0.894466 0.761355
C6    C     C_R   0.001592 0.403735 0.105576 0.764286
C7    C     C_R   0.001642 0.096569 0.605511 0.760488
C8    C     C_R   0.998694 0.903368 0.394599 0.755526
O17   O     O_3   0.022790 0.603020 0.723980 -0.373190
O18   O     O_3   0.977210 0.396980 0.276020 -0.373862
O19   O     O_3   0.977210 0.103020 0.776020 -0.380725
O20   O     O_3   0.022790 0.896980 0.223980 -0.377080
V1    V     V_3+5 0.995770 0.877900 0.754830 1.391119
V2    V     V_3+5 0.004230 0.122100 0.245170 1.392666
V3    V     V_3+5 0.004230 0.377900 0.745170 1.391139
V4    V     V_3+5 0.995770 0.622100 0.254830 1.395304
C9    C     C_2   0.001963 0.082728 0.519563 -0.347156
C10   C     C_2   0.998960 0.917127 0.480724 -0.344796
C11   C     C_2   0.998249 0.582569 0.980317 -0.342627
C12   C     C_2   0.002000 0.417475 0.019786 -0.350515
H1    H     H_    0.004284 0.211759 0.487560 0.154373
H2    H     H_    0.996720 0.788076 0.512741 0.153422
H3    H     H_    0.995037 0.711361 0.011629 0.152398
H4    H     H_    0.005245 0.288685 0.988492 0.152157
C13   C     C_R   0.680632 0.845600 0.031712 0.620980
C14   C     C_R   0.309809 0.922944 0.978821 0.589500
C15   C     C_R   0.313411 0.370827 0.420339 0.560118
C16   C     C_R   0.687171 0.403258 0.507093 0.553565
O21   O     O_2   0.707595 0.758184 0.986916 -0.528713
O22   O     O_2   0.277617 0.914354 0.026553 -0.517700
O23   O     O_2   0.281279 0.357557 0.468247 -0.518059
O24   O     O_2   0.720711 0.338356 0.468189 -0.526440
N1    N     N_R   0.702178 0.903835 0.107508 -0.543438
N2    N     N_R   0.292564 0.946708 0.897898 -0.534458
N3    N     N_R   0.295941 0.402330 0.339818 -0.540983
N4    N     N_R   0.702988 0.480092 0.581058 -0.548133
C17   C     C_R   0.673693 0.888868 0.163588 0.558992
C18   C     C_R   0.319420 0.861142 0.850093 0.538743
C19   C     C_R   0.327461 0.372448 0.289499 0.590962
C20   C     C_R   0.670302 0.522634 0.627229 0.564048
C21   C     C_R   0.778758 0.025314 0.204417 0.137497
C22   C     C_R   0.222041 0.044064 0.783232 0.136911
C23   C     C_R   0.212926 0.382429 0.244642 0.118557
C24   C     C_R   0.782296 0.400444 0.671831 0.133668
C25   C     C_R   0.829244 0.991501 0.231450 -0.238890
C26   C     C_R   0.170688 0.045908 0.761969 -0.240441
C27   C     C_R   0.166371 0.326530 0.252757 -0.226702
C28   C     C_R   0.832225 0.434204 0.700213 -0.258590
C29   C     C_R   0.834984 0.891699 0.099238 0.048769
C30   C     C_R   0.167612 0.146621 0.895355 0.071639
C31   C     C_R   0.171257 0.545926 0.361896 0.101214
C32   C     C_R   0.828312 0.711036 0.616818 0.073757
C33   C     C_R   0.785432 0.947533 0.072253 0.175671
C34   C     C_R   0.219940 0.145289 0.914607 0.165836
C35   C     C_R   0.221387 0.579059 0.359121 0.166025
C36   C     C_R   0.778203 0.668397 0.581729 0.097822
C37   C     C_R   0.754899 0.954332 0.128725 0.242889
C38   C     C_R   0.244928 0.039341 0.865611 0.248220
C39   C     C_R   0.244363 0.461347 0.311657 0.256642
C40   C     C_R   0.754843 0.515647 0.611379 0.306986
C41   C     C_R   0.599428 0.872304 0.058990 -0.065677
C42   C     C_R   0.391837 0.869798 0.957215 -0.060421
C43   C     C_R   0.397300 0.362905 0.401667 -0.065474
C44   C     C_R   0.602599 0.424924 0.521179 -0.061073
C45   C     C_R   0.629322 0.857551 0.003015 -0.057566
C46   C     C_R   0.360883 0.896287 0.011175 -0.070087
C47   C     C_R   0.364561 0.355136 0.453637 -0.056792
C48   C     C_R   0.636305 0.391391 0.472143 -0.048026
C49   C     C_R   0.606958 0.848852 0.920946 -0.010643
C50   C     C_R   0.382540 0.899911 0.093933 -0.004890
C51   C     C_R   0.384571 0.339773 0.536839 0.008125
C52   C     C_R   0.617782 0.344438 0.391084 -0.011016
C53   C     C_R   0.622004 0.883064 0.140286 -0.022227
C54   C     C_R   0.370232 0.839790 0.876478 -0.017025
C55   C     C_R   0.378362 0.361229 0.319163 -0.020581
C56   C     C_R   0.620131 0.485559 0.600053 -0.023479
C57   C     C_R   0.857060 0.914630 0.180800 -0.118471
C58   C     C_R   0.143084 0.088002 0.818369 -0.115766
C59   C     C_R   0.143816 0.415171 0.307799 -0.123828
C60   C     C_R   0.856007 0.586572 0.674650 -0.123090
C61   C     C_R   0.473523 0.829012 0.927938 0.046884
C62   C     C_R   0.517662 0.878110 0.091813 0.045765
C63   C     C_R   0.518463 0.419870 0.543531 0.048043
C64   C     C_R   0.481511 0.356110 0.378914 0.047566
C65   C     C_R   0.465386 0.881187 0.065974 0.033536
C66   C     C_R   0.525392 0.840886 0.952654 0.039261
C67   C     C_R   0.533153 0.357704 0.410161 0.034722
C68   C     C_R   0.467610 0.386156 0.514556 0.035004
C69   C     C_R   0.443765 0.860609 0.983921 0.061766
C70   C     C_R   0.547306 0.864881 0.034364 0.064809
C71   C     C_R   0.551303 0.400361 0.491511 0.060644
C72   C     C_R   0.448957 0.367584 0.431806 0.066137
C73   C     C_R   0.450123 0.783555 0.848815 -0.182000
C74   C     C_R   0.541748 0.887506 0.173197 -0.190952
C75   C     C_R   0.537472 0.477735 0.622548 -0.180370
C76   C     C_R   0.461035 0.347950 0.296288 -0.195628
C77   C     C_R   0.399494 0.788518 0.823807 -0.145238
C78   C     C_R   0.592678 0.887256 0.196704 -0.141182
C79   C     C_R   0.587190 0.511591 0.649794 -0.137319
C80   C     C_R   0.410629 0.351760 0.267238 -0.152279
O25   O     O_2   0.297328 0.786935 0.779704 -0.549618
O26   O     O_2   0.694678 0.867358 0.241341 -0.529422
O27   O     O_2   0.686300 0.600846 0.699325 -0.532743
O28   O     O_2   0.310681 0.348472 0.211086 -0.549862
C81   C     C_R   0.556058 0.837265 0.897360 -0.251064
C82   C     C_R   0.433704 0.899916 0.119472 -0.248447
C83   C     C_R   0.434897 0.365129 0.565915 -0.251564
C84   C     C_R   0.567313 0.323564 0.362257 -0.249821
H5    H     H_    0.152352 0.031788 0.699918 0.125672
H6    H     H_    0.847514 0.035223 0.290687 0.131511
H7    H     H_    0.853019 0.339176 0.743910 0.147725
H8    H     H_    0.143782 0.248893 0.204611 0.136161
H9    H     H_    0.383447 0.757592 0.762051 0.163976
H10   H     H_    0.609012 0.893915 0.259796 0.162540
H11   H     H_    0.599786 0.556613 0.710700 0.149259
H12   H     H_    0.397086 0.350622 0.203237 0.168503
H13   H     H_    0.469908 0.740492 0.804668 0.117863
H14   H     H_    0.522481 0.893522 0.220945 0.124974
H15   H     H_    0.514305 0.505881 0.663849 0.116736
H16   H     H_    0.482969 0.346820 0.251923 0.129376
H17   H     H_    0.541070 0.837594 0.834077 0.105411
H18   H     H_    0.447678 0.911485 0.182727 0.112821
H19   H     H_    0.448364 0.355079 0.629614 0.110945
H20   H     H_    0.555594 0.282400 0.300842 0.111467
C85   C     C_3   0.863666 0.815600 0.040201 -0.365492
C86   C     C_3   0.841726 0.632589 0.004367 -0.716592
H21   H     H_    0.841262 0.528902 0.052293 0.226052
H22   H     H_    0.803817 0.654383 0.969486 0.255920
H23   H     H_    0.864198 0.576339 0.963878 0.204653
H24   H     H_    0.864373 0.916428 0.991577 0.164608
H25   H     H_    0.902559 0.788369 0.068388 0.179489
C87   C     C_3   0.138518 0.200170 0.957352 -0.370892
C88   C     C_3   0.147340 0.061527 0.026472 -0.734181
H26   H     H_    0.135133 0.920849 0.004267 0.228399
H27   H     H_    0.186664 0.055315 0.056212 0.258074
H28   H     H_    0.125956 0.103884 0.070871 0.203859
H29   H     H_    0.147235 0.342811 0.979370 0.176315
H30   H     H_    0.098528 0.202512 0.932536 0.176546
C89   C     C_3   0.148563 0.637752 0.425234 -0.368468
C90   C     C_3   0.173101 0.570665 0.508867 -0.724503
H31   H     H_    0.169572 0.417260 0.512733 0.235656
H32   H     H_    0.212458 0.607541 0.524416 0.252458
H33   H     H_    0.154850 0.635696 0.553303 0.209242
H34   H     H_    0.150098 0.791476 0.420779 0.174829
H35   H     H_    0.109319 0.603801 0.418206 0.181563
C91   C     C_3   0.851710 0.886293 0.591629 -0.347608
C92   C     C_3   0.882338 0.843395 0.530362 -0.728885
H36   H     H_    0.913326 0.749814 0.556088 0.221386
H37   H     H_    0.859539 0.775841 0.477130 0.218262
H38   H     H_    0.897172 0.974852 0.511254 0.213156
H39   H     H_    0.824126 0.993503 0.566855 0.182975
H40   H     H_    0.873758 0.959647 0.643497 0.195282
C93   C     C_3   0.773398 0.067287 0.996581 -0.346848
C94   C     C_3   0.740531 0.235733 0.002012 -0.665817
H41   H     H_    0.756384 0.320138 0.055185 0.212290
H42   H     H_    0.702923 0.193531 0.004827 0.239897
H43   H     H_    0.737947 0.325233 0.948566 0.236465
H44   H     H_    0.807576 0.128931 0.985117 0.152398
H45   H     H_    0.758215 0.982449 0.943598 0.255713
C95   C     C_3   0.247891 0.291988 0.971217 -0.351021
C96   C     C_3   0.284701 0.400455 0.934600 -0.721813
H46   H     H_    0.265984 0.465858 0.877490 0.239154
H47   H     H_    0.314586 0.308796 0.924087 0.220273
H48   H     H_    0.301480 0.511876 0.976119 0.244942
H49   H     H_    0.266963 0.233094 0.028992 0.234979
H50   H     H_    0.222671 0.398336 0.985618 0.187721
C97   C     C_3   0.249842 0.746570 0.399287 -0.355136
C98   C     C_3   0.263877 0.876957 0.337479 -0.714338
H51   H     H_    0.230603 0.924557 0.294209 0.230045
H52   H     H_    0.288908 0.806043 0.304972 0.247807
H53   H     H_    0.283050 0.000327 0.367762 0.240562
H54   H     H_    0.228708 0.830382 0.433891 0.203443
H55   H     H_    0.283568 0.703619 0.442092 0.210072
C99   C     C_3   0.749928 0.778028 0.509903 -0.321007
C100  C     C_3   0.716399 0.924535 0.533451 -0.721525
H56   H     H_    0.738678 0.040621 0.563564 0.230509
H57   H     H_    0.693995 0.866365 0.573516 0.236771
H58   H     H_    0.691322 0.979476 0.479157 0.239115
H59   H     H_    0.727860 0.685498 0.465208 0.238011
H60   H     H_    0.774347 0.844667 0.475267 0.191972
C101  C     C_2   0.634057 0.870969 0.856286 0.473374
H61   H     H_    0.620854 0.803446 0.799516 0.039484
O29   O     O_2   0.668921 0.975774 0.863387 -0.531988
C102  C     C_2   0.354332 0.902086 0.157506 0.475536
H62   H     H_    0.362878 0.003665 0.204889 0.038856
O30   O     O_2   0.324544 0.780564 0.161453 -0.509023
C103  C     C_2   0.355752 0.290113 0.596649 0.455293
H63   H     H_    0.361468 0.364940 0.652613 0.018956
O31   O     O_2   0.328457 0.155919 0.586703 -0.511676
C104  C     C_2   0.648341 0.334717 0.330886 0.470852
H64   H     H_    0.642380 0.224683 0.286896 0.017115
O32   O     O_2   0.677479 0.457900 0.325825 -0.505804
C105  C     C_3   0.249439 0.102361 0.719741 -0.262136
C106  C     C_3   0.232239 0.292434 0.683769 -0.748370
H65   H     H_    0.193489 0.286890 0.650988 0.216648
H66   H     H_    0.236011 0.398892 0.731321 0.240093
H67   H     H_    0.254863 0.335405 0.641176 0.266478
H68   H     H_    0.289194 0.117613 0.745080 0.205295
H69   H     H_    0.243990 0.997018 0.671508 0.225177
C107  C     C_3   0.755064 0.170078 0.248224 -0.273701
C108  C     C_3   0.781792 0.356990 0.253386 -0.713706
H70   H     H_    0.818995 0.346044 0.292053 0.214297
H71   H     H_    0.784824 0.405149 0.193221 0.217348
H72   H     H_    0.761208 0.463398 0.279447 0.280165
H73   H     H_    0.716791 0.198210 0.216566 0.195925
H74   H     H_    0.755062 0.120037 0.309473 0.226195
C109  C     C_3   0.760277 0.233365 0.705001 -0.338886
C110  C     C_3   0.760519 0.256616 0.793261 -0.684354
H75   H     H_    0.798510 0.263337 0.829347 0.196832
H76   H     H_    0.740556 0.384654 0.803244 0.269234
H77   H     H_    0.742173 0.135281 0.813809 0.256168
H78   H     H_    0.722073 0.207006 0.673024 0.196508
H79   H     H_    0.781880 0.107256 0.697579 0.171744
C111  C     C_3   0.215817 0.450503 0.161795 -0.274650
C112  C     C_3   0.171428 0.566971 0.120583 -0.813748
H80   H     H_    0.137781 0.481185 0.105627 0.222907
H81   H     H_    0.165377 0.683707 0.159559 0.242128
H82   H     H_    0.178344 0.626154 0.064302 0.234481
H83   H     H_    0.247092 0.546723 0.165046 0.269211
H84   H     H_    0.220214 0.329510 0.124398 0.198577

loop_
_geom_bond_atom_site_label_1
_geom_bond_atom_site_label_2
_ccdc_geom_bond_type
O17   V3    S    
C35   C39   A    
C103  H63   S    
C36   C99   S    
O1    C5    A    
C99   C100  S    
C62   C74   A    
C27   C59   A    
O19   V1    S    
C15   C47   A    
C93   C94   S    
O3    C7    A    
C109  C110  S    
C14   C46   A    
C76   C80   A    
C52   C84   A    
O15   V3    S    
C110  H75   S    
C34   C38   A    
C68   C83   A    
C79   H11   S    
C89   H35   S    
C108  H72   S    
C95   H50   S    
C103  O31   D    
C44   C71   A    
C41   C53   A    
C32   C60   A    
C77   H9    S    
C110  H77   S    
C42   C69   A    
C99   H59   S    
O9    V1    S    
C41   C70   A    
C92   H37   S    
O10   V2    S    
C18   C54   A    
N2    C38   S    
O4    C8    A    
C25   C57   A    
C94   H41   S    
C21   C37   A    
C83   H19   S    
O1    V3    S    
O13   V1    S    
C98   H51   S    
O2    V4    S    
C14   O22   S    
C54   C77   A    
C81   H17   S    
O3    V1    S    
C107  H73   S    
C19   C55   A    
C1    O15   A    
C92   H36   S    
C2    O16   A    
C102  H62   S    
C96   H47   S    
O2    C6    A    
C97   H54   S    
C93   H44   S    
C33   C37   A    
C25   H6    S    
O14   V2    S    
C66   C81   A    
C15   O23   S    
C74   C78   A    
C43   C55   A    
C61   C66   A    
C73   C77   A    
C30   C58   A    
C61   C69   A    
C16   N4    A    
O11   C7    A    
C63   C68   A    
C23   C111  S    
C63   C75   A    
O12   C8    A    
C10   H2    S    
C31   C59   A    
C78   H10   S    
C86   H23   S    
C111  C112  S    
C87   H30   S    
C76   H16   S    
C67   C84   A    
C97   H55   S    
C51   C103  S    
C45   C49   A    
O7    C3    A    
C27   H8    S    
O5    V1    S    
C19   O28   S    
C65   C69   A    
C95   H49   S    
C64   C72   A    
O7    V3    S    
C73   H13   S    
C44   C48   A    
O8    V4    S    
C35   C97   S    
C12   H4    S    
C92   H38   S    
C107  C108  S    
C28   C60   A    
C105  C106  S    
C55   C80   A    
C88   H28   S    
C107  H74   S    
C104  H64   S    
N3    C19   A    
C7    C9    S    
C108  H70   S    
C46   C50   A    
O11   V3    S    
C24   C40   A    
C64   C67   A    
C8    C10   S    
C100  H56   S    
C32   C36   A    
C11   C12   D    
C90   H31   S    
C44   C56   A    
C11   H3    S    
C97   C98   S    
C100  H57   S    
C106  H67   S    
O5    C1    A    
C109  H79   S    
C105  H68   S    
C61   C73   A    
C42   C46   A    
C80   H12   S    
C21   C107  S    
C41   C45   A    
O8    C4    A    
C96   H48   S    
C13   C45   A    
C50   C82   A    
C9    C10   D    
C93   H45   S    
O9    C5    A    
C111  H83   S    
C112  H81   S    
C33   C93   S    
C87   C88   S    
C101  O29   D    
C111  H84   S    
C1    C60   S    
C82   H18   S    
C22   C26   A    
C14   N2    A    
C89   C90   S    
C91   H40   S    
C85   H24   S    
C3    C58   S    
C49   C101  S    
C95   C96   S    
O6    V2    S    
C64   C76   A    
C106  H66   S    
C26   C58   A    
C17   C53   A    
C20   O27   S    
N1    C37   S    
C4    C57   S    
C74   H14   S    
O12   V4    S    
C87   H29   S    
C62   C65   A    
C24   C109  S    
C23   C39   A    
C68   C72   A    
C86   H22   S    
C63   C71   A    
C22   C38   A    
C91   C92   S    
O16   V4    S    
C22   C105  S    
C53   C78   A    
C3    O13   A    
C89   H34   S    
C17   O26   S    
C30   C87   S    
C96   H46   S    
C84   H20   S    
C90   H33   S    
C48   C52   A    
C52   C104  S    
N4    C40   S    
C110  H76   S    
C47   C51   A    
O6    C2    A    
C26   H5    S    
C75   C79   A    
C21   C25   A    
C5    C11   S    
C31   C89   S    
C32   C91   S    
C108  H71   S    
C13   N1    A    
C6    C12   S    
C23   C27   A    
C65   C82   A    
C105  H69   S    
C98   H53   S    
C16   C48   A    
N3    C39   S    
C24   C28   A    
C49   C81   A    
O10   C6    A    
C88   H27   S    
C100  H58   S    
O20   V2    S    
N2    C18   A    
C85   C86   S    
C29   C85   S    
C28   H7    S    
C51   C83   A    
C99   H60   S    
C109  H78   S    
C15   N3    A    
C30   C34   A    
C62   C70   A    
C2    C59   S    
C42   C54   A    
C36   C40   A    
C29   C33   A    
C90   H32   S    
C29   C57   A    
C98   H52   S    
C43   C72   A    
C66   C70   A    
C112  H82   S    
C31   C35   A    
C101  H61   S    
C75   H15   S    
C56   C79   A    
C9    H1    S    
N1    C17   A    
C85   H25   S    
C91   H39   S    
C43   C47   A    
N4    C20   A    
C20   C56   A    
C102  O30   D    
C106  H65   S    
C18   O25   S    
C4    O14   A    
C112  H80   S    
C13   O21   S    
C86   H21   S    
C67   C71   A    
C94   H42   S    
C88   H26   S    
C104  O32   D    
C34   C95   S    
O18   V4    S    
O4    V2    S    
C16   O24   S    
C50   C102  S    
C94   H43   S    
