data_mof_unit_8019.cif
_audit_creation_date              2012-12-10T17:35:03-0500
_audit_creation_method            fapswitch 2.2
_symmetry_space_group_name_H-M    P1
_symmetry_Int_Tables_number       1
_space_group_crystal_system       triclinic
_cell_length_a                    12.462962
_cell_length_b                    13.233323
_cell_length_c                    13.812117
_cell_angle_alpha                 109.214063
_cell_angle_beta                  73.983847
_cell_angle_gamma                 117.568318
_cell_volume                      1885.95231402

loop_
_atom_site_label
_atom_site_type_symbol
_atom_type_description
_atom_site_fract_x
_atom_site_fract_y
_atom_site_fract_z
_atom_type_partial_charge
C1    C     C_R   0.143235 0.714562 0.521247 0.804983
C2    C     C_1   0.971207 0.504224 0.791819 -0.149110
C3    C     C_R   0.699844 0.962863 0.345278 0.380948
C4    C     C_R   0.771944 0.158523 0.457335 -0.331397
C5    C     C_R   0.201660 0.902247 0.656139 0.393289
C6    C     C_R   0.284091 0.018507 0.690306 0.262522
C7    C     C_R   0.397750 0.063473 0.630153 -0.225790
C8    C     C_R   0.432976 0.993293 0.536667 0.081797
C9    C     C_R   0.339740 0.886353 0.493735 -0.091989
C10   C     C_R   0.556053 0.023831 0.483711 -0.027178
C11   C     C_R   0.578642 0.947689 0.387425 -0.247305
C12   C     C_R   0.982977 0.503416 0.686265 0.788838
C13   C     C_R   0.479887 0.858454 0.336443 0.502618
C14   C     C_R   0.362677 0.827243 0.390952 -0.175122
C15   C     C_R   0.659292 0.123500 0.523032 0.441822
C16   C     C_R   0.792701 0.075671 0.367089 0.268263
C17   C     C_R   0.224713 0.839394 0.553978 -0.230673
C18   C     C_R   0.650145 0.689101 0.661654 -0.375007
C19   C     C_R   0.254611 0.345855 0.362957 0.647740
C20   C     C_R   0.305132 0.276727 0.375480 -0.382814
C21   C     C_R   0.369935 0.320228 0.459921 0.554264
C22   C     C_R   0.421725 0.442779 0.498445 -0.034585
C23   C     C_R   0.856099 0.284645 0.480994 0.950870
C24   C     C_R   0.340984 0.494019 0.506337 0.123677
C25   C     C_R   0.536082 0.512102 0.540941 -0.058207
C26   C     C_R   0.546668 0.619845 0.612667 0.062278
C27   C     C_R   0.452900 0.658337 0.636175 -0.177115
C28   C     C_R   0.352842 0.597604 0.582718 -0.091726
C29   C     C_R   0.644722 0.487799 0.507627 0.473894
C30   C     C_R   0.747419 0.655395 0.638480 0.616899
C31   C     C_R   0.018077 0.498010 0.313937 0.881030
C32   C     C_1   0.030149 0.497005 0.208301 -0.049324
C33   C     C_2   0.047551 0.496849 0.012861 0.387262
C34   C     C_2   0.956220 0.505087 0.985839 0.264391
C35   C     C_1   0.962933 0.504826 0.880493 -0.002318
C36   C     C_1   0.039229 0.496565 0.119521 -0.018392
Cu1   Cu    Cu3+1 0.899780 0.525060 0.522890 1.100715
Cu2   Cu    Cu3+1 0.100220 0.474940 0.477110 1.027922
H1    H     H_    0.288314 0.755862 0.351815 0.165134
H2    H     H_    0.459161 0.738909 0.693872 0.144905
H3    H     H_    0.655135 0.769694 0.718595 0.168599
H4    H     H_    0.282313 0.187557 0.329680 0.192716
H5    H     H_    0.285793 0.632939 0.604766 0.172757
H6    H     H_    0.454550 0.154264 0.657783 0.279047
N1    N     N_R   0.748810 0.563010 0.557590 -0.281470
N2    N     N_R   0.250540 0.437620 0.443020 -0.245201
O1    O     O_R   0.025040 0.682470 0.528790 -0.516320
O2    O     O_R   0.194310 0.640150 0.490130 -0.614569
O3    O     O_R   0.903380 0.524130 0.659910 -0.538577
O4    O     O_R   0.072660 0.481800 0.621240 -0.604540
O5    O     O_R   0.805690 0.359850 0.509870 -0.500565
O6    O     O_R   0.974960 0.317530 0.471210 -0.540259
O7    O     O_R   0.927340 0.518200 0.378760 -0.513756
O8    O     O_R   0.096620 0.475870 0.340090 -0.524646
S1    S     S_3+6 0.825365 0.514114 0.073986 0.059046
O9    O     O_2   0.753560 0.402222 0.110198 -0.200057
O10   O     O_2   0.863910 0.614774 0.166317 -0.257756
O11   O     O_3   0.735981 0.533195 0.016042 -0.479220
H7    H     H_    0.784172 0.612582 0.002612 0.350823
O12   O     O_3   0.845599 0.717807 0.693442 -0.518329
C37   C     C_3   0.803484 0.730172 0.801157 -0.160041
H8    H     H_    0.879084 0.750756 0.841214 0.200139
H9    H     H_    0.727520 0.647984 0.819948 0.135115
H10   H     H_    0.775850 0.804791 0.833428 0.173448
S2    S     S_3+6 0.639549 0.362552 0.397447 0.077266
O13   O     O_2   0.565193 0.253087 0.436551 -0.276513
O14   O     O_2   0.576983 0.363573 0.319242 -0.273931
O15   O     O_3   0.763116 0.341559 0.327097 -0.489098
H11   H     H_    0.731611 0.265522 0.276173 0.384335
O16   O     O_3   0.193513 0.313953 0.281054 -0.503262
C38   C     C_3   0.269997 0.297127 0.186128 -0.130374
H12   H     H_    0.278752 0.212950 0.169176 0.180475
H13   H     H_    0.361894 0.371868 0.184538 0.174098
H14   H     H_    0.227161 0.291904 0.123080 0.197536
O17   O     O_3   0.361668 0.249006 0.519036 -0.535472
C39   C     C_3   0.244339 0.155391 0.525185 -0.235844
H15   H     H_    0.239540 0.081071 0.456461 0.191166
H16   H     H_    0.169071 0.182770 0.534798 0.157074
H17   H     H_    0.227880 0.123960 0.594676 0.182587
O18   O     O_3   0.146957 0.490716 0.936700 -0.596327
C40   C     C_3   0.232673 0.475158 0.972593 -0.200400
H18   H     H_    0.190086 0.391142 0.997298 0.185813
H19   H     H_    0.274244 0.550687 0.036352 0.193347
H20   H     H_    0.307766 0.471062 0.907952 0.212566
S3    S     S_3+6 0.925448 0.111459 0.274496 0.079980
O19   O     O_2   0.960716 0.230730 0.259444 -0.287222
O20   O     O_2   0.025453 0.109305 0.313351 -0.254338
O21   O     O_3   0.901941 0.015013 0.159218 -0.445959
H21   H     H_    0.982811 0.038656 0.114959 0.383990
S4    S     S_3+6 0.494460 0.794124 0.201290 0.037289
O22   O     O_2   0.384935 0.774607 0.160032 -0.329554
O23   O     O_2   0.608001 0.873043 0.144868 -0.235476
O24   O     O_3   0.499124 0.663608 0.180695 -0.467871
H22   H     H_    0.506762 0.632966 0.104474 0.373357
S5    S     S_3+6 0.738076 0.839693 0.307830 0.124262
O25   O     O_2   0.635960 0.740881 0.352239 -0.266040
O26   O     O_2   0.759868 0.798458 0.191958 -0.145433
O27   O     O_3   0.866047 0.877866 0.354794 -0.503880
H23   H     H_    0.872695 0.803108 0.344212 0.389481
O28   O     O_3   0.651890 0.191977 0.622536 -0.577507
C41   C     C_3   0.688121 0.152892 0.686433 -0.285153
H24   H     H_    0.785507 0.165342 0.662034 0.154520
H25   H     H_    0.627744 0.059401 0.687424 0.166704
H26   H     H_    0.679817 0.206080 0.766907 0.227455
O29   O     O_3   0.102659 0.847761 0.724242 -0.509150
C42   C     C_3   0.143221 0.803559 0.780795 -0.196015
H27   H     H_    0.217881 0.873926 0.824469 0.193991
H28   H     H_    0.174265 0.734855 0.729134 0.092389
H29   H     H_    0.066629 0.762957 0.838581 0.167844
S6    S     S_3+6 0.248926 0.108903 0.809790 0.012341
O30   O     O_2   0.112738 0.069533 0.840345 -0.253167
O31   O     O_2   0.300785 0.102215 0.892483 -0.266336
O32   O     O_3   0.312564 0.249163 0.800355 -0.527278
H30   H     H_    0.254419 0.255997 0.768986 0.357336

loop_
_geom_bond_atom_site_label_1
_geom_bond_atom_site_label_2
_ccdc_geom_bond_type
C2    C35   T    
S1    O9    D    
O24   H22   S    
C13   S4    S    
C30   N1    A    
C19   C20   A    
C18   C26   A    
C39   H17   S    
C15   O28   S    
C9    C14   A    
C2    C12   S    
C12   O3    A    
C23   O6    A    
S5    O27   S    
C7    C8    A    
C5    O29   S    
S3    O19   D    
C26   C27   A    
C41   H24   S    
C32   C36   T    
C39   H16   S    
C10   C15   A    
C5    C6    A    
Cu1   O5    S    
Cu2   O6    S    
C42   H27   S    
C33   C36   S    
C34   C35   S    
C37   H9    S    
S6    O30   D    
C14   H1    S    
O15   H11   S    
C23   O5    A    
S5    O25   D    
C8    C9    A    
S2    O14   D    
C22   C25   A    
C30   O12   S    
O16   C38   S    
C18   C30   A    
Cu1   O1    S    
Cu2   O2    S    
Cu1   O7    S    
C34   S1    S    
C41   H25   S    
C21   C22   A    
C6    S6    S    
C40   H19   S    
C40   H18   S    
S3    O20   D    
C25   C29   A    
C19   N2    A    
C39   H15   S    
C18   H3    S    
C38   H13   S    
C4    C23   S    
C1    O1    A    
C25   C26   A    
C29   N1    A    
O12   C37   S    
C4    C16   A    
C37   H10   S    
O17   C39   S    
Cu1   Cu2   S    
Cu1   O3    S    
S4    O23   D    
C31   C32   S    
Cu2   O8    S    
C27   H2    S    
S2    O15   S    
C20   C21   A    
C33   C34   D    
C1    O2    A    
C7    H6    S    
C31   O7    A    
S6    O32   S    
C29   S2    S    
C9    C17   A    
S2    O13   D    
C41   H26   S    
S1    O10   D    
C16   S3    S    
C22   C24   A    
Cu1   N1    S    
C40   H20   S    
S4    O24   S    
O32   H30   S    
S3    O21   S    
C24   C28   A    
O18   C40   S    
C38   H14   S    
C20   H4    S    
S5    O26   D    
C33   O18   S    
C6    C7    A    
Cu2   O4    S    
O29   C42   S    
C21   O17   S    
C28   H5    S    
C1    C17   S    
C24   N2    A    
C4    C15   A    
O11   H7    S    
C38   H12   S    
C11   C13   A    
S4    O22   D    
C42   H28   S    
O28   C41   S    
C31   O8    A    
C37   H8    S    
S6    O31   D    
Cu2   N2    S    
C3    C11   A    
C10   C11   A    
C5    C17   A    
O21   H21   S    
C8    C10   A    
O27   H23   S    
S1    O11   S    
C27   C28   A    
C19   O16   S    
C3    S5    S    
C13   C14   A    
C12   O4    A    
C3    C16   A    
C42   H29   S    
