data_mof_unit_59596.cif
_audit_creation_date              2013-03-05T16:06:55-0500
_audit_creation_method            fapswitch 2.2
_symmetry_space_group_name_H-M    P1
_symmetry_Int_Tables_number       1
_space_group_crystal_system       triclinic
_cell_length_a                    10.825832
_cell_length_b                    9.6658
_cell_length_c                    10.953639
_cell_angle_alpha                 90.587058
_cell_angle_beta                  94.04325
_cell_angle_gamma                 91.849323
_cell_volume                      1142.65398426

loop_
_atom_site_label
_atom_site_type_symbol
_atom_site_description
_atom_site_fract_x
_atom_site_fract_y
_atom_site_fract_z
_atom_type_partial_charge
O1    O     O_R   0.319640 0.618740 0.499990 -0.564467
O2    O     O_R   0.680360 0.618740 0.500010 -0.547518
O3    O     O_R   0.319620 0.381170 0.499990 -0.548289
O4    O     O_R   0.680380 0.381170 0.500010 -0.550663
C1    C     C_R   0.263255 0.497929 0.512350 0.870618
C2    C     C_R   0.736942 0.501931 0.488464 0.863081
O5    O     O_R   0.499990 0.618810 0.319660 -0.553885
O6    O     O_R   0.500010 0.618810 0.680340 -0.534947
O7    O     O_R   0.499960 0.381240 0.319650 -0.525991
O8    O     O_R   0.500040 0.381240 0.680350 -0.556994
C3    C     C_R   0.505519 0.498868 0.263288 0.831760
C4    C     C_R   0.496850 0.499866 0.737388 0.910184
Cu1   Cu    Cu3+1 0.500000 0.640660 0.500000 1.083727
Cu2   Cu    Cu3+1 0.500000 0.359340 0.500000 1.112608
C5    C     C_R   0.517200 0.619738 0.067624 0.072884
C6    C     C_R   0.523436 0.617376 0.941086 0.026118
C7    C     C_R   0.508349 0.495291 0.129995 -0.221178
C8    C     C_R   0.491311 0.497736 0.871266 -0.088696
C9    C     C_R   0.505282 0.370013 0.061363 -0.092975
C10   C     C_R   0.466573 0.373958 0.935912 -0.105722
C11   C     C_3   0.639957 0.708033 0.949240 0.070040
C12   C     C_3   0.625498 0.719461 0.085258 0.088975
H1    H     H_    0.630689 0.807029 0.899321 0.200175
H2    H     H_    0.703473 0.679159 0.144827 0.177184
C13   C     C_R   0.057240 0.370710 0.502413 -0.123802
C14   C     C_R   0.931972 0.378599 0.464376 -0.102442
C15   C     C_R   0.872299 0.504863 0.475211 -0.233217
C16   C     C_R   0.128329 0.493941 0.527567 -0.248984
C17   C     C_R   0.944244 0.628412 0.495212 0.230821
C18   C     C_R   0.067208 0.618948 0.545045 0.300512
C19   C     C_R   0.426044 0.069674 0.414575 0.353939
C20   C     C_R   0.576107 0.078126 0.581380 0.319927
C21   C     C_R   0.418927 0.921859 0.422606 -0.018527
C22   C     C_R   0.585882 0.931681 0.572113 -0.042416
N1    N     N_R   0.500000 0.852070 0.500000 -0.261182
N2    N     N_R   0.500000 0.147940 0.500000 -0.279142
C23   C     C_2   0.592715 0.259380 0.097688 1.040395
O9    O     O_2   0.586347 0.197394 0.193348 -0.485423
O10   O     O_R   0.684945 0.226873 0.020071 -0.640614
H3    H     H_    0.738973 0.149895 0.052813 0.385999
C24   C     C_2   0.400094 0.248894 0.879210 0.978761
O11   O     O_2   0.408176 0.136802 0.929145 -0.472004
O12   O     O_R   0.321378 0.259330 0.773656 -0.733399
H4    H     H_    0.292506 0.164746 0.740092 0.354255
N3    N     N_R   0.754511 0.636782 0.927891 0.119225
O13   O     O_R   0.860625 0.701318 0.953622 -0.268900
O14   O     O_R   0.753210 0.510761 0.884716 -0.295944
N4    N     N_R   0.588464 0.856312 0.123009 0.173041
O15   O     O_R   0.639645 0.913879 0.222588 -0.295749
O16   O     O_R   0.503264 0.920693 0.058641 -0.233327
C25   C     C_2   0.097360 0.238893 0.556355 1.014061
O17   O     O_2   0.080035 0.217285 0.663635 -0.485300
O18   O     O_R   0.142370 0.134925 0.484263 -0.667799
H5    H     H_    0.165589 0.050258 0.533515 0.365194
C26   C     C_2   0.869080 0.261800 0.393570 0.973117
O19   O     O_2   0.817460 0.284216 0.293283 -0.573980
O20   O     O_R   0.868223 0.127982 0.439741 -0.640727
H6    H     H_    0.818356 0.060064 0.383198 0.389110
N5    N     N_R   0.904074 0.755666 0.439149 0.162025
O21   O     O_R   0.814500 0.751597 0.353567 -0.344329
O22   O     O_R   0.977312 0.865050 0.444548 -0.213240
N6    N     N_R   0.120447 0.724097 0.630475 0.162983
O23   O     O_R   0.051532 0.821274 0.668505 -0.244944
O24   O     O_R   0.222137 0.701191 0.696735 -0.328905
N7    N     N_R   0.362258 0.132485 0.309549 0.163627
O25   O     O_R   0.285675 0.231089 0.320820 -0.290876
O26   O     O_R   0.363941 0.074883 0.202008 -0.241891
N8    N     N_R   0.643486 0.150189 0.681339 0.153183
O27   O     O_R   0.748932 0.212614 0.664684 -0.243210
O28   O     O_R   0.622644 0.112304 0.791630 -0.330935
C27   C     C_2   0.319710 0.845917 0.347788 1.000749
O29   O     O_2   0.215573 0.838877 0.383550 -0.549344
O30   O     O_R   0.341319 0.792899 0.232543 -0.668608
H7    H     H_    0.264780 0.746014 0.189796 0.351708
C28   C     C_2   0.702191 0.874751 0.627808 0.976152
O31   O     O_2   0.800285 0.937946 0.616888 -0.456546
O32   O     O_R   0.703027 0.754353 0.695086 -0.734976
H8    H     H_    0.790447 0.722861 0.715268 0.365868

loop_
_geom_bond_atom_site_label_1
_geom_bond_atom_site_label_2
_geom_bond_distance
_ccdc_geom_bond_type
C12   N4    1.458714 S    
C26   O19   1.221512 D    
C6    C11   1.509375 S    
C15   C17   1.411126 A    
C24   O11   1.221570 D    
C9    C10   1.409343 A    
O12   H4    1.013482 S    
C14   C26   1.482434 S    
C10   C24   1.493458 S    
O18   H5    1.013485 S    
C13   C16   1.411092 A    
O5    C3    1.312985 A    
C14   C15   1.406993 A    
N6    O23   1.301334 A    
O1    C1    1.312798 A    
C20   N2    1.368745 A    
C23   O9    1.217394 D    
Cu1   N1    2.043447 S    
C18   N6    1.451715 S    
Cu2   N2    2.043350 S    
C5    C6    1.392430 A    
C19   N7    1.448524 S    
C22   N1    1.385028 A    
O30   H7    1.013849 S    
O2    Cu1   1.970786 S    
N6    O24   1.301564 A    
C9    C23   1.489524 S    
C7    C9    1.416972 A    
C5    C12   1.494084 S    
C17   N5    1.446195 S    
N8    O27   1.299095 A    
N7    O26   1.299299 A    
C19   C21   1.432281 A    
O32   H8    1.013740 S    
C22   C28   1.484485 S    
C20   N8    1.433545 S    
N4    O16   1.299784 A    
N5    O21   1.299715 A    
C11   C12   1.512328 S    
C24   O12   1.393614 S    
O2    C2    1.310949 A    
C11   N3    1.469578 S    
N3    O14   1.301448 A    
C11   H1    1.110786 S    
N5    O22   1.299224 A    
C25   O17   1.221990 D    
O4    C2    1.311959 A    
O8    Cu2   1.984607 S    
O10   H3    1.014063 S    
C27   O30   1.395350 S    
O7    Cu2   1.988925 S    
C13   C14   1.395048 A    
N3    O13   1.301039 A    
C25   O18   1.393017 S    
C20   C22   1.425971 A    
C28   O31   1.221755 D    
C13   C25   1.475156 S    
C17   C18   1.408825 A    
C1    C16   1.481114 S    
O7    C3    1.301029 A    
C2    C15   1.482076 S    
O6    C4    1.314777 A    
C28   O32   1.383755 S    
O3    Cu2   1.970881 S    
O8    C4    1.302754 A    
C6    C8    1.400560 A    
N4    O15   1.299538 A    
C26   O20   1.393619 S    
C12   H2    1.113042 S    
O1    Cu1   1.957192 S    
C5    C7    1.393362 A    
C3    C7    1.462607 S    
O3    C1    1.310457 A    
C16   C18   1.413928 A    
C27   O29   1.219395 D    
C23   O10   1.397489 S    
O20   H6    1.013725 S    
C21   N1    1.374428 A    
C8    C10   1.424068 A    
O4    Cu2   1.957340 S    
C21   C27   1.475399 S    
O6    Cu1   1.988781 S    
O5    Cu1   1.984477 S    
N8    O28   1.298707 A    
N7    O25   1.293834 A    
C4    C8    1.472224 S    
C19   N2    1.389114 A    
Cu1   Cu2   2.719183 S    
