data_mof_unit_11107.cif
_audit_creation_date              2012-12-10T17:30:55-0500
_audit_creation_method            fapswitch 2.2
_symmetry_space_group_name_H-M    P1
_symmetry_Int_Tables_number       1
_space_group_crystal_system       triclinic
_cell_length_a                    21.712073
_cell_length_b                    21.712112
_cell_length_c                    55.678575
_cell_angle_alpha                 89.980185
_cell_angle_beta                  89.989139
_cell_angle_gamma                 90.113828
_cell_volume                      26247.6594042

loop_
_atom_site_label
_atom_site_type_symbol
_atom_type_description
_atom_site_fract_x
_atom_site_fract_y
_atom_site_fract_z
_atom_type_partial_charge
C1    C     C_R   0.379656 0.499991 0.000001 1.029346
C2    C     C_R   0.784184 0.561489 0.061192 -0.329792
C3    C     C_R   0.425339 0.915796 0.300947 0.561101
C4    C     C_R   0.083980 0.574973 0.699050 0.561558
C5    C     C_R   0.590767 0.067583 0.699168 0.564743
C6    C     C_R   0.916127 0.424936 0.699090 0.561257
C7    C     C_R   0.416624 0.924994 0.699145 0.564927
C8    C     C_R   0.446310 0.014840 0.888987 -0.107427
C9    C     C_R   0.019963 0.447889 0.889136 -0.104894
C10   C     C_R   0.554047 0.985410 0.889034 -0.109236
C11   C     C_R   0.980088 0.552213 0.889132 -0.105114
C12   C     C_R   0.447716 0.019803 0.110862 -0.105030
C13   C     C_R   0.438956 0.783797 0.061278 -0.331743
C14   C     C_R   0.984980 0.553695 0.110982 -0.108188
C15   C     C_R   0.552195 0.980336 0.110876 -0.105055
C16   C     C_R   0.015121 0.446152 0.110974 -0.108214
C17   C     C_R   0.946452 0.515582 0.389021 -0.107896
C18   C     C_R   0.519685 0.947832 0.389126 -0.105043
C19   C     C_R   0.053654 0.484250 0.389037 -0.107977
C20   C     C_R   0.480223 0.052313 0.389135 -0.105007
C21   C     C_R   0.947679 0.519489 0.610876 -0.104993
C22   C     C_R   0.485127 0.052892 0.611101 -0.097858
C23   C     C_R   0.052326 0.480469 0.610868 -0.104780
C24   C     C_R   0.215742 0.438505 0.061214 -0.329750
C25   C     C_R   0.517214 0.945919 0.610839 -0.116981
C26   C     C_R   0.446123 0.014645 0.913975 -0.223472
C27   C     C_R   0.019550 0.447673 0.914110 -0.224001
C28   C     C_R   0.554072 0.985540 0.914016 -0.223000
C29   C     C_R   0.980492 0.552402 0.914106 -0.224039
C30   C     C_R   0.447532 0.019370 0.085888 -0.223954
C31   C     C_R   0.985126 0.553830 0.085998 -0.223292
C32   C     C_R   0.552411 0.980712 0.085902 -0.223981
C33   C     C_R   0.014931 0.446070 0.085990 -0.223335
C34   C     C_R   0.946319 0.515436 0.414006 -0.223342
C35   C     C_R   0.561483 0.784286 0.938786 -0.329691
C36   C     C_R   0.519301 0.947608 0.414101 -0.223917
C37   C     C_R   0.053747 0.484463 0.414021 -0.223400
C38   C     C_R   0.480648 0.052488 0.414109 -0.223881
C39   C     C_R   0.947475 0.519091 0.585901 -0.223512
C40   C     C_R   0.484876 0.053293 0.586108 -0.225772
C41   C     C_R   0.052515 0.480872 0.585894 -0.223711
C42   C     C_R   0.516589 0.946085 0.585864 -0.220852
C43   C     C_R   0.500057 0.000064 0.926652 -0.035501
C44   C     C_R   0.000015 0.500030 0.926730 -0.042937
C45   C     C_R   0.499979 0.000025 0.073273 -0.043071
C46   C     C_R   0.783897 0.439003 0.938719 -0.331806
C47   C     C_R   0.000017 0.499963 0.073341 -0.035254
C48   C     C_R   0.000024 0.499968 0.426664 -0.034845
C49   C     C_R   0.499985 0.000036 0.426727 -0.043071
C50   C     C_R   0.999992 0.499985 0.573275 -0.043464
C51   C     C_R   0.500482 0.999814 0.573336 -0.035219
C52   C     C_R   0.501623 0.998679 0.775368 0.073375
C53   C     C_R   0.000029 0.500009 0.775401 0.072600
C54   C     C_R   0.499882 0.000151 0.224600 0.072573
C55   C     C_R   0.000145 0.499826 0.224616 0.073613
C56   C     C_R   0.000150 0.499822 0.275386 0.073615
C57   C     C_R   0.438502 0.215847 0.938808 -0.329551
C58   C     C_R   0.499878 0.000151 0.275400 0.072576
C59   C     C_R   0.000041 0.499976 0.724602 0.072635
C60   C     C_R   0.502738 0.997507 0.724607 0.071946
C61   C     C_R   0.500221 0.000131 0.876475 0.308222
C62   C     C_R   0.000025 0.500056 0.876574 0.292272
C63   C     C_R   0.499947 0.000083 0.123429 0.292289
C64   C     C_R   0.000062 0.499910 0.123513 0.308082
C65   C     C_R   0.000064 0.499900 0.376493 0.307787
C66   C     C_R   0.499943 0.000085 0.376571 0.292243
C67   C     C_R   0.000007 0.499979 0.623431 0.291841
C68   C     C_R   0.216173 0.561037 0.938715 -0.331703
C69   C     C_R   0.501365 0.999242 0.623507 0.304040
C70   C     C_R   0.500008 0.000020 0.952935 0.842930
C71   C     C_R   0.000004 0.500010 0.952961 0.842626
C72   C     C_R   0.499994 0.000001 0.047039 0.842672
C73   C     C_R   0.000001 0.499990 0.047063 0.842955
C74   C     C_R   0.000006 0.499997 0.452939 0.842767
C75   C     C_R   0.499999 0.000010 0.452960 0.842437
C76   C     C_R   0.999996 0.499995 0.547040 0.842579
C77   C     C_R   0.500067 0.999977 0.547061 0.842765
C78   C     C_R   0.500046 0.119594 1.000000 0.876186
C79   C     C_R   0.061001 0.716070 0.561287 -0.331962
C80   C     C_R   0.880406 0.499954 0.000001 0.876171
C81   C     C_R   0.499954 0.880406 0.999996 0.876234
C82   C     C_R   0.119593 0.500046 0.000003 0.876178
C83   C     C_R   0.000046 0.619594 0.500000 0.876001
C84   C     C_R   0.380406 0.999954 0.500001 0.875984
C85   C     C_R   0.999953 0.380406 0.499998 0.876012
C86   C     C_R   0.619593 0.000046 0.500001 0.875862
C87   C     C_R   0.571627 0.086071 0.775753 -0.326457
C88   C     C_R   0.072574 0.585318 0.775906 -0.328062
C89   C     C_R   0.431660 0.911242 0.775882 -0.328889
C90   C     C_R   0.284182 0.061520 0.561187 -0.329608
C91   C     C_R   0.927484 0.414702 0.775952 -0.327565
C92   C     C_R   0.584806 0.073146 0.224058 -0.327749
C93   C     C_R   0.086965 0.570540 0.224152 -0.327976
C94   C     C_R   0.414950 0.927166 0.224089 -0.327755
C95   C     C_R   0.913331 0.429103 0.224188 -0.327982
C96   C     C_R   0.072223 0.585519 0.275815 -0.327945
C97   C     C_R   0.572871 0.085076 0.275910 -0.327754
C98   C     C_R   0.928110 0.414098 0.275849 -0.328020
C99   C     C_R   0.426877 0.915233 0.275942 -0.327746
C100  C     C_R   0.084564 0.573435 0.724054 -0.327713
C101  C     C_R   0.938975 0.283787 0.561282 -0.331365
C102  C     C_R   0.588100 0.070013 0.724144 -0.321807
C103  C     C_R   0.915540 0.426491 0.724094 -0.327448
C104  C     C_R   0.417185 0.925249 0.724166 -0.327003
C105  C     C_R   0.536003 0.043611 0.813594 -0.113574
C106  C     C_R   0.037484 0.542256 0.813678 -0.109815
C107  C     C_R   0.465745 0.955180 0.813659 -0.113197
C108  C     C_R   0.962550 0.457821 0.813701 -0.109715
C109  C     C_R   0.541928 0.037814 0.186305 -0.109893
C110  C     C_R   0.044048 0.535341 0.186349 -0.113151
C111  C     C_R   0.457871 0.962454 0.186321 -0.109896
C112  C     C_R   0.499989 0.379656 0.000005 1.029229
C113  C     C_R   0.715731 0.938631 0.561234 -0.333218
C114  C     C_R   0.956194 0.464356 0.186367 -0.113157
C115  C     C_R   0.036295 0.543213 0.313635 -0.113162
C116  C     C_R   0.537575 0.042162 0.313679 -0.109895
C117  C     C_R   0.963967 0.456461 0.313653 -0.113077
C118  C     C_R   0.462209 0.958110 0.313695 -0.109898
C119  C     C_R   0.041855 0.537882 0.686303 -0.110069
C120  C     C_R   0.546389 0.033330 0.686351 -0.115346
C121  C     C_R   0.958224 0.462049 0.686324 -0.110635
C122  C     C_R   0.459195 0.961572 0.686353 -0.113500
C123  C     C_R   0.501112 0.999168 0.800874 -0.193583
C124  C     C_R   0.061472 0.284295 0.438785 -0.329897
C125  C     C_R   0.000021 0.500029 0.800923 -0.194579
C126  C     C_R   0.499893 0.000140 0.199079 -0.194547
C127  C     C_R   0.000130 0.499840 0.199110 -0.193533
C128  C     C_R   0.000137 0.499832 0.300892 -0.193543
C129  C     C_R   0.499887 0.000142 0.300921 -0.194538
C130  C     C_R   0.000040 0.499970 0.699080 -0.194428
C131  C     C_R   0.502815 0.997413 0.699102 -0.194131
C132  C     C_R   0.534017 0.043385 0.838856 0.528949
C133  C     C_R   0.037060 0.540692 0.838938 0.531271
C134  C     C_R   0.466894 0.956243 0.838925 0.528456
C135  C     C_R   0.283899 0.938995 0.438720 -0.331710
C136  C     C_R   0.962965 0.459416 0.838960 0.531268
C137  C     C_R   0.540374 0.037361 0.161045 0.531315
C138  C     C_R   0.043402 0.533782 0.161086 0.528697
C139  C     C_R   0.459460 0.962870 0.161061 0.531317
C140  C     C_R   0.956798 0.465959 0.161104 0.528710
C141  C     C_R   0.034669 0.542644 0.338899 0.528699
C142  C     C_R   0.537157 0.040573 0.338939 0.531320
C143  C     C_R   0.965538 0.457080 0.338917 0.528756
C144  C     C_R   0.462661 0.959665 0.338955 0.531321
C145  C     C_R   0.040280 0.537437 0.661044 0.531326
C146  C     C_R   0.938465 0.715847 0.438814 -0.329957
C147  C     C_R   0.544788 0.033035 0.661088 0.527321
C148  C     C_R   0.959773 0.462506 0.661064 0.531454
C149  C     C_R   0.459347 0.963745 0.661095 0.530369
C150  C     C_R   0.539483 0.040727 0.762662 0.021721
C151  C     C_R   0.038530 0.541534 0.762717 0.023901
C152  C     C_R   0.464298 0.956108 0.762716 0.022811
C153  C     C_R   0.961538 0.458463 0.762740 0.023889
C154  C     C_R   0.541207 0.038871 0.237265 0.023762
C155  C     C_R   0.042113 0.537789 0.237286 0.023105
C156  C     C_R   0.458547 0.961439 0.237281 0.023761
C157  C     C_R   0.716178 0.060996 0.438709 -0.331672
C158  C     C_R   0.958190 0.461850 0.237303 0.023102
C159  C     C_R   0.038772 0.541185 0.262699 0.023086
C160  C     C_R   0.538595 0.041481 0.262719 0.023763
C161  C     C_R   0.961540 0.458449 0.262716 0.023133
C162  C     C_R   0.461155 0.958828 0.262735 0.023763
C163  C     C_R   0.041155 0.538926 0.737264 0.023543
C164  C     C_R   0.543588 0.036715 0.737270 0.022321
C165  C     C_R   0.958928 0.461033 0.737285 0.023297
C166  C     C_R   0.461313 0.958961 0.737291 0.023123
C167  C     C_R   0.570206 0.307577 0.036471 0.479888
C168  C     C_R   0.534518 0.185216 0.042064 -0.241616
C169  C     C_R   0.692693 0.570478 0.036382 0.476935
C170  C     C_R   0.429737 0.692355 0.036452 0.479901
C171  C     C_R   0.307271 0.429537 0.036412 0.476895
C172  C     C_R   0.570451 0.692744 0.963586 0.476870
C173  C     C_R   0.692408 0.429781 0.963540 0.479908
C174  C     C_R   0.429510 0.307323 0.963621 0.476985
C175  C     C_R   0.307630 0.570253 0.963538 0.479891
C176  C     C_R   0.070210 0.807577 0.536470 0.479833
C177  C     C_R   0.192691 0.070494 0.536376 0.477011
C178  C     C_R   0.929746 0.192350 0.536454 0.479970
C179  C     C_R   0.814889 0.534692 0.042025 -0.240964
C180  C     C_R   0.807262 0.929610 0.536436 0.476863
C181  C     C_R   0.070442 0.192748 0.463583 0.476847
C182  C     C_R   0.192408 0.929778 0.463541 0.479882
C183  C     C_R   0.929490 0.807324 0.463627 0.476935
C184  C     C_R   0.807629 0.070234 0.463535 0.479932
C185  C     C_R   0.581827 0.276859 0.058412 0.502560
C186  C     C_R   0.723518 0.582362 0.058284 0.509422
C187  C     C_R   0.418104 0.723022 0.058396 0.502591
C188  C     C_R   0.276417 0.417646 0.058315 0.509435
C189  C     C_R   0.582340 0.723608 0.941684 0.509503
C190  C     C_R   0.465451 0.814693 0.042056 -0.241635
C191  C     C_R   0.723114 0.418159 0.941599 0.502590
C192  C     C_R   0.417625 0.276510 0.941717 0.509318
C193  C     C_R   0.276950 0.581885 0.941594 0.502669
C194  C     C_R   0.081836 0.776858 0.558410 0.502206
C195  C     C_R   0.223515 0.082389 0.558277 0.508863
C196  C     C_R   0.918129 0.223010 0.558401 0.502274
C197  C     C_R   0.776411 0.917769 0.558344 0.509829
C198  C     C_R   0.082329 0.223617 0.441681 0.509518
C199  C     C_R   0.223114 0.918153 0.441600 0.502504
C200  C     C_R   0.917592 0.776511 0.441725 0.509503
C201  C     C_R   0.185059 0.465298 0.042038 -0.240976
C202  C     C_R   0.776953 0.081853 0.441588 0.502517
C203  C     C_3   0.343896 0.273404 0.911615 -0.331684
C204  C     C_3   0.725927 0.345452 0.911084 -0.312448
C205  C     C_3   0.656062 0.726767 0.911569 -0.333098
C206  C     C_3   0.274170 0.654620 0.911070 -0.312737
C207  C     C_3   0.345369 0.725790 0.088916 -0.312743
C208  C     C_3   0.726636 0.656082 0.088385 -0.332756
C209  C     C_3   0.654522 0.274033 0.088936 -0.312728
C210  C     C_3   0.273270 0.343917 0.088432 -0.332735
C211  C     C_3   0.843850 0.773405 0.411627 -0.332921
C212  C     C_R   0.534695 0.814961 0.957961 -0.240996
C213  C     C_3   0.225927 0.845449 0.411084 -0.312462
C214  C     C_3   0.156050 0.226782 0.411565 -0.332885
C215  C     C_3   0.774168 0.154564 0.411056 -0.312387
C216  C     C_3   0.845457 0.225760 0.588946 -0.314269
C217  C     C_3   0.226628 0.156140 0.588366 -0.330937
C218  C     C_3   0.154535 0.774034 0.588933 -0.313135
C219  C     C_3   0.773246 0.844228 0.588538 -0.341849
C220  C     C_3   0.665552 0.350944 0.030501 -0.268334
C221  C     C_3   0.649243 0.665678 0.030423 -0.273661
C222  C     C_3   0.334387 0.649021 0.030481 -0.268380
C223  C     C_R   0.620344 0.500011 0.999997 1.029204
C224  C     C_R   0.814762 0.465479 0.957940 -0.241652
C225  C     C_3   0.350756 0.334345 0.030486 -0.273523
C226  C     C_3   0.665643 0.649251 0.969514 -0.273548
C227  C     C_3   0.649052 0.334434 0.969520 -0.268366
C228  C     C_3   0.334308 0.350764 0.969577 -0.273666
C229  C     C_3   0.350975 0.665600 0.969499 -0.268355
C230  C     C_3   0.165554 0.850949 0.530500 -0.268170
C231  C     C_3   0.149231 0.165691 0.530416 -0.273553
C232  C     C_3   0.834392 0.149026 0.530487 -0.268724
C233  C     C_3   0.850702 0.834404 0.530511 -0.273348
C234  C     C_3   0.165634 0.149254 0.469509 -0.273381
C235  C     C_R   0.465304 0.185133 0.957975 -0.240977
C236  C     C_3   0.149047 0.834433 0.469520 -0.268265
C237  C     C_3   0.834295 0.850764 0.469595 -0.273674
C238  C     C_3   0.850950 0.165587 0.469502 -0.268225
C239  C     C_3   0.666717 0.119050 0.812294 -0.236872
C240  C     C_3   0.170893 0.614455 0.811420 -0.228813
C241  C     C_3   0.335143 0.879520 0.812044 -0.234679
C242  C     C_3   0.829140 0.385634 0.811490 -0.227874
C243  C     C_3   0.613409 0.171599 0.188506 -0.229097
C244  C     C_3   0.118619 0.666594 0.187798 -0.235047
C245  C     C_3   0.386352 0.828684 0.188580 -0.229103
C246  C     C_R   0.185286 0.534546 0.957939 -0.241659
C247  C     C_3   0.881648 0.333088 0.187852 -0.235068
C248  C     C_3   0.168726 0.615605 0.312172 -0.235119
C249  C     C_3   0.671351 0.113667 0.311425 -0.228823
C250  C     C_3   0.831600 0.383820 0.312183 -0.235090
C251  C     C_3   0.328417 0.886643 0.311490 -0.228763
C252  C     C_3   0.112609 0.672050 0.688502 -0.230031
C253  C     C_3   0.691159 0.069822 0.687894 -0.235737
C254  C     C_3   0.887643 0.327825 0.688568 -0.225845
C255  C     C_3   0.387255 0.828952 0.687669 -0.237567
C256  C     C_R   0.034528 0.685214 0.542063 -0.241449
C257  C     C_R   0.314888 0.034714 0.542022 -0.240640
C258  C     C_R   0.965456 0.314688 0.542058 -0.241306
C259  C     C_R   0.685050 0.965378 0.542048 -0.240321
C260  C     C_R   0.034686 0.314966 0.457961 -0.240892
C261  C     C_R   0.314764 0.965472 0.457941 -0.241531
C262  C     C_R   0.965278 0.685133 0.457979 -0.240926
C263  C     C_R   0.500008 0.620344 0.999997 1.029316
C264  C     C_R   0.685290 0.034513 0.457935 -0.241501
C265  C     C_R   0.521051 0.216508 0.020458 0.000523
C266  C     C_R   0.783548 0.521033 0.020443 0.002183
C267  C     C_R   0.478927 0.783449 0.020446 0.000507
C268  C     C_R   0.216428 0.478968 0.020455 0.002168
C269  C     C_R   0.521027 0.783581 0.979544 0.002142
C270  C     C_R   0.783482 0.478946 0.979547 0.000526
C271  C     C_R   0.478963 0.216462 0.979559 0.002126
C272  C     C_R   0.216541 0.521070 0.979549 0.000502
C273  C     C_R   0.021054 0.716507 0.520457 0.000563
C274  C     C_R   0.879655 0.999989 0.500002 1.029610
C275  C     C_R   0.283547 0.021043 0.520441 0.002251
C276  C     C_R   0.978927 0.283448 0.520447 0.000462
C277  C     C_R   0.716423 0.979007 0.520462 0.002552
C278  C     C_R   0.021020 0.283583 0.479543 0.002293
C279  C     C_R   0.283482 0.978942 0.479547 0.000546
C280  C     C_R   0.978949 0.716462 0.479562 0.002274
C281  C     C_R   0.716542 0.021055 0.479548 0.000530
C282  C     C_R   0.530342 0.280179 0.018996 -0.127222
C283  C     C_R   0.719927 0.530438 0.018958 -0.126927
C284  C     C_R   0.469622 0.719786 0.018979 -0.127142
C285  C     C_R   0.999987 0.879656 0.500005 1.029459
C286  C     C_R   0.280054 0.469574 0.018976 -0.126980
C287  C     C_R   0.530418 0.719954 0.981021 -0.126992
C288  C     C_R   0.719813 0.469650 0.981011 -0.127198
C289  C     C_R   0.469554 0.280081 0.981045 -0.126893
C290  C     C_R   0.280206 0.530371 0.981015 -0.127166
C291  C     C_R   0.030342 0.780179 0.518996 -0.127235
C292  C     C_R   0.219926 0.030447 0.518955 -0.126924
C293  C     C_R   0.969623 0.219784 0.518979 -0.127118
C294  C     C_R   0.780049 0.969612 0.518987 -0.127261
C295  C     C_R   0.030411 0.219956 0.481019 -0.127017
C296  C     C_R   0.120344 0.000010 0.499997 1.029496
C297  C     C_R   0.219813 0.969648 0.481011 -0.127203
C298  C     C_R   0.969540 0.780081 0.481049 -0.126875
C299  C     C_R   0.780206 0.030361 0.481014 -0.127105
C300  C     C_R   0.500111 0.185233 0.999993 -0.086059
C301  C     C_R   0.814767 0.499888 0.000009 -0.086064
C302  C     C_R   0.499886 0.814767 0.999984 -0.086073
C303  C     C_R   0.185233 0.500113 0.000014 -0.086045
C304  C     C_R   0.000109 0.685233 0.499994 -0.086005
C305  C     C_R   0.314767 0.999889 0.500008 -0.085983
C306  C     C_R   0.999884 0.314767 0.499985 -0.085942
C307  C     C_R   0.000008 0.120344 0.499997 1.029622
C308  C     C_R   0.685231 0.000116 0.500014 -0.085979
C309  C     C_R   0.499963 0.312766 0.000015 -0.170024
C310  C     C_R   0.687234 0.500030 0.999989 -0.170050
C311  C     C_R   0.500009 0.687234 0.999995 -0.169969
C312  C     C_R   0.312766 0.499984 0.000000 -0.169954
C313  C     C_R   0.999957 0.812766 0.500017 -0.170128
C314  C     C_R   0.187234 0.000032 0.499988 -0.170137
C315  C     C_R   0.000006 0.187234 0.499995 -0.170050
C316  C     C_R   0.812764 0.999991 0.500004 -0.170128
C317  C     C_R   0.571548 0.086991 0.800774 0.564116
C318  C     C_R   0.560988 0.216071 0.061288 -0.331769
C319  C     C_R   0.074124 0.584765 0.800910 0.560961
C320  C     C_R   0.430714 0.911297 0.800900 0.564923
C321  C     C_R   0.925916 0.415294 0.800956 0.560739
C322  C     C_R   0.584245 0.074681 0.199054 0.561153
C323  C     C_R   0.087397 0.570980 0.199131 0.564794
C324  C     C_R   0.415534 0.925608 0.199085 0.561160
C325  C     C_R   0.912868 0.428693 0.199167 0.564797
C326  C     C_R   0.072637 0.585972 0.300836 0.564823
C327  C     C_R   0.574426 0.084495 0.300915 0.561119
C328  C     C_R   0.927670 0.413662 0.300871 0.564818
H1    H     H_    0.567214 0.191503 0.078009 0.185408
H2    H     H_    0.308770 0.067975 0.577892 0.178794
H3    H     H_    0.632591 0.244397 0.102780 0.186777
H4    H     H_    0.686425 0.305735 0.098411 0.205890
H5    H     H_    0.245735 0.315832 0.075553 0.139781
H6    H     H_    0.243130 0.365059 0.102262 0.181381
H7    H     H_    0.304898 0.311979 0.097871 0.201275
H8    H     H_    0.815781 0.745833 0.424511 0.139923
H9    H     H_    0.864995 0.743303 0.397788 0.181186
H10   H     H_    0.811896 0.805044 0.402202 0.201294
H11   H     H_    0.253959 0.817181 0.423706 0.144289
H12   H     H_    0.255555 0.867377 0.397237 0.186770
H13   H     H_    0.932750 0.308314 0.578007 0.185517
H14   H     H_    0.194221 0.813543 0.401612 0.205968
H15   H     H_    0.184139 0.254308 0.424447 0.139934
H16   H     H_    0.134906 0.256932 0.397737 0.181198
H17   H     H_    0.187985 0.195159 0.402126 0.201297
H18   H     H_    0.746112 0.182823 0.423669 0.144333
H19   H     H_    0.744563 0.132633 0.397212 0.186701
H20   H     H_    0.805879 0.186479 0.401578 0.205999
H21   H     H_    0.817183 0.253837 0.576342 0.146917
H22   H     H_    0.867413 0.255341 0.602791 0.187141
H23   H     H_    0.813553 0.194037 0.598423 0.204362
H24   H     H_    0.691111 0.932218 0.577940 0.176641
H25   H     H_    0.254175 0.184215 0.575476 0.140657
H26   H     H_    0.256754 0.135010 0.602204 0.182042
H27   H     H_    0.194989 0.188085 0.597792 0.201276
H28   H     H_    0.182807 0.746009 0.576313 0.144843
H29   H     H_    0.132607 0.744397 0.602777 0.186742
H30   H     H_    0.186439 0.805736 0.598407 0.205932
H31   H     H_    0.745604 0.816112 0.575704 0.142913
H32   H     H_    0.743210 0.865517 0.602367 0.177108
H33   H     H_    0.804858 0.812292 0.597987 0.201026
H34   H     H_    0.687103 0.385112 0.018437 0.187006
H35   H     H_    0.067923 0.308919 0.422081 0.178641
H36   H     H_    0.677645 0.304561 0.023317 0.110901
H37   H     H_    0.686325 0.357666 0.048509 0.214835
H38   H     H_    0.615332 0.687001 0.018228 0.187203
H39   H     H_    0.695778 0.678049 0.023403 0.109696
H40   H     H_    0.642003 0.686438 0.048397 0.213173
H41   H     H_    0.312837 0.614894 0.018412 0.187016
H42   H     H_    0.322308 0.695428 0.023305 0.110917
H43   H     H_    0.313600 0.642251 0.048488 0.214853
H44   H     H_    0.384674 0.313032 0.018293 0.187195
H45   H     H_    0.304225 0.321957 0.023477 0.109670
H46   H     H_    0.308458 0.932766 0.421999 0.185398
H47   H     H_    0.358003 0.313592 0.048465 0.213167
H48   H     H_    0.686957 0.615325 0.981707 0.187195
H49   H     H_    0.678034 0.695778 0.976526 0.109636
H50   H     H_    0.686392 0.642015 0.951536 0.213162
H51   H     H_    0.614892 0.312882 0.981586 0.187004
H52   H     H_    0.695440 0.322346 0.976705 0.110881
H53   H     H_    0.642323 0.313657 0.951514 0.214851
H54   H     H_    0.312985 0.384665 0.981772 0.187212
H55   H     H_    0.321941 0.304223 0.976595 0.109690
H56   H     H_    0.313545 0.358014 0.951603 0.213179
H57   H     H_    0.932009 0.691267 0.422108 0.178609
H58   H     H_    0.385107 0.687148 0.981568 0.187019
H59   H     H_    0.304571 0.677686 0.976674 0.110887
H60   H     H_    0.357743 0.686384 0.951491 0.214853
H61   H     H_    0.187103 0.885113 0.518434 0.186971
H62   H     H_    0.177651 0.804563 0.523318 0.111091
H63   H     H_    0.186326 0.857679 0.548507 0.214824
H64   H     H_    0.115334 0.187009 0.518215 0.187170
H65   H     H_    0.195774 0.178069 0.523405 0.110028
H66   H     H_    0.141965 0.186450 0.548389 0.213147
H67   H     H_    0.812831 0.114890 0.518425 0.187046
H68   H     H_    0.691643 0.067219 0.421984 0.185351
H69   H     H_    0.822315 0.195428 0.523305 0.111615
H70   H     H_    0.813613 0.142276 0.548497 0.214502
H71   H     H_    0.884695 0.813066 0.518355 0.187148
H72   H     H_    0.804211 0.822056 0.523451 0.109951
H73   H     H_    0.857797 0.813645 0.548498 0.213118
H74   H     H_    0.186948 0.115325 0.481701 0.187198
H75   H     H_    0.178026 0.195779 0.476521 0.109793
H76   H     H_    0.186382 0.142019 0.451530 0.213168
H77   H     H_    0.114886 0.812882 0.481586 0.187007
H78   H     H_    0.195434 0.822342 0.476705 0.111006
H79   H     H_    0.523321 0.137017 0.044482 0.170039
H80   H     H_    0.142316 0.813656 0.451514 0.214839
H81   H     H_    0.812980 0.884674 0.481788 0.187203
H82   H     H_    0.821937 0.804228 0.476620 0.109792
H83   H     H_    0.813516 0.857998 0.451622 0.213178
H84   H     H_    0.885102 0.187142 0.481560 0.187047
H85   H     H_    0.804557 0.177653 0.476691 0.111127
H86   H     H_    0.857672 0.186381 0.451492 0.214813
H87   H     H_    0.685887 0.120885 0.793780 0.131502
H88   H     H_    0.675685 0.073175 0.820538 0.154741
H89   H     H_    0.691540 0.153952 0.823173 0.198312
H90   H     H_    0.863026 0.523463 0.044462 0.169508
H91   H     H_    0.188463 0.618230 0.792713 0.134438
H92   H     H_    0.179883 0.567532 0.818708 0.164150
H93   H     H_    0.197191 0.647675 0.822570 0.195360
H94   H     H_    0.316732 0.876962 0.793429 0.134199
H95   H     H_    0.325776 0.925682 0.819959 0.156937
H96   H     H_    0.309933 0.844985 0.822978 0.197088
H97   H     H_    0.811576 0.381845 0.792786 0.135555
H98   H     H_    0.820156 0.432567 0.818759 0.163735
H99   H     H_    0.802832 0.352430 0.822656 0.195683
H100  H     H_    0.617072 0.189205 0.207206 0.134197
H101  H     H_    0.476657 0.862884 0.044478 0.170026
H102  H     H_    0.566442 0.180325 0.181218 0.163699
H103  H     H_    0.646493 0.198069 0.177343 0.195674
H104  H     H_    0.120717 0.685380 0.206364 0.134213
H105  H     H_    0.072519 0.675445 0.179735 0.156650
H106  H     H_    0.153138 0.691870 0.176880 0.197438
H107  H     H_    0.382653 0.811102 0.207289 0.134176
H108  H     H_    0.433328 0.819934 0.181301 0.163692
H109  H     H_    0.353277 0.802212 0.177427 0.195659
H110  H     H_    0.879579 0.314279 0.206420 0.134210
H111  H     H_    0.927738 0.324256 0.179773 0.156640
H112  H     H_    0.808773 0.567935 0.077897 0.178830
H113  H     H_    0.136916 0.476517 0.044469 0.169502
H114  H     H_    0.847118 0.307820 0.176948 0.197461
H115  H     H_    0.187588 0.617321 0.293608 0.134276
H116  H     H_    0.176775 0.569389 0.320270 0.156618
H117  H     H_    0.194553 0.649731 0.323070 0.197562
H118  H     H_    0.688936 0.117362 0.292718 0.134175
H119  H     H_    0.680095 0.066691 0.318708 0.163607
H120  H     H_    0.697826 0.146739 0.322578 0.195828
H121  H     H_    0.812806 0.381935 0.293614 0.134265
H122  H     H_    0.823397 0.430064 0.320221 0.156584
H123  H     H_    0.805825 0.349693 0.323113 0.197554
H124  H     H_    0.523478 0.863105 0.955531 0.169557
H125  H     H_    0.310812 0.882983 0.292789 0.134199
H126  H     H_    0.319697 0.933611 0.318774 0.163604
H127  H     H_    0.301943 0.853562 0.322653 0.195863
H128  H     H_    0.116190 0.689672 0.707203 0.133818
H129  H     H_    0.065588 0.680521 0.681221 0.162558
H130  H     H_    0.145539 0.698702 0.677337 0.196204
H131  H     H_    0.686438 0.023511 0.679479 0.159305
H132  H     H_    0.709176 0.065445 0.706519 0.129415
H133  H     H_    0.725684 0.096030 0.677317 0.198791
H134  H     H_    0.884134 0.310189 0.707274 0.132854
H135  H     H_    0.862959 0.476680 0.955520 0.170023
H136  H     H_    0.934661 0.319436 0.681265 0.161031
H137  H     H_    0.854733 0.301124 0.677424 0.197076
H138  H     H_    0.385891 0.809868 0.706204 0.134502
H139  H     H_    0.433384 0.821188 0.679457 0.155240
H140  H     H_    0.353073 0.803114 0.676801 0.198441
H141  H     H_    0.476536 0.136998 0.955537 0.169530
H142  H     H_    0.137094 0.523342 0.955519 0.170014
H143  H     H_    0.023335 0.637015 0.544480 0.170014
H144  H     H_    0.363026 0.023486 0.544461 0.169410
H145  H     H_    0.976659 0.362880 0.544481 0.170024
H146  H     H_    0.636907 0.976598 0.544474 0.169196
H147  H     H_    0.023469 0.363111 0.455532 0.169414
H148  H     H_    0.432722 0.808325 0.078002 0.185347
H149  H     H_    0.362960 0.976670 0.455521 0.170016
H150  H     H_    0.976509 0.636998 0.455540 0.169422
H151  H     H_    0.637099 0.023305 0.455515 0.169976
H152  H     H_    0.404669 0.026481 0.879309 0.134460
H153  H     H_    0.035776 0.407580 0.879507 0.146894
H154  H     H_    0.595740 0.973736 0.879392 0.133531
H155  H     H_    0.964276 0.592529 0.879499 0.146681
H156  H     H_    0.407335 0.035466 0.120487 0.146817
H157  H     H_    0.973056 0.595274 0.120646 0.134171
H158  H     H_    0.592563 0.964695 0.120513 0.146819
H159  H     H_    0.191129 0.432052 0.077919 0.178856
H160  H     H_    0.027064 0.404554 0.120630 0.134171
H161  H     H_    0.905008 0.527973 0.379357 0.134315
H162  H     H_    0.535327 0.907466 0.379491 0.146841
H163  H     H_    0.095115 0.471834 0.379385 0.134280
H164  H     H_    0.464564 0.092697 0.379508 0.146858
H165  H     H_    0.907240 0.534963 0.620511 0.146986
H166  H     H_    0.472597 0.094138 0.620862 0.142799
H167  H     H_    0.092770 0.464992 0.620497 0.147327
H168  H     H_    0.530076 0.904442 0.620394 0.132239
H169  H     H_    0.404037 0.026374 0.923348 0.159081
H170  H     H_    0.567934 0.808906 0.922081 0.178933
H171  H     H_    0.035172 0.406942 0.923530 0.161407
H172  H     H_    0.596102 0.973772 0.923417 0.159049
H173  H     H_    0.964865 0.593122 0.923523 0.161333
H174  H     H_    0.406750 0.034826 0.076466 0.161482
H175  H     H_    0.973094 0.595816 0.076613 0.158982
H176  H     H_    0.593205 0.965236 0.076491 0.161469
H177  H     H_    0.026948 0.404103 0.076598 0.158999
H178  H     H_    0.904477 0.527937 0.423392 0.158799
H179  H     H_    0.534772 0.906810 0.423514 0.161526
H180  H     H_    0.095574 0.471984 0.423419 0.158823
H181  H     H_    0.808455 0.432777 0.921998 0.185337
H182  H     H_    0.465190 0.093267 0.423529 0.161560
H183  H     H_    0.906618 0.534386 0.576489 0.161792
H184  H     H_    0.471948 0.095131 0.576805 0.159984
H185  H     H_    0.093369 0.465580 0.576477 0.161901
H186  H     H_    0.529228 0.904439 0.576379 0.158774
H187  H     H_    0.596122 0.123092 0.767051 0.167624
H188  H     H_    0.097543 0.622212 0.767346 0.159967
H189  H     H_    0.407616 0.873840 0.767234 0.161159
H190  H     H_    0.902517 0.377795 0.767414 0.160178
H191  H     H_    0.621567 0.098315 0.232603 0.160210
H192  H     H_    0.432055 0.191268 0.922102 0.179011
H193  H     H_    0.123986 0.595090 0.232831 0.161216
H194  H     H_    0.378177 0.902011 0.232644 0.160212
H195  H     H_    0.876324 0.404539 0.232881 0.161213
H196  H     H_    0.097377 0.622133 0.267123 0.161224
H197  H     H_    0.598029 0.121846 0.267354 0.160216
H198  H     H_    0.903003 0.377456 0.267168 0.161178
H199  H     H_    0.401705 0.878473 0.267398 0.160222
H200  H     H_    0.121193 0.598802 0.732596 0.160474
H201  H     H_    0.623258 0.097189 0.732794 0.159011
H202  H     H_    0.878928 0.401101 0.732648 0.161382
H203  H     H_    0.191636 0.567271 0.921991 0.185329
H204  H     H_    0.380657 0.899955 0.732852 0.161400
H205  H     H_    0.315820 0.245834 0.924497 0.139492
H206  H     H_    0.365047 0.243300 0.897778 0.181702
H207  H     H_    0.311948 0.305043 0.902187 0.201391
H208  H     H_    0.753957 0.317185 0.923707 0.144004
H209  H     H_    0.755558 0.367378 0.897238 0.186690
H210  H     H_    0.694221 0.313546 0.901612 0.205984
H211  H     H_    0.684150 0.754295 0.924449 0.139688
H212  H     H_    0.634919 0.756914 0.897739 0.181303
H213  H     H_    0.687997 0.695142 0.902131 0.201201
H214  H     H_    0.067232 0.691501 0.578007 0.185386
H215  H     H_    0.246129 0.682877 0.923689 0.144094
H216  H     H_    0.244551 0.632709 0.897226 0.186664
H217  H     H_    0.305886 0.686534 0.901594 0.205890
H218  H     H_    0.317115 0.753841 0.076296 0.144192
H219  H     H_    0.367283 0.755399 0.102762 0.186693
H220  H     H_    0.313453 0.694071 0.098389 0.205925
H221  H     H_    0.754200 0.684162 0.075502 0.139791
H222  H     H_    0.756747 0.634927 0.102222 0.181368
H223  H     H_    0.695001 0.688026 0.097813 0.201274
H224  H     H_    0.682795 0.246008 0.076317 0.144213
N1    N     N_R   0.500303 0.999977 0.850780 -0.368607
N2    N     N_R   0.000014 0.500058 0.850859 -0.366021
N3    N     N_R   0.499927 0.000105 0.149143 -0.366038
N4    N     N_R   0.000088 0.499883 0.149206 -0.368592
N5    N     N_R   0.000089 0.499875 0.350797 -0.368565
N6    N     N_R   0.499919 0.000109 0.350857 -0.366040
N7    N     N_R   0.000018 0.499976 0.649145 -0.366095
N8    N     N_R   0.501738 0.998811 0.649201 -0.368392
O1    O     O_R   0.408450 0.500000 0.979840 -0.571742
O2    O     O_R   0.000000 0.908450 0.479840 -0.570708
O3    O     O_3   0.892208 0.370428 0.812806 -0.564615
O4    O     O_3   0.628952 0.108612 0.187210 -0.563975
O5    O     O_3   0.133344 0.603340 0.187354 -0.557241
O6    O     O_3   0.370831 0.891675 0.187254 -0.563959
O7    O     O_3   0.866911 0.396340 0.187408 -0.557247
O8    O     O_3   0.105730 0.631400 0.312594 -0.557299
O9    O     O_3   0.608362 0.129195 0.312744 -0.563948
O10   O     O_3   0.894636 0.368194 0.312648 -0.557281
O11   O     O_3   0.391403 0.871093 0.312791 -0.563964
O12   O     O_3   0.128495 0.609150 0.687203 -0.562962
O13   O     O_R   0.091550 1.000000 0.479840 -0.571731
O14   O     O_3   0.634977 0.102329 0.687433 -0.556861
O15   O     O_3   0.871650 0.390700 0.687264 -0.560495
O16   O     O_3   0.371206 0.891886 0.687390 -0.556599
O17   O     O_R   0.000000 0.091550 0.479840 -0.570648
O18   O     O_R   0.908450 0.000000 0.520160 -0.571156
O19   O     O_R   0.000000 0.091550 0.520160 -0.572014
O20   O     O_R   0.091550 0.000000 0.520160 -0.570894
O21   O     O_R   1.000000 0.908450 0.520160 -0.572003
O22   O     O_R   0.448330 0.999980 0.964340 -0.624973
O23   O     O_R   0.000020 0.448330 0.964340 -0.624671
O24   O     O_R   0.551670 0.000020 0.964340 -0.625116
O25   O     O_R   0.500000 0.408450 0.979840 -0.570720
O26   O     O_R   0.999980 0.551670 0.964340 -0.624694
O27   O     O_R   0.448330 0.000020 0.035660 -0.624704
O28   O     O_R   0.000020 0.551670 0.035660 -0.624980
O29   O     O_R   0.551670 0.999980 0.035660 -0.624701
O30   O     O_R   0.999980 0.448330 0.035660 -0.624996
O31   O     O_R   0.948330 0.499980 0.464340 -0.624838
O32   O     O_R   0.500020 0.948330 0.464340 -0.624714
O33   O     O_R   0.051670 0.500020 0.464340 -0.624862
O34   O     O_R   0.499980 0.051670 0.464340 -0.624679
O35   O     O_R   0.948330 0.500020 0.535660 -0.624565
O36   O     O_R   0.591550 0.500000 0.979840 -0.571755
O37   O     O_R   0.500020 0.051670 0.535660 -0.624115
O38   O     O_R   0.051670 0.499980 0.535660 -0.624652
O39   O     O_R   0.499980 0.948330 0.535660 -0.624971
O40   O     O_2   0.565128 0.086218 0.851578 -0.505696
O41   O     O_2   0.073746 0.578874 0.851657 -0.518010
O42   O     O_2   0.435358 0.913831 0.851717 -0.506161
O43   O     O_2   0.926272 0.421253 0.851699 -0.518028
O44   O     O_2   0.578381 0.074220 0.148307 -0.517955
O45   O     O_2   0.085767 0.565449 0.148320 -0.506030
O46   O     O_2   0.421470 0.925994 0.148339 -0.517909
O47   O     O_R   0.500000 0.591550 0.979840 -0.570692
O48   O     O_2   0.914412 0.434312 0.148355 -0.506013
O49   O     O_2   0.066940 0.584560 0.351645 -0.506012
O50   O     O_2   0.574035 0.078562 0.351661 -0.517876
O51   O     O_2   0.933234 0.415193 0.351681 -0.506020
O52   O     O_2   0.425798 0.921660 0.351692 -0.517895
O53   O     O_2   0.078079 0.574503 0.648304 -0.517767
O54   O     O_2   0.585861 0.066387 0.648332 -0.506862
O55   O     O_2   0.921961 0.425446 0.648342 -0.516858
O56   O     O_2   0.417324 0.931609 0.648348 -0.504974
O57   O     O_R   0.448330 0.091630 0.999960 -0.623885
O58   O     O_R   0.408450 0.500000 0.020160 -0.570724
O59   O     O_R   0.908370 0.448330 0.999960 -0.617779
O60   O     O_R   0.551670 0.908370 0.999960 -0.623901
O61   O     O_R   0.091630 0.551670 0.999960 -0.617787
O62   O     O_R   0.448330 0.908370 0.000040 -0.617787
O63   O     O_R   0.908370 0.551670 0.000040 -0.623932
O64   O     O_R   0.551670 0.091630 0.000040 -0.617823
O65   O     O_R   0.091630 0.448330 0.000040 -0.623923
O66   O     O_R   0.948330 0.591630 0.499960 -0.623889
O67   O     O_R   0.408370 0.948330 0.499960 -0.617717
O68   O     O_R   0.051670 0.408370 0.499960 -0.623860
O69   O     O_R   0.500000 0.591550 0.020160 -0.571797
O70   O     O_R   0.591630 0.051670 0.499960 -0.617539
O71   O     O_R   0.948330 0.408370 0.500040 -0.617621
O72   O     O_R   0.408370 0.051670 0.500040 -0.623749
O73   O     O_R   0.051670 0.591630 0.500040 -0.617706
O74   O     O_R   0.591630 0.948330 0.500040 -0.624010
O75   O     O_3   0.389434 0.309100 0.923244 -0.575005
O76   O     O_3   0.690287 0.390238 0.923098 -0.580174
O77   O     O_3   0.610515 0.691057 0.923201 -0.574937
O78   O     O_3   0.309796 0.609822 0.923088 -0.580185
O79   O     O_3   0.390164 0.690167 0.076898 -0.580342
O80   O     O_R   0.591550 0.500000 0.020160 -0.570772
O81   O     O_3   0.690936 0.610547 0.076757 -0.575136
O82   O     O_3   0.609742 0.309677 0.076917 -0.580365
O83   O     O_3   0.308977 0.389465 0.076798 -0.575125
O84   O     O_3   0.889391 0.809102 0.423253 -0.575177
O85   O     O_3   0.190287 0.890232 0.423098 -0.580452
O86   O     O_3   0.110505 0.191069 0.423197 -0.575173
O87   O     O_3   0.809801 0.109786 0.423083 -0.580431
O88   O     O_3   0.890213 0.190140 0.576905 -0.582648
O89   O     O_3   0.190934 0.110582 0.576749 -0.576231
O90   O     O_3   0.109753 0.809677 0.576915 -0.581137
O91   O     O_R   0.500000 0.408450 0.020160 -0.571775
O92   O     O_3   0.808986 0.889634 0.576835 -0.576760
O93   O     O_3   0.601336 0.361851 0.031290 -0.584360
O94   O     O_3   0.638423 0.601402 0.031199 -0.583748
O95   O     O_3   0.398601 0.638100 0.031265 -0.584397
O96   O     O_3   0.361555 0.398625 0.031242 -0.583739
O97   O     O_3   0.601362 0.638456 0.968756 -0.583710
O98   O     O_3   0.638139 0.398649 0.968725 -0.584345
O99   O     O_3   0.398584 0.361588 0.968803 -0.583735
O100  O     O_3   0.361890 0.601386 0.968721 -0.584374
O101  O     O_3   0.101337 0.861852 0.531288 -0.584464
O102  O     O_R   0.908450 1.000000 0.479840 -0.571675
O103  O     O_3   0.138419 0.101414 0.531192 -0.583906
O104  O     O_3   0.898605 0.138098 0.531268 -0.584692
O105  O     O_3   0.861540 0.898676 0.531278 -0.583860
O106  O     O_3   0.101353 0.138459 0.468750 -0.583764
O107  O     O_3   0.138137 0.898648 0.468726 -0.584399
O108  O     O_3   0.898569 0.861590 0.468811 -0.583792
O109  O     O_3   0.861884 0.101377 0.468716 -0.584401
O110  O     O_3   0.603361 0.133382 0.812497 -0.554257
O111  O     O_3   0.107822 0.629652 0.812736 -0.564475
O112  O     O_3   0.398503 0.865308 0.812714 -0.557397
Zn1   Zn    Zn3+2 0.500000 0.500000 0.973090 1.165469
Zn2   Zn    Zn3+2 0.500000 0.930980 0.500000 0.949538
Zn3   Zn    Zn3+2 0.069020 0.500000 0.500000 0.949807
Zn4   Zn    Zn3+2 0.500000 0.069020 0.500000 0.950825
Zn5   Zn    Zn3+2 0.500000 0.500000 0.026910 1.165198
Zn6   Zn    Zn3+2 0.000000 1.000000 0.473090 1.165187
Zn7   Zn    Zn3+2 0.000000 0.000000 0.526910 1.163109
Zn8   Zn    Zn3+2 0.430980 0.000000 0.000000 0.949103
Zn9   Zn    Zn3+2 0.000000 0.430980 0.000000 0.949125
Zn10  Zn    Zn3+2 0.569020 0.000000 0.000000 0.948972
Zn11  Zn    Zn3+2 1.000000 0.569020 0.000000 0.949083
Zn12  Zn    Zn3+2 0.930980 0.500000 0.500000 0.949963

loop_
_geom_bond_atom_site_label_1
_geom_bond_atom_site_label_2
_ccdc_geom_bond_type
C261  H149  S    
C222  H43   S    
C115  C141  A    
C95   C158  A    
C237  H81   S    
C32   C45   A    
C41   C50   A    
C30   C45   A    
C238  H86   S    
C11   C62   A    
C111  C139  A    
C15   C32   A    
C2    H112  S    
C33   H177  S    
C9    C27   A    
C211  H9    S    
C236  O107  S    
C78   O57   A    
C137  O44   S    
C20   C66   A    
C203  H205  S    
C142  O50   S    
C246  C272  A    
C241  O112  S    
C54   C156  A    
C269  C302  A    
C62   N2    S    
C137  N3    A    
C235  C271  A    
C167  C185  A    
C208  H221  S    
C119  C130  A    
C280  C298  A    
C139  O46   S    
C100  H200  S    
C231  H66   S    
C204  H210  S    
C249  H118  S    
C147  N8    A    
C144  O52   S    
C276  C306  A    
C19   C37   A    
C40   H184  S    
C106  C133  A    
O64   Zn10  S    
C90   C195  A    
C103  H202  S    
O29   Zn10  S    
C19   H163  S    
C170  C187  A    
O2    Zn6   S    
C226  H49   S    
O23   Zn9   S    
C68   C193  A    
C17   H161  S    
C190  C267  A    
C274  O18   A    
C228  H55   S    
C263  O47   A    
C255  H138  S    
C63   N3    S    
C235  H141  S    
C1    O58   A    
C86   C308  S    
C77   O37   A    
C246  H142  S    
C213  H14   S    
C168  C265  A    
C96   C326  A    
C264  C281  A    
C182  C297  A    
C97   H197  S    
C236  H78   S    
C229  H59   S    
C298  C313  A    
C99   H199  S    
C57   C235  A    
C80   C301  S    
C232  H70   S    
C102  H201  S    
C254  O15   S    
C220  H37   S    
C257  C275  A    
C197  O92   S    
C143  N5    A    
C258  C276  A    
C82   O61   A    
C48   C74   S    
C209  H4    S    
C110  C138  A    
C57   C192  A    
C242  O3    S    
C242  H98   S    
C253  H131  S    
C186  O81   S    
C113  C259  A    
C20   H164  S    
C249  O9    S    
O17   Zn6   S    
C173  C191  A    
C143  O51   S    
C280  C304  A    
O31   Zn12  S    
C233  H71   S    
C201  H113  S    
C225  H47   S    
C72   O29   A    
C132  O40   S    
C3    C118  A    
C50   C76   S    
C99   C162  A    
C234  H74   S    
C98   C328  A    
C221  H38   S    
C14   C64   A    
C168  C318  A    
C113  H24   S    
C83   O73   A    
C91   H190  S    
C171  O96   S    
C254  H134  S    
C116  C142  A    
C112  O25   A    
C206  H216  S    
C218  O90   S    
C222  H41   S    
C200  O84   S    
C29   C44   A    
C33   C47   A    
C216  H22   S    
C250  O10   S    
C10   C61   A    
C34   C48   A    
C17   C34   A    
C173  O98   S    
C58   C162  A    
C215  O87   S    
C36   H179  S    
C114  C127  A    
C252  O12   S    
O19   Zn7   S    
C240  H91   S    
C110  C127  A    
C146  H57   S    
C177  C195  A    
C175  C290  A    
C182  C199  A    
C82   O65   A    
C203  H207  S    
C64   N4    S    
C75   O34   A    
C91   C153  A    
C184  O109  S    
C208  H223  S    
C174  O99   S    
C23   C41   A    
C291  C313  A    
C249  H120  S    
C172  O97   S    
C142  N6    A    
C148  O55   S    
C274  O102  A    
C135  C199  A    
C67   N7    S    
C84   C305  S    
C117  C328  A    
C286  C312  A    
C267  C284  A    
C233  H72   S    
C94   C324  A    
C220  H34   S    
C220  H36   S    
C100  C163  A    
C217  O89   S    
C56   C128  A    
C146  C200  A    
C117  C128  A    
C245  H109  S    
C13   C190  A    
C77   O39   A    
C87   H187  S    
C118  C129  A    
O37   Zn4   S    
C230  O101  S    
C25   H168  S    
C169  C283  A    
C54   C154  A    
C236  H80   S    
C124  H35   S    
C1    O1    A    
C175  C193  A    
C277  C308  A    
C219  H31   S    
C184  C299  A    
C3    O11   S    
C226  H48   S    
C112  C309  S    
C13   C187  A    
O60   Zn10  S    
C23   H167  S    
C245  H108  S    
C263  C311  S    
C14   C31   A    
C149  N8    A    
C232  O104  S    
C2    C186  A    
C283  C310  A    
C46   C224  A    
C244  H105  S    
C55   C155  A    
C173  C288  A    
C106  C125  A    
C105  C123  A    
C250  H122  S    
C89   C320  A    
C271  C300  A    
C107  C134  A    
C292  C314  A    
C275  C292  A    
C240  H92   S    
C279  C305  A    
C89   H189  S    
C58   C129  A    
C210  H6    S    
C85   O71   A    
C144  N6    A    
C241  H94   S    
O91   Zn5   S    
C263  O69   A    
C29   H173  S    
C27   C44   A    
C89   C152  A    
C221  O94   S    
C252  H130  S    
C86   O74   A    
C258  H145  S    
C49   C75   S    
C146  C262  A    
C240  O111  S    
C114  C140  A    
C37   H180  S    
C321  O3    S    
C97   C327  A    
C183  C298  A    
O1    Zn1   S    
C59   C165  A    
C101  C196  A    
C95   C325  A    
C38   H182  S    
C78   C300  S    
C81   O60   A    
C295  C315  A    
C42   H186  S    
C83   O66   A    
C41   H185  S    
C325  O7    S    
C268  C303  A    
C228  H54   S    
C277  C294  A    
C76   O35   A    
C255  H139  S    
C284  C311  A    
C254  H137  S    
C270  C301  A    
C289  C309  A    
C24   C201  A    
C216  H23   S    
C296  C314  S    
C88   H188  S    
C155  C159  A    
C93   C155  A    
C35   H170  S    
C86   O70   A    
C296  O20   A    
C213  O85   S    
C10   H154  S    
C237  O108  S    
C218  H30   S    
C121  C130  A    
C215  H20   S    
C178  C196  A    
C214  O86   S    
C115  C128  A    
C167  O93   S    
C22   H166  S    
C6    O15   S    
C96   H196  S    
C170  C284  A    
C35   C212  A    
C57   H192  S    
C88   C319  A    
C192  O75   S    
C252  H128  S    
C231  O103  S    
C207  H220  S    
C84   O72   A    
C260  H147  S    
C244  O5    S    
C178  C293  A    
C140  N4    A    
C247  O7    S    
C176  O101  S    
C271  C289  A    
O26   Zn11  S    
C93   C323  A    
C53   C125  A    
C299  C316  A    
C179  H90   S    
C240  H93   S    
C188  O83   S    
C274  C316  S    
C1    C312  S    
C55   C127  A    
C103  C165  A    
C74   O31   A    
C183  O108  S    
C73   O28   A    
C259  C277  A    
C307  C315  S    
C256  H143  S    
C282  C309  A    
C122  C131  A    
C218  H28   S    
C288  C310  A    
C232  H69   S    
C265  C300  A    
C22   C69   A    
C180  C294  A    
C108  C321  A    
C230  H63   S    
C181  C295  A    
C85   O68   A    
C133  O41   S    
C285  C313  S    
C71   O26   A    
C152  C166  A    
C225  O96   S    
C253  O14   S    
C18   C66   A    
C40   C51   A    
C150  C164  A    
C151  C163  A    
C255  O16   S    
C239  H89   S    
C15   C63   A    
C202  O87   S    
C241  H96   S    
C109  C322  A    
C225  H44   S    
C90   C257  A    
C31   H175  S    
O80   Zn5   S    
C51   C77   S    
C203  O75   S    
C80   O63   A    
C208  H222  S    
C60   C164  A    
C16   H160  S    
C285  O2    A    
C231  H65   S    
C251  O11   S    
C59   C163  A    
O36   Zn1   S    
C179  C266  A    
C3    C99   A    
C109  C126  A    
C96   C159  A    
C81   O62   A    
C206  H217  S    
C52   C150  A    
C226  H50   S    
C204  H208  S    
C74   O33   A    
C6    C121  A    
C228  H56   S    
C174  C192  A    
C85   C306  S    
C262  H150  S    
C214  H17   S    
C107  C320  A    
C199  O85   S    
C139  N3    A    
C105  C317  A    
C120  C131  A    
C204  H209  S    
C273  C304  A    
C107  C123  A    
C229  H58   S    
C211  O84   S    
C34   H178  S    
C38   C49   A    
C307  O19   A    
C169  C186  A    
C53   C153  A    
C54   C126  A    
O70   Zn4   S    
C171  C188  A    
C223  O36   A    
C248  H116  S    
C297  C314  A    
C35   C189  A    
C56   C159  A    
C205  H212  S    
C242  H99   S    
C115  C326  A    
C251  H126  S    
C244  H104  S    
C207  H218  S    
C138  N4    A    
C219  O92   S    
C204  O76   S    
C213  H12   S    
C124  C198  A    
O13   Zn6   S    
C215  H18   S    
C198  O86   S    
O25   Zn1   S    
C158  C161  A    
C210  O83   S    
C134  O42   S    
C190  H101  S    
C322  O4    S    
C239  O110  S    
C247  H110  S    
C234  H75   S    
C168  H79   S    
O69   Zn5   S    
C227  H52   S    
C14   H157  S    
C174  C289  A    
C239  H88   S    
C18   H162  S    
C229  O100  S    
O71   Zn12  S    
C75   O32   A    
C111  C324  A    
C243  O4    S    
C153  C165  A    
C171  C286  A    
C222  H42   S    
C13   H148  S    
C31   C47   A    
C237  H82   S    
C112  O91   A    
C281  C299  A    
C238  H85   S    
C72   O27   A    
C222  O95   S    
C60   C131  A    
C209  H224  S    
C265  C282  A    
C105  C132  A    
C92   C322  A    
C211  H10   S    
C228  O99   S    
C92   H191  S    
C97   C160  A    
C47   C73   S    
C157  H68   S    
O65   Zn9   S    
C5    C120  A    
C56   C161  A    
C60   C166  A    
C145  N7    A    
C183  C200  A    
C101  H13   S    
C234  O106  S    
C249  H119  S    
C91   C321  A    
O66   Zn12  S    
C248  H115  S    
C71   O23   A    
C260  C278  A    
C275  C305  A    
C261  C279  A    
C52   C152  A    
C24   H159  S    
C262  C280  A    
C193  O78   S    
C4    O12   S    
C111  C126  A    
C247  H114  S    
C181  O106  S    
C176  C291  A    
C248  H117  S    
C293  C315  A    
C264  H151  S    
C106  C319  A    
C327  O9    S    
C294  C316  A    
C253  H133  S    
C84   O67   A    
C256  C273  A    
C39   H183  S    
C236  H77   S    
C229  H60   S    
C238  H84   S    
C185  O82   S    
C98   C161  A    
C216  O88   S    
O59   Zn9   S    
C10   C28   A    
C182  O107  S    
C4    C119  A    
C217  H26   S    
C104  H204  S    
C5    C102  A    
C189  O77   S    
C12   C30   A    
C180  O105  S    
C245  H107  S    
C217  H25   S    
C90   H2    S    
C279  C297  A    
C25   C42   A    
C242  H97   S    
C133  N2    A    
C253  H132  S    
C244  H106  S    
C172  C189  A    
C119  C145  A    
C28   H172  S    
C28   C43   A    
C118  C144  A    
C194  O90   S    
C250  H123  S    
C24   C188  A    
C68   C246  A    
C79   H214  S    
O68   Zn3   S    
C58   C160  A    
C276  C293  A    
C87   C150  A    
C238  O109  S    
O34   Zn4   S    
C221  H39   S    
C278  C295  A    
C210  H7    S    
C227  O98   S    
C251  H125  S    
C5    O14   S    
C19   C65   A    
C243  H102  S    
C285  O21   A    
C94   H194  S    
C147  O54   S    
C7    O16   S    
C281  C308  A    
C61   N1    S    
C132  N1    A    
C104  C166  A    
C230  H61   S    
C206  H215  S    
C157  C264  A    
C273  C291  A    
C124  C260  A    
C120  C147  A    
C94   C156  A    
C245  O6    S    
C267  C302  A    
C70   O24   A    
O38   Zn3   S    
C221  H40   S    
C176  C194  A    
C149  O56   S    
C18   C36   A    
C36   C49   A    
O27   Zn8   S    
O73   Zn3   S    
C266  C283  A    
C257  H144  S    
C59   C130  A    
C211  H8    S    
C226  O97   S    
C88   C151  A    
C95   H195  S    
C175  O100  S    
C328  O10   S    
C81   C302  S    
C320  O112  S    
O21   Zn7   S    
C169  O94   S    
C209  H3    S    
C83   C304  S    
C80   O59   A    
C209  O82   S    
C214  H15   S    
O18   Zn7   S    
C290  C312  A    
C117  C143  A    
C92   C154  A    
C108  C136  A    
O22   Zn8   S    
O47   Zn1   S    
C15   H158  S    
C52   C123  A    
C23   C67   A    
O102  Zn6   S    
C178  O104  S    
O74   Zn2   S    
C110  C323  A    
C203  H206  S    
C44   C71   S    
C109  C137  A    
C170  O95   S    
C116  C327  A    
C66   N6    S    
C224  H135  S    
C180  C197  A    
C30   H174  S    
C138  O45   S    
C272  C290  A    
O62   Zn8   S    
C116  C129  A    
C207  H219  S    
C27   H171  S    
C233  O105  S    
C231  H64   S    
C201  C268  A    
C307  O17   A    
C108  C125  A    
C195  O89   S    
C87   C317  A    
C219  H32   S    
C278  C306  A    
C233  H73   S    
C223  C310  S    
C156  C162  A    
C185  C318  A    
C227  H53   S    
C136  O43   S    
C247  H111  S    
C317  O110  S    
O35   Zn12  S    
C45   C72   S    
O33   Zn3   S    
C324  O6    S    
C318  H1    S    
C68   H203  S    
C217  H27   S    
C181  C198  A    
C210  H5    S    
C272  C303  A    
C326  O8    S    
C122  C149  A    
C26   C43   A    
C55   C158  A    
C8    C26   A    
C214  H16   S    
C121  C148  A    
C184  C202  A    
C250  H121  S    
C9    C62   A    
C206  O78   S    
C205  O77   S    
C11   H155  S    
C79   C194  A    
C216  H21   S    
C12   C63   A    
C207  O79   S    
C9    H153  S    
C323  O5    S    
C6    C103  A    
C224  C270  A    
O30   Zn9   S    
C243  H100  S    
C114  C325  A    
O24   Zn10  S    
O58   Zn5   S    
C241  H95   S    
O28   Zn11  S    
C21   H165  S    
O20   Zn7   S    
C154  C160  A    
C69   N8    S    
C16   C33   A    
C20   C38   A    
C21   C39   A    
C232  H67   S    
C319  O111  S    
C252  H129  S    
C22   C40   A    
C39   C50   A    
C266  C301  A    
C230  H62   S    
C26   H169  S    
C234  H76   S    
C70   O22   A    
C46   C191  A    
C73   O30   A    
C98   H198  S    
C37   C48   A    
C141  N5    A    
C248  O8    S    
C135  H46   S    
O32   Zn2   S    
C212  H124  S    
C102  C164  A    
C32   H176  S    
C135  C261  A    
C43   C70   S    
C215  H19   S    
C7    C104  A    
C4    C100  A    
C141  O49   S    
C148  N7    A    
C93   H193  S    
C2    C179  A    
C177  O103  S    
C7    C122  A    
C76   O38   A    
C255  H140  S    
C196  O88   S    
C82   C303  S    
C53   C151  A    
C101  C258  A    
C219  H33   S    
C140  O48   S    
C177  C292  A    
C113  C197  A    
C268  C286  A    
C269  C287  A    
C270  C288  A    
C78   O64   A    
C218  H29   S    
C208  O81   S    
C42   C51   A    
C8    C61   A    
C46   H181  S    
C17   C65   A    
C8    H152  S    
O57   Zn8   S    
C145  O53   S    
C225  H45   S    
C287  C311  A    
O67   Zn2   S    
C191  O76   S    
C79   C256  A    
C205  H211  S    
C220  O93   S    
C172  C287  A    
C212  C269  A    
C259  H146  S    
C237  H83   S    
C213  H11   S    
C251  H127  S    
C136  N2    A    
O63   Zn11  S    
C12   H156  S    
O72   Zn4   S    
C167  C282  A    
C187  O79   S    
O39   Zn2   S    
C25   C69   A    
C11   C29   A    
C227  H51   S    
C205  H213  S    
C239  H87   S    
C243  H103  S    
C157  C202  A    
C16   C64   A    
C65   N5    S    
C223  O80   A    
C21   C67   A    
C296  O13   A    
O61   Zn11  S    
C254  H136  S    
C134  N1    A    
