data_mof_unit_7681.cif
_audit_creation_date              2012-12-10T17:36:37-0500
_audit_creation_method            fapswitch 2.2
_symmetry_space_group_name_H-M    P1
_symmetry_Int_Tables_number       1
_space_group_crystal_system       triclinic
_cell_length_a                    11.974628
_cell_length_b                    12.883162
_cell_length_c                    15.733847
_cell_angle_alpha                 90.212337
_cell_angle_beta                  86.66685
_cell_angle_gamma                 93.118512
_cell_volume                      2419.58260929

loop_
_atom_site_label
_atom_site_type_symbol
_atom_type_description
_atom_site_fract_x
_atom_site_fract_y
_atom_site_fract_z
_atom_type_partial_charge
C1    C     C_R   0.521854 0.700460 0.498475 0.884384
C2    C     C_R   0.552955 0.025690 0.504345 0.183221
C3    C     C_R   0.955263 0.409208 0.415553 -0.338199
C4    C     C_R   0.044737 0.590792 0.584447 -0.338196
C5    C     C_R   0.838779 0.417101 0.424383 0.017968
C6    C     C_R   0.161221 0.582899 0.575617 0.017969
C7    C     C_R   0.857822 0.538119 0.537330 -0.046840
C8    C     C_R   0.142178 0.461881 0.462670 -0.046842
C9    C     C_R   0.975404 0.532694 0.530913 0.093916
C10   C     C_R   0.024596 0.467306 0.469087 0.093915
C11   C     C_R   0.500531 0.499867 0.661978 0.913197
C12   C     C_R   0.478146 0.299540 0.501525 0.884385
C13   C     C_R   0.499469 0.500133 0.338022 0.913200
C14   C     C_3   0.479662 0.597157 0.025508 -0.062714
C15   C     C_3   0.520335 0.402844 0.974492 -0.062705
C16   C     C_3   0.577460 0.567028 0.963235 0.144865
C17   C     C_3   0.422538 0.432973 0.036766 0.144861
C18   C     C_1   0.500879 0.497459 0.750534 -0.187460
C19   C     C_1   0.499121 0.502542 0.249466 -0.187460
C20   C     C_3   0.397761 0.523899 0.977970 -0.061487
C21   C     C_3   0.602236 0.476103 0.022031 -0.061477
C22   C     C_3   0.495510 0.493709 0.916472 0.019438
C23   C     C_R   0.649220 0.969788 0.508925 -0.220808
C24   C     C_3   0.504487 0.506292 0.083528 0.019443
C25   C     C_1   0.498789 0.495081 0.825712 -0.044918
C26   C     C_1   0.501209 0.504920 0.174288 -0.044919
C27   C     C_R   0.465210 0.188275 0.502003 -0.053819
C28   C     C_R   0.534790 0.811725 0.497998 -0.053818
C29   C     C_R   0.458592 0.709412 0.046116 0.144395
C30   C     C_R   0.424149 0.773932 0.981808 -0.116871
C31   C     C_R   0.401794 0.877434 0.999209 -0.138932
C32   C     C_R   0.414918 0.917983 0.080663 -0.108178
C33   C     C_R   0.451070 0.855194 0.144634 -0.149438
C34   C     C_R   0.350779 0.030212 0.491077 -0.220807
C35   C     C_R   0.473042 0.751426 0.127577 -0.138049
C36   C     C_R   0.541413 0.290592 0.953882 0.144421
C37   C     C_R   0.575911 0.226081 0.018183 -0.116887
C38   C     C_R   0.598317 0.122593 0.000773 -0.138982
C39   C     C_R   0.585182 0.082051 0.919318 -0.108185
C40   C     C_R   0.548955 0.144826 0.855356 -0.149449
C41   C     C_R   0.526936 0.248580 0.872420 -0.138032
C42   C     C_R   0.720787 0.450402 0.038747 0.141553
C43   C     C_R   0.789424 0.411369 0.971832 -0.130163
C44   C     C_R   0.898356 0.384376 0.985708 -0.128996
C45   C     C_R   0.640152 0.862386 0.505731 -0.196582
C46   C     C_R   0.940454 0.397402 0.066194 -0.087180
C47   C     C_R   0.873973 0.438248 0.132685 -0.163536
C48   C     C_R   0.764752 0.464939 0.119140 -0.144843
C49   C     C_R   0.279211 0.549603 0.961255 0.141563
C50   C     C_R   0.210570 0.588615 0.028175 -0.130164
C51   C     C_R   0.101636 0.615607 0.014302 -0.129005
C52   C     C_R   0.059542 0.602604 0.933815 -0.087170
C53   C     C_R   0.126029 0.561783 0.867319 -0.163516
C54   C     C_R   0.235252 0.535092 0.880861 -0.144865
C55   C     C_R   0.359847 0.137615 0.494271 -0.196581
C56   C     C_R   0.438926 0.867666 0.492043 -0.285662
C57   C     C_R   0.561074 0.132334 0.507958 -0.285662
C58   C     C_R   0.447045 0.974310 0.495656 0.183221
H1    H     H_    0.642602 0.171514 0.514758 0.164499
H2    H     H_    0.785344 0.372561 0.382909 0.134860
H3    H     H_    0.990653 0.358386 0.367307 0.151538
H4    H     H_    0.009347 0.641614 0.632693 0.151536
H5    H     H_    0.413849 0.743759 0.918233 0.145492
H6    H     H_    0.374513 0.926284 0.949461 0.145668
H7    H     H_    0.397825 0.998225 0.094047 0.155268
H8    H     H_    0.462255 0.886994 0.207546 0.140466
H9    H     H_    0.502201 0.705496 0.178035 0.136044
H10   H     H_    0.586227 0.256253 0.081758 0.145490
H11   H     H_    0.625649 0.073752 0.050514 0.145663
H12   H     H_    0.357398 0.828485 0.485244 0.164499
H13   H     H_    0.602319 0.001822 0.905927 0.155263
H14   H     H_    0.537754 0.113029 0.792443 0.140463
H15   H     H_    0.497716 0.294500 0.821970 0.136035
H16   H     H_    0.758193 0.401114 0.908945 0.148357
H17   H     H_    0.950364 0.353864 0.933926 0.147275
H18   H     H_    0.025009 0.377006 0.076770 0.170073
H19   H     H_    0.907187 0.449519 0.194798 0.140840
H20   H     H_    0.716362 0.497730 0.171453 0.146789
H21   H     H_    0.241798 0.598853 0.091063 0.148352
H22   H     H_    0.049624 0.646101 0.066088 0.147277
H23   H     H_    0.285279 0.180757 0.489588 0.163784
H24   H     H_    0.974987 0.623000 0.923242 0.170077
H25   H     H_    0.092820 0.550533 0.805205 0.140842
H26   H     H_    0.283648 0.502324 0.828543 0.146789
H27   H     H_    0.714721 0.819243 0.510412 0.163783
H28   H     H_    0.730743 0.008926 0.515391 0.141861
H29   H     H_    0.269257 0.991074 0.484611 0.141861
H30   H     H_    0.181554 0.411708 0.415834 0.133815
H31   H     H_    0.818446 0.588292 0.584166 0.133815
H32   H     H_    0.214656 0.627439 0.617091 0.134856
I1    I     I_    0.701602 0.674298 0.904252 -0.457469
I2    I     I_    0.298407 0.325692 0.095748 -0.457460
N1    N     N_R   0.207800 0.519340 0.515560 -0.101614
N2    N     N_R   0.792200 0.480660 0.484440 -0.101615
O1    O     O_R   0.421700 0.658830 0.504150 -0.628806
O2    O     O_R   0.578300 0.341170 0.495850 -0.628805
O3    O     O_R   0.609310 0.646410 0.494170 -0.626435
O4    O     O_R   0.390690 0.353590 0.505830 -0.626434
O5    O     O_R   0.406210 0.506220 0.628210 -0.626792
O6    O     O_R   0.593790 0.493780 0.371790 -0.626790
O7    O     O_R   0.593830 0.493800 0.618230 -0.609760
O8    O     O_R   0.406170 0.506200 0.381770 -0.609764
Zn1   Zn    Zn3+2 0.374730 0.508290 0.506660 0.945998
Zn2   Zn    Zn3+2 0.625270 0.491710 0.493340 0.946000

loop_
_geom_bond_atom_site_label_1
_geom_bond_atom_site_label_2
_ccdc_geom_bond_type
O5    Zn1   S    
C11   C18   S    
C16   C21   S    
C23   C45   A    
C50   H21   S    
N1    Zn1   S    
C46   H18   S    
C5    N2    A    
C28   C56   A    
C2    C57   A    
C53   C54   A    
C18   C25   T    
C20   C49   S    
C36   C37   A    
C37   C38   A    
C24   C26   S    
C30   C31   A    
C27   C55   A    
C57   H1    S    
C48   H20   S    
C49   C54   A    
C7    H31   S    
C37   H10   S    
C4    H4    S    
O6    Zn2   S    
C17   C20   S    
C11   O5    A    
C14   C24   S    
C19   C26   T    
C51   H22   S    
C15   C22   S    
C47   C48   A    
O1    Zn1   S    
C22   C25   S    
C1    C28   S    
C55   H23   S    
C9    C10   A    
C12   O4    A    
C43   H16   S    
C38   H11   S    
N2    Zn2   S    
C34   C55   A    
C30   H5    S    
C36   C41   A    
C17   I2    S    
C54   H26   S    
C44   C46   A    
C33   H8    S    
C3    H3    S    
C28   C45   A    
C17   C24   S    
C13   C19   S    
C12   C27   S    
C51   C52   A    
C14   C20   S    
C4    C6    A    
C27   C57   A    
C1    O3    A    
C39   C40   A    
C6    H32   S    
C23   H28   S    
C8    H30   S    
C44   H17   S    
C45   H27   S    
C43   C44   A    
C29   C30   A    
C31   C32   A    
C35   H9    S    
C1    O1    A    
C6    N1    A    
C50   C51   A    
C11   O7    A    
C42   C48   A    
C52   H24   S    
C40   C41   A    
C20   C22   S    
O7    Zn2   S    
C56   H12   S    
O2    Zn2   S    
C14   C16   S    
C42   C43   A    
C47   H19   S    
C14   C29   S    
C15   C36   S    
C52   C53   A    
C15   C17   S    
C7    N2    A    
C46   C47   A    
C16   C22   S    
C40   H14   S    
C5    H2    S    
C31   H6    S    
C8    N1    A    
C3    C5    A    
C2    C58   A    
C29   C35   A    
C53   H25   S    
C32   C33   A    
C13   O6    A    
C13   O8    A    
C3    C10   A    
C38   C39   A    
C33   C35   A    
C56   C58   A    
C34   H29   S    
O8    Zn1   S    
O3    Zn2   S    
C41   H15   S    
C21   C42   S    
C7    C9    A    
C15   C21   S    
C16   I1    S    
C8    C10   A    
C49   C50   A    
C21   C24   S    
C2    C23   A    
C34   C58   A    
C39   H13   S    
C12   O2    A    
C4    C9    A    
O4    Zn1   S    
C32   H7    S    
