data_mof_unit_48684.cif
_audit_creation_date              2012-12-10T17:15:50-0500
_audit_creation_method            fapswitch 2.2
_symmetry_space_group_name_H-M    P1
_symmetry_Int_Tables_number       1
_space_group_crystal_system       triclinic
_cell_length_a                    10.205818
_cell_length_b                    10.729375
_cell_length_c                    10.689057
_cell_angle_alpha                 91.429772
_cell_angle_beta                  95.264486
_cell_angle_gamma                 80.59993
_cell_volume                      1149.82626899

loop_
_atom_site_label
_atom_site_type_symbol
_atom_type_description
_atom_site_fract_x
_atom_site_fract_y
_atom_site_fract_z
_atom_type_partial_charge
C1    C     C_R   0.444625 0.514747 0.267108 0.952732
C2    C     C_R   0.626492 0.040268 0.481622 0.072499
C3    C     C_R   0.511409 0.124625 0.513957 -0.109959
C4    C     C_R   0.393787 0.080097 0.533313 -0.232813
C5    C     C_R   0.387881 0.954148 0.519273 -0.213216
C6    C     C_R   0.495283 0.872757 0.475502 -0.111309
C7    C     C_2   0.414786 0.537943 0.134106 -0.378609
C8    C     C_2   0.504731 0.579222 0.068119 0.155505
C9    C     C_2   0.585127 0.516087 0.866563 -0.377989
C10   C     C_2   0.486116 0.570924 0.933104 -0.202087
C11   C     C_2   0.071274 0.495046 0.481636 0.186563
C12   C     C_R   0.503886 0.259496 0.507853 0.875066
C13   C     C_2   0.927018 0.513189 0.507198 -0.154122
C14   C     C_R   0.555416 0.497109 0.733333 0.947184
C15   C     C_R   0.497106 0.739616 0.488862 0.874346
C16   C     C_R   0.757349 0.070875 0.487692 -0.209449
C17   C     C_R   0.859448 0.993683 0.429741 0.229497
C18   C     C_R   0.831706 0.884048 0.367217 -0.174089
C19   C     C_R   0.708084 0.846923 0.372758 -0.214749
C20   C     C_R   0.609153 0.918907 0.441275 0.095885
H1    H     H_    0.306225 0.142268 0.560974 0.170338
H2    H     H_    0.323634 0.511827 0.087759 0.124086
H3    H     H_    0.891369 0.583552 0.576168 0.152595
H4    H     H_    0.872732 0.379649 0.384832 0.183917
H5    H     H_    0.121193 0.607066 0.624307 0.131697
H6    H     H_    0.783906 0.150808 0.541701 0.162671
H7    H     H_    0.907453 0.824372 0.318560 0.147593
H8    H     H_    0.691394 0.761431 0.323095 0.188743
H9    H     H_    0.299750 0.920460 0.544846 0.167721
H10   H     H_    0.385108 0.598710 0.889946 0.175772
H11   H     H_    0.685627 0.485919 0.909293 0.146884
N1    N     N_2   0.157290 0.551390 0.551110 -0.218208
N2    N     N_2   0.842740 0.448550 0.448960 -0.207297
O1    O     O_R   0.568950 0.489660 0.307530 -0.582097
O2    O     O_R   0.348880 0.522640 0.340350 -0.627816
O3    O     O_R   0.610060 0.300270 0.483590 -0.623257
O4    O     O_R   0.389990 0.333260 0.516410 -0.643833
O5    O     O_R   0.651120 0.477360 0.659650 -0.613137
O6    O     O_R   0.431050 0.510340 0.692470 -0.607522
O7    O     O_R   0.610010 0.666740 0.483590 -0.618820
O8    O     O_R   0.389940 0.699730 0.516410 -0.618497
Zn1   Zn    Zn3+2 0.646940 0.477980 0.478090 0.929483
Zn2   Zn    Zn3+2 0.353060 0.522020 0.521910 0.916651
C21   C     C_3   0.112082 0.410962 0.370370 -0.299967
C22   C     C_3   0.061153 0.475808 0.245292 -0.908939
H12   H     H_    0.950646 0.495494 0.233529 0.248556
H13   H     H_    0.099244 0.566569 0.240011 0.274175
H14   H     H_    0.096537 0.413698 0.166491 0.240813
H15   H     H_    0.218398 0.380330 0.370337 0.265084
H16   H     H_    0.076980 0.319097 0.375214 0.152471
C23   C     C_3   0.997904 0.026896 0.435873 -0.443409
C24   C     C_3   0.033312 0.061076 0.306741 -0.869774
H17   H     H_    0.033109 0.979559 0.240709 0.258045
H18   H     H_    0.960778 0.142576 0.268007 0.258772
H19   H     H_    0.134671 0.087234 0.315345 0.252059
H20   H     H_    0.007325 0.108044 0.500981 0.193118
H21   H     H_    0.070494 0.944841 0.473030 0.204857
N3    N     N_3   0.618861 0.627203 0.127720 -0.435625
H22   H     H_    0.621342 0.715291 0.089150 0.176262
H23   H     H_    0.705507 0.566460 0.107930 0.184950

loop_
_geom_bond_atom_site_label_1
_geom_bond_atom_site_label_2
_ccdc_geom_bond_type
C21   H15   S    
C11   N1    D    
C9    C14   S    
O5    Zn1   S    
C23   H21   S    
H4    N2    S    
C2    C16   A    
C14   O5    A    
C7    H2    S    
C6    C20   A    
C9    C10   D    
C10   H10   S    
O3    Zn1   S    
C19   C20   A    
O1    Zn1   S    
C24   H19   S    
C17   C23   S    
H5    N1    S    
O7    Zn1   S    
C17   C18   A    
N3    H22   S    
C7    C8    D    
C22   H12   S    
C21   C22   S    
C13   N2    D    
C4    H1    S    
O8    Zn2   S    
C15   O8    A    
N2    Zn1   S    
N1    Zn2   S    
C24   H18   S    
C1    O1    A    
C2    C3    A    
C5    H9    S    
C22   H13   S    
C19   H8    S    
C5    C6    A    
C14   O6    A    
C15   O7    A    
C11   C13   S    
C12   O3    A    
C9    H11   S    
C2    C20   A    
C23   C24   S    
C11   C21   S    
O2    Zn2   S    
C24   H17   S    
C13   H3    S    
C8    C10   S    
C18   C19   A    
C22   H14   S    
C21   H16   S    
C12   O4    A    
C1    O2    A    
C16   C17   A    
O6    Zn2   S    
C3    C12   S    
C8    N3    S    
C6    C15   S    
C1    C7    S    
N3    H23   S    
O4    Zn2   S    
C18   H7    S    
C3    C4    A    
C4    C5    A    
C16   H6    S    
C23   H20   S    
