data_mof_unit_5757.cif
_audit_creation_date              2013-03-05T16:06:03-0500
_audit_creation_method            fapswitch 2.2
_symmetry_space_group_name_H-M    P1
_symmetry_Int_Tables_number       1
_space_group_crystal_system       triclinic
_cell_length_a                    10.499223
_cell_length_b                    14.980372
_cell_length_c                    15.371591
_cell_angle_alpha                 82.405044
_cell_angle_beta                  89.65296
_cell_angle_gamma                 104.573479
_cell_volume                      2317.41586695

loop_
_atom_site_label
_atom_site_type_symbol
_atom_site_description
_atom_site_fract_x
_atom_site_fract_y
_atom_site_fract_z
_atom_type_partial_charge
O1    O     O_R   0.462600 0.383110 0.605620 -0.614562
O2    O     O_R   0.537400 0.616890 0.394380 -0.615012
O3    O     O_R   0.510210 0.531900 0.639510 -0.620434
O4    O     O_R   0.489790 0.468100 0.360490 -0.620289
C1    C     C_R   0.478003 0.441863 0.662563 0.885893
C2    C     C_R   0.514797 0.557987 0.337481 0.887911
O5    O     O_R   0.662240 0.425610 0.483080 -0.618376
O6    O     O_R   0.337760 0.574390 0.516920 -0.621697
O7    O     O_R   0.709860 0.574400 0.516970 -0.626179
O8    O     O_R   0.290140 0.425600 0.483030 -0.627899
C3    C     C_R   0.742699 0.500885 0.500254 0.866316
C4    C     C_R   0.257297 0.499058 0.499840 0.860686
Zn1   Zn    Zn3+2 0.468210 0.400660 0.477370 0.945555
Zn2   Zn    Zn3+2 0.531790 0.599340 0.522630 0.944408
C5    C     C_3   0.931590 0.430912 0.560311 -0.180320
C6    C     C_3   0.068403 0.568862 0.439888 -0.179204
C7    C     C_3   0.046646 0.511691 0.580124 -0.159885
C8    C     C_3   0.953364 0.488080 0.420084 -0.161198
H1    H     H_    0.089343 0.520910 0.645250 0.147344
H2    H     H_    0.910746 0.478831 0.354946 0.148140
H3    H     H_    0.871239 0.374934 0.609386 0.141428
H4    H     H_    0.128825 0.624769 0.390775 0.138744
C9    C     C_3   0.121601 0.497785 0.499581 0.022559
C10   C     C_3   0.878393 0.502015 0.500619 0.018070
C11   C     C_3   0.009226 0.416959 0.479767 -0.140864
C12   C     C_3   0.990789 0.582819 0.520442 -0.138988
H5    H     H_    0.020713 0.349382 0.463242 0.146363
H6    H     H_    0.979286 0.650374 0.537011 0.149178
C13   C     C_R   0.443868 0.406938 0.755424 -0.123308
C14   C     C_R   0.500470 0.591671 0.245132 -0.120513
C15   C     C_R   0.375778 0.280832 0.876118 0.328935
C16   C     C_R   0.501108 0.715677 0.125887 0.328927
C17   C     C_R   0.411760 0.312005 0.787261 -0.258124
C18   C     C_R   0.520911 0.686264 0.214024 -0.271162
C19   C     C_R   0.438289 0.471054 0.811932 -0.222510
C20   C     C_R   0.457944 0.526061 0.188692 -0.223088
C21   C     C_R   0.394978 0.442871 0.899448 0.046934
C22   C     C_R   0.428082 0.551736 0.102316 0.048676
C23   C     C_R   0.362059 0.346154 0.932926 -0.087440
C24   C     C_R   0.449614 0.648065 0.069304 -0.084414
C25   C     C_R   0.394510 0.510382 0.955696 0.043028
C26   C     C_R   0.387253 0.482769 0.046550 0.042843
C27   C     C_R   0.338887 0.387217 0.078534 -0.286573
C28   C     C_R   0.400760 0.604398 0.924320 -0.287326
C29   C     C_R   0.318844 0.319444 0.022138 0.324875
C30   C     C_R   0.420414 0.672134 0.980806 0.307139
H7    H     H_    0.452200 0.454061 0.212466 0.173560
H8    H     H_    0.472607 0.544131 0.787203 0.174867
H9    H     H_    0.557826 0.737676 0.257296 0.191252
H10   H     H_    0.420529 0.262220 0.743900 0.191717
H11   H     H_    0.307854 0.364530 0.146797 0.172476
H12   H     H_    0.381604 0.625313 0.856682 0.180458
N1    N     N_R   0.574200 0.731700 0.552740 -0.105511
N2    N     N_R   0.425800 0.268300 0.447260 -0.104896
C31   C     C_R   0.714334 0.847037 0.624676 -0.281631
C32   C     C_R   0.301909 0.158310 0.362325 -0.273718
C33   C     C_R   0.671523 0.755599 0.608879 0.037522
C34   C     C_R   0.334703 0.246832 0.386480 0.032434
C35   C     C_R   0.513675 0.793812 0.511504 -0.032723
C36   C     C_R   0.488568 0.206264 0.485956 -0.033996
C37   C     C_R   0.553381 0.888853 0.523390 -0.003952
C38   C     C_R   0.464149 0.115716 0.461779 -0.003876
C39   C     C_R   0.657439 0.915696 0.581420 0.109982
C40   C     C_R   0.365624 0.090872 0.399677 0.099946
C41   C     C_R   0.493148 0.956856 0.479880 0.031464
C42   C     C_R   0.532427 0.049689 0.498711 0.034817
C43   C     C_R   0.641213 0.075031 0.551942 -0.197964
C44   C     C_R   0.396351 0.934837 0.417171 -0.192355
C45   C     C_R   0.704304 0.010126 0.593794 0.155081
C46   C     C_R   0.332752 0.999938 0.376181 0.144755
H13   H     H_    0.554472 0.229643 0.536295 0.125780
H14   H     H_    0.436256 0.766019 0.469771 0.124952
H15   H     H_    0.286777 0.298860 0.357168 0.134109
H16   H     H_    0.717771 0.703438 0.640051 0.136532
H17   H     H_    0.792901 0.862682 0.669741 0.154187
H18   H     H_    0.226839 0.144158 0.314674 0.182449
H19   H     H_    0.681257 0.146602 0.559162 0.149412
H20   H     H_    0.370975 0.867114 0.397442 0.149379
N3    N     N_R   0.248045 0.225907 0.055773 0.244763
O9    O     O_R   0.266325 0.190169 0.135112 -0.400741
O10   O     O_R   0.149680 0.182662 0.013385 -0.321720
N4    N     N_R   0.402778 0.762403 0.948021 0.246383
O11   O     O_R   0.442403 0.800381 0.868147 -0.342920
O12   O     O_R   0.326848 0.798789 0.991768 -0.311897
N5    N     N_R   0.367984 0.185101 0.908298 0.242334
O13   O     O_R   0.311019 0.120055 0.862584 -0.320633
O14   O     O_R   0.440024 0.164788 0.972826 -0.300475
N6    N     N_R   0.546755 0.813196 0.093998 0.243774
O15   O     O_R   0.524094 0.874305 0.140798 -0.343799
O16   O     O_R   0.632889 0.840916 0.028488 -0.312350
C47   C     C_3   0.821968 0.040166 0.651313 -0.378127
C48   C     C_3   0.870492 0.144403 0.657613 -0.838223
H21   H     H_    0.902880 0.184576 0.591750 0.243501
H22   H     H_    0.792196 0.170075 0.687381 0.264766
H23   H     H_    0.956350 0.156206 0.700369 0.276396
H24   H     H_    0.795782 0.003540 0.719220 0.245612
H25   H     H_    0.906648 0.018101 0.625463 0.207742
C49   C     C_3   0.228765 0.973603 0.308094 -0.368963
C50   C     C_3   0.199108 0.873756 0.286247 -0.795481
H26   H     H_    0.288698 0.859556 0.258326 0.287921
H27   H     H_    0.160395 0.822892 0.345620 0.230715
H28   H     H_    0.122648 0.864577 0.236271 0.279487
H29   H     H_    0.134437 0.984595 0.331911 0.204957
H30   H     H_    0.261115 0.020900 0.245613 0.275883

loop_
_geom_bond_atom_site_label_1
_geom_bond_atom_site_label_2
_geom_bond_distance
_ccdc_geom_bond_type
C15   N5    1.435586 S    
C25   C26   1.399099 A    
C43   H19   1.069466 S    
N1    C35   1.348285 A    
N2    C36   1.348547 A    
N5    O13   1.301451 A    
C24   C30   1.416185 A    
C4    C9    1.420064 S    
C7    C9    1.527877 S    
O1    C1    1.304105 A    
C7    C12   1.543872 S    
C19   C21   1.393056 A    
C10   C12   1.527633 S    
C22   C26   1.414791 A    
C49   C50   1.531881 S    
C5    C11   1.543656 S    
C49   H29   1.111572 S    
C16   N6    1.435145 S    
C13   C17   1.395842 A    
C3    C10   1.420565 S    
C20   H7    1.078582 S    
C36   C38   1.415343 A    
O4    Zn1   1.923527 S    
C37   C39   1.427067 A    
C38   C40   1.425479 A    
C47   H24   1.111508 S    
C30   N4    1.436616 S    
C39   C45   1.414685 A    
C15   C23   1.426918 A    
C31   C39   1.410710 A    
O6    Zn2   1.981187 S    
C32   C40   1.410382 A    
C40   C46   1.414278 A    
C35   H14   1.073406 S    
C23   C29   1.415134 A    
C31   H17   1.080631 S    
C28   H12   1.080617 S    
C9    C11   1.527663 S    
C42   C43   1.411886 A    
C6    C12   1.543686 S    
O2    C2    1.304236 A    
C8    C11   1.543816 S    
C19   H8    1.078222 S    
C28   C30   1.398523 A    
C1    C13   1.463465 S    
N5    O14   1.301420 A    
C44   H20   1.067003 S    
C35   C37   1.416059 A    
C15   C17   1.400998 A    
C14   C18   1.396181 A    
O4    C2    1.304717 A    
C47   C48   1.532155 S    
N3    O10   1.301471 A    
C38   C42   1.424021 A    
C36   H13   1.075343 S    
C17   H10   1.083576 S    
C48   H23   1.110626 S    
C43   C45   1.400704 A    
C16   C18   1.401641 A    
C33   H16   1.082000 S    
O5    C3    1.287212 A    
O7    Zn2   2.000173 S    
O7    C3    1.289388 A    
C50   H26   1.110922 S    
C5    H3    1.110566 S    
O6    C4    1.287389 A    
C41   C44   1.413523 A    
C50   H28   1.110563 S    
C48   H22   1.110900 S    
C29   N3    1.436299 S    
C47   H25   1.111720 S    
C27   C29   1.397824 A    
O3    Zn2   1.923527 S    
O8    C4    1.289053 A    
C44   C46   1.401546 A    
C5    C10   1.528299 S    
C50   H27   1.111103 S    
N6    O16   1.301445 A    
N4    O11   1.301641 A    
C6    C9    1.528017 S    
N4    O12   1.301504 A    
C32   H18   1.080105 S    
C31   C33   1.384447 A    
C25   C28   1.412095 A    
C8    C10   1.528029 S    
O1    Zn1   1.952648 S    
C26   C27   1.411972 A    
Zn1   N2    2.035869 S    
N2    C34   1.351497 A    
C5    C7    1.543566 S    
C18   H9    1.083565 S    
C6    H4    1.110625 S    
C2    C14   1.464172 S    
O3    C1    1.304544 A    
O8    Zn1   2.000171 S    
N1    C33   1.350998 A    
C11   H5    1.110385 S    
C13   C19   1.388776 A    
C12   H6    1.110343 S    
C14   C20   1.388268 A    
C20   C22   1.392794 A    
C21   C23   1.425561 A    
C22   C24   1.425436 A    
C27   H11   1.080999 S    
C49   H30   1.111242 S    
C48   H21   1.111128 S    
C7    H1    1.110421 S    
C32   C34   1.384511 A    
C8    H2    1.110341 S    
C16   C24   1.427459 A    
C21   C25   1.415621 A    
O2    Zn2   1.952645 S    
N3    O9    1.301064 A    
C37   C41   1.426273 A    
O5    Zn1   1.981188 S    
Zn2   N1    2.035869 S    
N6    O15   1.301461 A    
C6    C8    1.543445 S    
C41   C42   1.416718 A    
C45   C47   1.532655 S    
C46   C49   1.532726 S    
C34   H15   1.082113 S    
