data_mof_unit_5979.cif
_audit_creation_date              2013-03-05T16:48:16-0500
_audit_creation_method            fapswitch 2.2
_symmetry_space_group_name_H-M    P1
_symmetry_Int_Tables_number       1
_space_group_crystal_system       triclinic
_cell_length_a                    23.398483
_cell_length_b                    8.916323
_cell_length_c                    8.09257
_cell_angle_alpha                 90.140155
_cell_angle_beta                  90.000822
_cell_angle_gamma                 89.999849
_cell_volume                      1688.3351396

loop_
_atom_site_label
_atom_site_type_symbol
_atom_site_description
_atom_site_fract_x
_atom_site_fract_y
_atom_site_fract_z
_atom_type_partial_charge
O1    O     O_R   0.500000 0.285350 0.636850 -0.614676
O2    O     O_R   0.500000 0.714650 0.363150 -0.614675
O3    O     O_R   0.500000 0.714650 0.636850 -0.605142
O4    O     O_R   0.500000 0.285350 0.363150 -0.605140
H1    H     H_    0.948091 0.358493 0.888353 0.202491
H2    H     H_    0.051910 0.641390 0.111621 0.202493
H3    H     H_    0.948083 0.641451 0.111646 0.202494
H4    H     H_    0.051917 0.358529 0.888366 0.202494
C1    C     C_R   0.500001 0.217963 0.499894 0.953523
C2    C     C_R   0.500001 0.782037 0.500105 0.953522
O5    O     O_R   0.416160 0.500000 0.636910 -0.601496
O6    O     O_R   0.583840 0.500000 0.363090 -0.601496
O7    O     O_R   0.583840 0.500000 0.636910 -0.601498
O8    O     O_R   0.416160 0.500000 0.363090 -0.601496
C3    C     C_R   0.208629 0.499971 0.499997 0.107646
C4    C     C_R   0.791371 0.499985 0.500008 0.107638
C5    C     C_R   0.389207 0.499999 0.499999 0.953304
C6    C     C_R   0.610793 0.500000 0.500001 0.953283
Zn1   Zn    Zn3+2 0.500000 0.500000 0.682780 1.058003
Zn2   Zn    Zn3+2 0.500000 0.500000 0.317220 1.058005
C7    C     C_R   0.297758 0.623020 0.568454 0.076529
C8    C     C_R   0.702238 0.376986 0.431464 0.076534
C9    C     C_R   0.297763 0.376953 0.431538 0.076527
C10   C     C_R   0.702240 0.622998 0.568547 0.076536
C11   C     C_R   0.327291 0.499991 0.499996 -0.217214
C12   C     C_R   0.672709 0.499995 0.500004 -0.217225
C13   C     C_R   0.880400 0.551358 0.363377 0.571648
C14   C     C_R   0.119601 0.448654 0.636648 0.571665
C15   C     C_R   0.880402 0.448601 0.636631 0.571646
C16   C     C_R   0.119599 0.551268 0.363339 0.571658
N1    N     N_R   0.852201 0.499983 0.500006 -0.341759
N2    N     N_R   0.147799 0.499962 0.499994 -0.341755
C17   C     C_R   0.940049 0.448325 0.639996 -0.027979
C18   C     C_R   0.059952 0.551574 0.359985 -0.027978
C19   C     C_R   0.940046 0.551622 0.360005 -0.027978
C20   C     C_R   0.059954 0.448346 0.640003 -0.027978
C21   C     C_R   0.969987 0.499970 0.499999 -0.010830
C22   C     C_R   0.030014 0.499962 0.499995 -0.010830
C23   C     C_R   0.970259 0.397966 0.779193 -0.148350
C24   C     C_R   0.029741 0.601938 0.220790 -0.148364
C25   C     C_R   0.970254 0.601973 0.220804 -0.148344
C26   C     C_R   0.029746 0.397986 0.779200 -0.148358
C27   C     C_1   0.500002 0.065208 0.499851 -0.117392
C28   C     C_1   0.500002 0.934792 0.500149 -0.117394
C29   C     C_R   0.237960 0.622811 0.567870 0.190022
C30   C     C_R   0.762036 0.377186 0.432034 0.190003
C31   C     C_R   0.237965 0.377142 0.432125 0.190025
C32   C     C_R   0.762039 0.622788 0.567980 0.190000
N3    N     N_1   0.500000 0.500000 0.073640 -0.004679
N4    N     N_1   0.500000 0.500000 0.926360 -0.004679
O9    O     O_2   0.850608 0.601615 0.231747 -0.500196
O10   O     O_2   0.149393 0.398506 0.768322 -0.500179
O11   O     O_2   0.850612 0.398343 0.768262 -0.500195
O12   O     O_2   0.149389 0.601423 0.231667 -0.500178
I1    I     I_    0.190060 0.806503 0.666837 -0.141107
I2    I     I_    0.809930 0.193537 0.332899 -0.141050
I3    I     I_    0.190073 0.193433 0.333167 -0.141102
I4    I     I_    0.809937 0.806430 0.667116 -0.141058
I5    I     I_    0.343627 0.811387 0.666149 -0.201979
I6    I     I_    0.656364 0.188647 0.333695 -0.201979
I7    I     I_    0.343639 0.188603 0.333835 -0.201989
I8    I     I_    0.656370 0.811343 0.666317 -0.201971

loop_
_geom_bond_atom_site_label_1
_geom_bond_atom_site_label_2
_geom_bond_distance
_ccdc_geom_bond_type
C32   I4    2.138773 S    
C27   C28   1.162839 T    
O3    Zn1   1.950539 S    
C21   C22   1.404548 A    
O4    Zn2   1.950540 S    
O8    Zn2   1.996548 S    
C31   I3    2.138625 S    
C14   O10   1.350419 S    
C20   C26   1.404507 A    
C6    C12   1.448729 S    
C9    I7    2.142719 S    
C8    I6    2.142813 S    
C5    C11   1.448726 S    
C13   C19   1.395905 A    
C4    C32   1.403429 A    
C20   C22   1.410267 A    
C1    C27   1.362015 S    
C3    N2    1.423330 S    
C15   N1    1.367552 A    
O3    C2    1.260500 A    
C17   C23   1.404513 A    
C4    N1    1.423332 S    
C16   N2    1.367518 A    
C16   O12   1.350427 S    
O8    C5    1.274870 A    
O5    Zn1   1.996538 S    
Zn2   N3    1.971188 S    
C15   O11   1.350466 S    
O7    C6    1.274871 A    
C18   C24   1.404521 A    
C24   C25   1.391913 A    
C8    C30   1.399198 A    
H4    C26   1.083899 S    
C7    I5    2.142721 S    
C23   C26   1.391910 A    
C7    C29   1.399199 A    
C9    C11   1.408834 A    
C13   N1    1.367549 A    
C4    C30   1.403426 A    
C19   C25   1.404503 A    
Zn1   N4    1.971188 S    
O1    Zn1   1.948755 S    
C9    C31   1.399196 A    
C16   C18   1.395909 A    
C2    C28   1.362015 S    
C10   C32   1.399201 A    
C15   C17   1.395910 A    
C14   N2    1.367513 A    
H2    C24   1.083891 S    
O1    C1    1.259416 A    
C29   I1    2.138639 S    
C17   C21   1.410276 A    
N3    N4    1.191873 T    
C8    C12   1.408912 A    
O6    C6    1.274873 A    
H1    C23   1.083899 S    
C7    C11   1.408835 A    
C3    C31   1.403339 A    
C14   C20   1.395903 A    
O7    Zn1   1.996546 S    
C10   I8    2.142817 S    
C19   C21   1.410284 A    
O4    C1    1.260500 A    
C18   C22   1.410261 A    
O2    Zn2   1.948754 S    
O6    Zn2   1.996535 S    
O2    C2    1.259416 A    
O5    C5    1.274871 A    
C10   C12   1.408905 A    
H3    C25   1.083910 S    
C13   O9    1.350464 S    
C3    C29   1.403344 A    
C30   I2    2.138781 S    
