data_mof_unit_6312.cif
_audit_creation_date              2013-03-05T15:43:29-0500
_audit_creation_method            fapswitch 2.2
_symmetry_space_group_name_H-M    P1
_symmetry_Int_Tables_number       1
_space_group_crystal_system       triclinic
_cell_length_a                    14.225627
_cell_length_b                    16.724948
_cell_length_c                    7.078331
_cell_angle_alpha                 90.002451
_cell_angle_beta                  80.713915
_cell_angle_gamma                 90.00018
_cell_volume                      1662.02663899

loop_
_atom_site_label
_atom_site_type_symbol
_atom_site_description
_atom_site_fract_x
_atom_site_fract_y
_atom_site_fract_z
_atom_type_partial_charge
O1    O     O_R   0.337460 0.413110 0.524760 -0.580901
O2    O     O_R   0.662540 0.913110 0.475240 -0.580966
O3    O     O_R   0.348690 0.587910 0.191230 -0.573073
O4    O     O_R   0.651310 0.087910 0.808770 -0.573063
O5    O     O_R   0.166530 0.586890 0.082470 -0.577875
O6    O     O_R   0.833470 0.086890 0.917530 -0.577857
C1    C     C_R   0.371432 0.614464 0.354346 0.871666
C2    C     C_R   0.628600 0.114487 0.645659 0.871595
O7    O     O_R   0.348700 0.413830 0.191250 -0.503329
O8    O     O_R   0.651300 0.913830 0.808750 -0.503369
O9    O     O_R   0.166530 0.411570 0.082490 -0.525311
O10   O     O_R   0.833470 0.911570 0.917510 -0.525279
C3    C     C_R   0.371873 0.385992 0.355698 0.922994
C4    C     C_R   0.628147 0.885979 0.644287 0.923012
O11   O     O_R   0.337460 0.588430 0.524740 -0.542282
O12   O     O_R   0.662540 0.088430 0.475260 -0.542847
O13   O     O_3   0.192230 0.499460 0.407330 -0.296243
O14   O     O_3   0.807770 0.999460 0.592670 -0.296167
V1    V     V_3+5 0.263080 0.500100 0.108540 1.194217
V2    V     V_3+5 0.736920 0.000100 0.891460 1.193969
O15   O     O_R   0.155290 0.412090 0.756570 -0.590091
O16   O     O_R   0.844710 0.912090 0.243430 -0.590072
C5    C     C_R   0.133988 0.383131 0.931823 0.822789
C6    C     C_R   0.866011 0.883131 0.068175 0.822831
O17   O     O_R   0.155290 0.586170 0.756550 -0.585288
O18   O     O_R   0.844710 0.086170 0.243450 -0.585265
C7    C     C_R   0.130289 0.613166 0.932735 0.742298
C8    C     C_R   0.869710 0.113167 0.067268 0.742313
V3    V     V_3+5 0.240910 0.499900 0.616030 1.155772
V4    V     V_3+5 0.759090 0.999900 0.383970 1.155475
O19   O     O_3   0.311760 0.500540 0.867100 -0.259115
O20   O     O_3   0.688240 0.000540 0.132900 -0.259495
C9    C     C_3   0.084383 0.744150 0.120408 -0.135122
C10   C     C_3   0.915612 0.244148 0.879602 -0.135021
H1    H     H_    0.059552 0.711509 0.246890 0.018279
H2    H     H_    0.940443 0.211507 0.753114 0.018268
C11   C     C_3   0.024156 0.824152 0.141755 -0.051016
C12   C     C_3   0.975837 0.324152 0.858263 -0.051011
C13   C     C_3   0.946474 0.652187 0.036424 -0.014989
C14   C     C_3   0.053522 0.152186 0.963562 -0.015041
C15   C     C_3   0.060746 0.735647 0.776296 -0.030228
C16   C     C_3   0.939255 0.235650 0.223708 -0.030184
C17   C     C_3   0.056728 0.683549 0.963218 -0.126796
C18   C     C_3   0.943269 0.183550 0.036784 -0.126778
C19   C     C_3   0.933647 0.809853 0.038372 -0.115915
C20   C     C_3   0.066350 0.309853 0.961627 -0.115890
C21   C     C_3   0.875714 0.728096 0.101612 -0.009762
C22   C     C_3   0.124280 0.228094 0.898368 -0.009890
C23   C     C_3   0.976415 0.799377 0.818639 -0.160764
C24   C     C_3   0.023590 0.299378 0.181365 -0.160761
H3    H     H_    0.998225 0.858046 0.755324 0.145251
H4    H     H_    0.001783 0.358047 0.244699 0.145241
H5    H     H_    0.917653 0.782187 0.743169 0.166493
H6    H     H_    0.082354 0.282183 0.256821 0.166498
C25   C     C_2   0.434124 0.684921 0.352055 -0.190819
C26   C     C_2   0.565923 0.184955 0.647987 -0.190894
C27   C     C_2   0.496351 0.697349 0.478132 -0.086314
C28   C     C_2   0.503823 0.197425 0.521694 -0.086518
C29   C     C_2   0.558497 0.817259 0.642540 -0.170935
C30   C     C_2   0.441607 0.317330 0.357391 -0.171164
C31   C     C_2   0.548561 0.775521 0.476232 -0.099797
C32   C     C_2   0.451537 0.275561 0.523646 -0.099555
H7    H     H_    0.421547 0.732225 0.254087 0.108478
H8    H     H_    0.578404 0.232211 0.746163 0.108412
C33   C     C_2   0.901915 0.602683 0.888439 0.433721
H9    H     H_    0.873106 0.544726 0.926142 0.036185
O21   O     O_2   0.877959 0.631232 0.744758 -0.597955
C34   C     C_2   0.098088 0.102686 0.111534 0.433732
H10   H     H_    0.126902 0.044729 0.073816 0.036231
O22   O     O_2   0.122046 0.131238 0.255215 -0.597889
C35   C     C_2   0.782435 0.722646 0.014013 0.512609
H11   H     H_    0.734879 0.672240 0.052616 0.009722
O23   O     O_2   0.759330 0.770577 0.900166 -0.593260
C36   C     C_2   0.217564 0.222645 0.985948 0.512632
H12   H     H_    0.265116 0.172236 0.947341 0.009966
O24   O     O_2   0.240679 0.270582 0.099783 -0.593141
C37   C     C_3   0.590251 0.804646 0.276977 -0.194161
H13   H     H_    0.578325 0.762161 0.163049 0.100616
H14   H     H_    0.557798 0.862877 0.248873 0.201915
H15   H     H_    0.667890 0.810467 0.259247 0.107102
C38   C     C_3   0.409745 0.304616 0.722914 -0.193971
H16   H     H_    0.421665 0.262127 0.836831 0.100678
H17   H     H_    0.442117 0.362865 0.751161 0.201979
H18   H     H_    0.332106 0.310380 0.740519 0.106933
C39   C     C_2   0.529925 0.631754 0.594070 0.538377
H19   H     H_    0.571488 0.646326 0.705285 -0.010354
O25   O     O_2   0.517450 0.561310 0.559971 -0.545827
C40   C     C_2   0.470468 0.131829 0.405484 0.539903
H20   H     H_    0.429812 0.146389 0.292887 -0.011177
O26   O     O_2   0.482047 0.061402 0.440951 -0.546047
C41   C     C_2   0.492560 0.799464 0.823193 0.509394
H21   H     H_    0.452397 0.744200 0.841883 -0.005451
O27   O     O_2   0.477561 0.849319 0.950272 -0.544642
C42   C     C_2   0.507679 0.299677 0.176813 0.509201
H22   H     H_    0.548164 0.244587 0.158304 -0.005181
O28   O     O_2   0.522428 0.349479 0.049606 -0.544762
C43   C     C_2   0.190076 0.752998 0.137250 0.510027
H23   H     H_    0.221167 0.713311 0.230988 0.017774
O29   O     O_2   0.242443 0.802428 0.047853 -0.574670
C44   C     C_2   0.809920 0.252995 0.862762 0.509906
H24   H     H_    0.778830 0.213308 0.769016 0.017766
O30   O     O_2   0.757551 0.302426 0.952168 -0.574898
C45   C     C_3   0.080202 0.898649 0.052459 -0.272984
H25   H     H_    0.140673 0.914116 0.126849 0.213300
H26   H     H_    0.110454 0.896808 0.901322 0.154062
H27   H     H_    0.029981 0.949351 0.070693 0.037783
C46   C     C_3   0.919792 0.398647 0.947583 -0.273030
H28   H     H_    0.859317 0.414113 0.873204 0.213271
H29   H     H_    0.889546 0.396808 0.098723 0.154047
H30   H     H_    0.970013 0.449348 0.929355 0.037798
C47   C     C_2   0.997816 0.847784 0.353440 0.546452
H31   H     H_    0.935334 0.825992 0.441477 -0.005879
O31   O     O_2   0.042925 0.897949 0.426977 -0.545392
C48   C     C_2   0.002172 0.347785 0.646582 0.546511
H32   H     H_    0.064641 0.325977 0.558527 -0.005931
O32   O     O_2   0.957080 0.397968 0.573071 -0.545405
C49   C     C_3   0.947135 0.589287 0.201230 -0.414172
H33   H     H_    0.976974 0.610199 0.325221 0.154694
H34   H     H_    0.874170 0.566924 0.255459 0.149089
H35   H     H_    0.990665 0.536391 0.150752 0.109464
C50   C     C_3   0.052854 0.089280 0.798758 -0.414133
H36   H     H_    0.022994 0.110182 0.674786 0.154679
H37   H     H_    0.125820 0.066924 0.744498 0.149195
H38   H     H_    0.009338 0.036380 0.849252 0.109456
C51   C     C_3   0.831392 0.725121 0.318211 -0.479125
H39   H     H_    0.881294 0.709417 0.411080 0.167808
H40   H     H_    0.797111 0.781693 0.371095 0.134424
H41   H     H_    0.775797 0.678017 0.350073 0.127144
C52   C     C_3   0.168590 0.225114 0.681764 -0.479111
H42   H     H_    0.118687 0.209389 0.588915 0.167817
H43   H     H_    0.202844 0.281691 0.628860 0.134443
H44   H     H_    0.224201 0.178022 0.649889 0.127410
C53   C     C_3   0.052740 0.685431 0.596714 -0.260442
H45   H     H_    0.031922 0.622557 0.617351 0.175544
H46   H     H_    0.001053 0.713179 0.525217 0.077777
H47   H     H_    0.120631 0.679333 0.495883 0.072860
C54   C     C_3   0.947260 0.185434 0.403279 -0.260458
H48   H     H_    0.968086 0.122562 0.382631 0.175537
H49   H     H_    0.998938 0.213188 0.474786 0.077761
H50   H     H_    0.879368 0.179332 0.504104 0.072889
C55   C     C_2   0.158951 0.774038 0.718470 0.523195
H51   H     H_    0.221760 0.742941 0.748220 0.033320
O33   O     O_2   0.171100 0.831663 0.611591 -0.531844
C56   C     C_2   0.841052 0.274044 0.281546 0.523156
H52   H     H_    0.778241 0.242949 0.251791 0.033184
O34   O     O_2   0.828906 0.331667 0.388445 -0.531949

loop_
_geom_bond_atom_site_label_1
_geom_bond_atom_site_label_2
_geom_bond_distance
_ccdc_geom_bond_type
C28   C32   1.502641 S    
C46   H29   1.087210 S    
C47   H31   1.064172 S    
C1    C25   1.476337 S    
O4    C2    1.324904 A    
V1    O19   1.737333 S    
C2    C26   1.476338 S    
C15   C53   1.542973 S    
C43   H23   1.082219 S    
C3    C30   1.518825 S    
C39   H19   1.085770 S    
C14   C50   1.572033 S    
C54   H49   1.064035 S    
O9    V1    2.048049 S    
C24   H6    1.100412 S    
C36   O24   1.218848 D    
C6    C19   1.551382 S    
C38   H16   1.108198 S    
C52   H42   1.074996 S    
O3    C1    1.324951 A    
C49   H34   1.111788 S    
C12   C48   1.536401 S    
O12   V4    2.051795 S    
O13   V3    1.729748 S    
C30   C32   1.395193 D    
O10   C6    1.318035 A    
C19   C21   1.621822 S    
C12   C46   1.557238 S    
O7    C3    1.343225 A    
C50   H38   1.105606 S    
C38   H17   1.109429 S    
O5    C7    1.326141 A    
O7    V1    2.034288 S    
O6    C8    1.326120 A    
C27   C31   1.502645 S    
O8    V2    2.034248 S    
C34   H10   1.069361 S    
C33   O21   1.220800 D    
C25   H7    1.085770 S    
C53   H47   1.109088 S    
C10   C44   1.534467 S    
C46   H28   1.109220 S    
C26   H8    1.085751 S    
O3    V1    2.052452 S    
O14   V4    1.729748 S    
C9    C43   1.534476 S    
C52   H44   1.113300 S    
C37   H14   1.109443 S    
C2    O12   1.299933 A    
C5    C20   1.551406 S    
C16   C54   1.542963 S    
C15   C17   1.577585 S    
C16   C18   1.577563 S    
C15   C23   1.596588 S    
C43   O29   1.219330 D    
O11   V3    2.051827 S    
C39   O25   1.221325 D    
O17   V3    2.040491 S    
C21   C51   1.561610 S    
C20   C22   1.621827 S    
C29   C31   1.395226 D    
C12   C20   1.598270 S    
C36   H12   1.087850 S    
C9    C17   1.600360 S    
C22   C36   1.555347 S    
C10   C18   1.600375 S    
C56   O34   1.220224 D    
O8    C4    1.343256 A    
C49   H35   1.105599 S    
C31   C37   1.519316 S    
C41   H21   1.083437 S    
C11   C45   1.557245 S    
O13   V1    2.191112 S    
C13   C17   1.655703 S    
C1    O11   1.299909 A    
C23   H3    1.102311 S    
C37   H13   1.108193 S    
O15   V3    2.058893 S    
C8    C18   1.566658 S    
C9    C11   1.582854 S    
C15   C55   1.531984 S    
C4    C29   1.518810 S    
C51   H40   1.101924 S    
C41   O27   1.219798 D    
C24   H4    1.102317 S    
C19   C23   1.585720 S    
O10   V2    2.048066 S    
O1    V3    2.030865 S    
C47   O31   1.222466 D    
C25   C27   1.370448 D    
C29   C41   1.488788 S    
C42   O28   1.219684 D    
C21   C35   1.555349 S    
C50   H36   1.092240 S    
C16   C24   1.596601 S    
C32   C38   1.519335 S    
C40   O26   1.221044 D    
O18   V4    2.040544 S    
O15   C5    1.320598 A    
C16   C56   1.531982 S    
C53   H45   1.095838 S    
C45   H26   1.087217 S    
O16   C6    1.320572 A    
C22   C52   1.561604 S    
O1    C3    1.299342 A    
C11   C19   1.598284 S    
C38   H18   1.095553 S    
C13   C21   1.639522 S    
C44   O30   1.219329 D    
V2    O20   1.737333 S    
C37   H15   1.095595 S    
C14   C22   1.639529 S    
C20   C24   1.585743 S    
O16   V4    2.058838 S    
C10   C12   1.582858 S    
C56   H52   1.083474 S    
C28   C40   1.493733 S    
C48   O32   1.222471 D    
C48   H32   1.064161 S    
O5    V1    2.027156 S    
O17   C7    1.319999 A    
O6    V2    2.027139 S    
C54   H48   1.095837 S    
C13   C33   1.548795 S    
O18   C8    1.320019 A    
O2    V4    2.030899 S    
C55   O33   1.220222 D    
C35   H11   1.087850 S    
V3    O19   2.179974 S    
C13   C49   1.572029 S    
C49   H33   1.092231 S    
V4    O20   2.179977 S    
C9    H1    1.059391 S    
C51   H39   1.075018 S    
C51   H41   1.113300 S    
C23   H5    1.100406 S    
C54   H50   1.109091 S    
O9    C5    1.318023 A    
C44   H24   1.082216 S    
C46   H30   1.102890 S    
C10   H2    1.059392 S    
C26   C28   1.370371 D    
C45   H27   1.102897 S    
O14   V2    2.191109 S    
C42   H22   1.083253 S    
O2    C4    1.299302 A    
C50   H37   1.111787 S    
O4    V2    2.052493 S    
C7    C17   1.566660 S    
C14   C18   1.655700 S    
C11   C47   1.536396 S    
C40   H20   1.085250 S    
C34   O22   1.220799 D    
C33   H9    1.069350 S    
C14   C34   1.548794 S    
C35   O23   1.218850 D    
C45   H25   1.109221 S    
C53   H46   1.064074 S    
C55   H51   1.083474 S    
C27   C39   1.493895 S    
C52   H43   1.101913 S    
C30   C42   1.488837 S    
