data_mof_unit_18234.cif
_audit_creation_date              2012-12-10T19:15:42-0500
_audit_creation_method            fapswitch 2.2
_symmetry_space_group_name_H-M    P1
_symmetry_Int_Tables_number       1
_space_group_crystal_system       triclinic
_cell_length_a                    15.972282
_cell_length_b                    14.740108
_cell_length_c                    14.988268
_cell_angle_alpha                 89.944511
_cell_angle_beta                  88.230881
_cell_angle_gamma                 89.726791
_cell_volume                      3527.01204455

loop_
_atom_site_label
_atom_site_type_symbol
_atom_type_description
_atom_site_fract_x
_atom_site_fract_y
_atom_site_fract_z
_atom_type_partial_charge
C1    C     C_R   0.340940 0.500150 0.499437 0.844395
C2    C     C_R   0.658933 0.499778 0.501663 0.842388
C3    C     C_R   0.347508 0.500183 0.054738 0.004033
C4    C     C_R   0.653137 0.512384 0.944992 0.001667
C5    C     C_R   0.954702 0.581620 0.514644 -0.059406
C6    C     C_R   0.044244 0.415388 0.503662 -0.060503
C7    C     C_R   0.042950 0.581816 0.512959 -0.057356
C8    C     C_R   0.955887 0.415023 0.509562 -0.061604
C9    C     C_R   0.911863 0.498284 0.511847 0.023889
C10   C     C_R   0.087118 0.498842 0.506601 0.022960
C11   C     C_1   0.822078 0.498540 0.510646 -0.035155
C12   C     C_1   0.177088 0.499720 0.501787 -0.029163
C13   C     C_1   0.252070 0.500278 0.499907 -0.154810
C14   C     C_1   0.747385 0.499157 0.506857 -0.166196
C15   C     C_R   0.518270 0.951608 0.579464 0.332367
C16   C     C_R   0.493632 0.048479 0.420360 0.299733
C17   C     C_R   0.498158 0.952318 0.419187 0.332155
C18   C     C_R   0.518816 0.047996 0.579479 0.317014
C19   C     C_R   0.505907 0.902917 0.499517 -0.302741
C20   C     C_R   0.504915 0.097201 0.500085 -0.292905
C21   C     C_1   0.501923 0.802676 0.499782 0.262856
C22   C     C_1   0.501805 0.197349 0.500094 0.245402
C23   C     C_R   0.503929 0.499919 0.328544 0.878309
C24   C     C_R   0.496551 0.499850 0.671431 0.879980
C25   C     C_R   0.571583 0.511653 0.809041 -0.348861
C26   C     C_R   0.428563 0.506047 0.190692 -0.331373
C27   C     C_R   0.495934 0.499211 0.767595 -0.142373
C28   C     C_R   0.504847 0.499582 0.232286 -0.148218
C29   C     C_R   0.421449 0.484213 0.817038 0.400233
C30   C     C_R   0.580351 0.490663 0.182850 0.396620
C31   C     C_R   0.422059 0.494337 0.910489 -0.002952
C32   C     C_R   0.579152 0.500627 0.089342 -0.002884
C33   C     C_R   0.499693 0.501323 0.953083 0.012532
C34   C     C_R   0.501274 0.501453 0.046705 0.009517
C35   C     C_R   0.575626 0.507647 0.901957 0.078836
C36   C     C_R   0.425062 0.501713 0.097785 0.077953
C37   C     C_R   0.346979 0.497221 0.961665 -0.260815
C38   C     C_R   0.653852 0.509306 0.038146 -0.260782
Cu1   Cu    Cu3+1 0.500000 0.589220 0.500000 0.989326
Cu2   Cu    Cu3+1 0.500000 0.410780 0.500000 0.953271
H1    H     H_    0.627137 0.522645 0.767337 0.167902
H2    H     H_    0.372163 0.512892 0.232152 0.168496
H3    H     H_    0.287219 0.495788 0.929346 0.174627
H4    H     H_    0.713499 0.512645 0.070548 0.175385
N1    N     N_1   0.500000 0.276710 0.500000 -0.177096
N2    N     N_1   0.500000 0.723290 0.500000 -0.168850
O1    O     O_R   0.380310 0.575320 0.500020 -0.561295
O2    O     O_R   0.619690 0.424680 0.499980 -0.586713
O3    O     O_R   0.619690 0.575320 0.499980 -0.573893
O4    O     O_R   0.380310 0.424680 0.500020 -0.585040
O5    O     O_R   0.499980 0.575350 0.370250 -0.571264
O6    O     O_R   0.500020 0.424650 0.629750 -0.595244
O7    O     O_R   0.500020 0.575350 0.629750 -0.582296
O8    O     O_R   0.499980 0.424650 0.370250 -0.595199
O9    O     O_3   0.348303 0.466455 0.772425 -0.628541
C39   C     C_3   0.321049 0.376298 0.789691 -0.000651
H5    H     H_    0.252375 0.374596 0.780108 0.164665
H6    H     H_    0.330784 0.353463 0.859471 0.143570
C40   C     C_3   0.363140 0.308567 0.724885 -0.325585
H7    H     H_    0.349739 0.328226 0.655179 0.243396
H8    H     H_    0.431891 0.308838 0.733636 0.232298
C41   C     C_3   0.331743 0.212356 0.742196 -0.909992
H9    H     H_    0.349507 0.189340 0.809653 0.263692
H10   H     H_    0.360469 0.165558 0.691816 0.284473
H11   H     H_    0.262540 0.209622 0.737555 0.239616
O10   O     O_3   0.654447 0.477599 0.227455 -0.630687
C42   C     C_3   0.686767 0.389032 0.210639 -0.001130
H12   H     H_    0.754836 0.390309 0.223739 0.164479
H13   H     H_    0.681382 0.367128 0.139989 0.145813
C43   C     C_3   0.645305 0.318298 0.272446 -0.317049
H14   H     H_    0.655755 0.336683 0.343066 0.241661
H15   H     H_    0.576943 0.316408 0.261341 0.231060
C44   C     C_3   0.680831 0.223625 0.254207 -0.938297
H16   H     H_    0.666119 0.201588 0.185612 0.261546
H17   H     H_    0.652242 0.174840 0.302557 0.271964
H18   H     H_    0.749828 0.223012 0.261387 0.244905
C45   C     C_R   0.266063 0.497268 0.105038 0.110240
C46   C     C_R   0.207531 0.567921 0.096722 -0.145306
C47   C     C_R   0.131737 0.565959 0.146082 -0.136077
C48   C     C_R   0.113710 0.493300 0.203473 -0.105845
C49   C     C_R   0.171137 0.422099 0.211015 -0.132353
C50   C     C_R   0.246829 0.423756 0.161696 -0.172940
H19   H     H_    0.221105 0.624917 0.053055 0.129462
H20   H     H_    0.087114 0.620956 0.140116 0.123600
H21   H     H_    0.055260 0.492105 0.241998 0.120449
H22   H     H_    0.157185 0.365752 0.255205 0.136329
H23   H     H_    0.291146 0.368621 0.168472 0.140909
C51   C     C_R   0.734514 0.517553 0.894540 0.106585
C52   C     C_R   0.786484 0.593378 0.903593 -0.163361
C53   C     C_R   0.860929 0.600353 0.852355 -0.134652
C54   C     C_R   0.884455 0.531308 0.792643 -0.102853
C55   C     C_R   0.834026 0.454712 0.784739 -0.129108
C56   C     C_R   0.759657 0.447477 0.835900 -0.169717
H24   H     H_    0.768321 0.647953 0.948600 0.130760
H25   H     H_    0.900081 0.659615 0.858454 0.121159
H26   H     H_    0.941749 0.537097 0.752568 0.118454
H27   H     H_    0.852266 0.401208 0.738609 0.135042
H28   H     H_    0.720633 0.388325 0.828615 0.138856
C57   C     C_R   0.089252 0.669067 0.513885 0.128706
C58   C     C_R   0.137050 0.692340 0.587488 -0.152158
C59   C     C_R   0.181146 0.774066 0.587825 -0.118629
C60   C     C_R   0.177642 0.833051 0.514929 -0.100281
C61   C     C_R   0.130067 0.810358 0.441536 -0.130152
C62   C     C_R   0.086058 0.728587 0.440825 -0.120839
H29   H     H_    0.140041 0.647207 0.644385 0.127859
H30   H     H_    0.218027 0.791683 0.644601 0.138141
H31   H     H_    0.211804 0.896299 0.515287 0.122228
H32   H     H_    0.127447 0.856051 0.385110 0.125048
H33   H     H_    0.049775 0.711430 0.383397 0.119495
C63   C     C_R   0.910137 0.327566 0.520242 0.131344
C64   C     C_R   0.924177 0.272633 0.595081 -0.140665
C65   C     C_R   0.881383 0.190780 0.606540 -0.133181
C66   C     C_R   0.823633 0.163459 0.543975 -0.117081
C67   C     C_R   0.809126 0.217636 0.469463 -0.138963
C68   C     C_R   0.852581 0.299103 0.457022 -0.141859
H34   H     H_    0.968085 0.293468 0.644674 0.117813
H35   H     H_    0.892703 0.148756 0.664206 0.125256
H36   H     H_    0.790157 0.100301 0.553193 0.104132
H37   H     H_    0.764206 0.196239 0.421453 0.134895
H38   H     H_    0.841276 0.339969 0.398476 0.121975
C69   C     C_R   0.907044 0.668394 0.522998 0.128203
C70   C     C_R   0.858713 0.699735 0.452417 -0.142105
C71   C     C_R   0.813410 0.780872 0.460939 -0.129590
C72   C     C_R   0.816527 0.831484 0.539567 -0.124382
C73   C     C_R   0.864644 0.800832 0.609957 -0.136960
C74   C     C_R   0.909554 0.719426 0.601968 -0.119085
H39   H     H_    0.856174 0.661284 0.391027 0.126309
H40   H     H_    0.775989 0.804587 0.406552 0.118718
H41   H     H_    0.781618 0.894394 0.545989 0.101165
H42   H     H_    0.866836 0.839969 0.670889 0.120712
H43   H     H_    0.946141 0.696053 0.657204 0.115513
C75   C     C_R   0.091152 0.328912 0.487782 0.135664
C76   C     C_R   0.076731 0.277728 0.410712 -0.139913
C77   C     C_R   0.120742 0.196955 0.394501 -0.146253
C78   C     C_R   0.179934 0.166901 0.454629 -0.117943
C79   C     C_R   0.194782 0.217307 0.531366 -0.134585
C80   C     C_R   0.150256 0.297728 0.548443 -0.143732
H44   H     H_    0.031737 0.300764 0.362943 0.116748
H45   H     H_    0.109384 0.157991 0.334954 0.130374
H46   H     H_    0.214375 0.104622 0.441693 0.111555
H47   H     H_    0.240853 0.193867 0.577469 0.136005
H48   H     H_    0.161949 0.335712 0.608584 0.122184
O11   O     O_3   0.526558 0.093201 0.659629 -0.575600
C81   C     C_3   0.609786 0.124126 0.666059 0.080785
H49   H     H_    0.623075 0.179378 0.617122 0.145134
H50   H     H_    0.655778 0.068160 0.653706 0.104318
C82   C     C_3   0.621522 0.161444 0.759839 -0.299316
H51   H     H_    0.577943 0.219514 0.771891 0.217335
H52   H     H_    0.606472 0.107665 0.809775 0.226414
C83   C     C_3   0.711255 0.193096 0.771904 -0.959426
H53   H     H_    0.755681 0.135607 0.761560 0.252296
H54   H     H_    0.717797 0.219252 0.840754 0.253571
H55   H     H_    0.727243 0.248143 0.723720 0.266359
O12   O     O_3   0.487872 0.907349 0.339215 -0.586966
C84   C     C_3   0.566378 0.875275 0.305420 0.090017
H56   H     H_    0.554171 0.815728 0.262408 0.173604
H57   H     H_    0.608526 0.850763 0.358445 0.105761
C85   C     C_3   0.610705 0.948149 0.248548 -0.321497
H58   H     H_    0.567708 0.973566 0.197124 0.241739
H59   H     H_    0.628073 0.005837 0.291694 0.224238
C86   C     C_3   0.690151 0.910815 0.202584 -0.953009
H60   H     H_    0.734491 0.886206 0.252995 0.252152
H61   H     H_    0.721015 0.965337 0.162576 0.261504
H62   H     H_    0.674703 0.854116 0.157270 0.261751
O13   O     O_3   0.483280 0.094874 0.341232 -0.598780
C87   C     C_3   0.396859 0.109446 0.329882 0.100222
H63   H     H_    0.370580 0.154880 0.383242 0.135672
H64   H     H_    0.362109 0.043954 0.331347 0.155612
C88   C     C_3   0.384658 0.154616 0.239433 -0.311237
H65   H     H_    0.419845 0.219529 0.236243 0.220867
H66   H     H_    0.409792 0.109271 0.185657 0.224153
C89   C     C_3   0.292274 0.173806 0.224019 -0.963867
H67   H     H_    0.255165 0.110446 0.230299 0.256491
H68   H     H_    0.285011 0.201579 0.155815 0.256410
H69   H     H_    0.267732 0.224313 0.273269 0.264336
O14   O     O_3   0.522428 0.905884 0.659967 -0.564277
C90   C     C_3   0.603099 0.867280 0.668673 0.054050
H70   H     H_    0.645314 0.918242 0.697789 0.138573
H71   H     H_    0.631928 0.843555 0.604019 0.121071
C91   C     C_3   0.596415 0.786120 0.731941 -0.303585
H72   H     H_    0.573750 0.809578 0.798929 0.221909
H73   H     H_    0.550348 0.737030 0.706380 0.244988
C92   C     C_3   0.680630 0.738221 0.740638 -0.908325
H74   H     H_    0.702246 0.709708 0.675263 0.274148
H75   H     H_    0.673661 0.681871 0.789223 0.264595
H76   H     H_    0.728261 0.786090 0.765056 0.246423

loop_
_geom_bond_atom_site_label_1
_geom_bond_atom_site_label_2
_ccdc_geom_bond_type
C24   O6    A    
C7    C10   A    
Cu1   O5    S    
O9    C39   S    
O13   C87   S    
C27   C29   A    
C88   H66   S    
C44   H16   S    
C15   C18   A    
C64   C65   A    
C24   C27   S    
C80   H48   S    
C67   C68   A    
C71   H40   S    
C71   C72   A    
C45   C46   A    
C91   H72   S    
C15   C19   A    
C58   H29   S    
C59   C60   A    
C73   C74   A    
C7    C57   S    
C15   O14   S    
C3    C36   A    
C18   O11   S    
C82   H52   S    
C21   N2    T    
C92   H75   S    
C47   H20   S    
C11   C14   T    
C84   H57   S    
C50   H23   S    
C5    C69   S    
C52   H24   S    
C74   H43   S    
C39   H5    S    
C88   H65   S    
C70   H39   S    
C63   C64   A    
C55   C56   A    
C41   H10   S    
C61   C62   A    
C85   C86   S    
C17   C19   A    
C54   H26   S    
C73   H42   S    
C85   H59   S    
C82   H51   S    
C89   H68   S    
C75   C76   A    
C90   H71   S    
C83   H55   S    
C31   C33   A    
C43   H14   S    
C32   C38   A    
C1    O4    A    
C18   C20   A    
C49   H22   S    
C91   C92   S    
O10   C42   S    
C4    C35   A    
C40   H7    S    
C62   H33   S    
C84   C85   S    
C87   H64   S    
C44   H17   S    
C78   H46   S    
C43   C44   S    
C81   C82   S    
C17   O12   S    
C46   H19   S    
C65   C66   A    
C86   H61   S    
C91   H73   S    
C55   H27   S    
C86   H60   S    
Cu2   N1    S    
C40   H8    S    
C69   C70   A    
C42   H12   S    
C78   C79   A    
C82   C83   S    
C47   C48   A    
C81   H50   S    
C92   H76   S    
C25   H1    S    
C54   C55   A    
C5    C7    A    
C46   C47   A    
C16   C17   A    
C6    C8    A    
C29   O9    S    
C2    O2    A    
C24   O7    A    
Cu2   O6    S    
C49   C50   A    
C31   C37   A    
C42   H13   S    
C32   C34   A    
C85   H58   S    
C37   H3    S    
C92   H74   S    
C38   H4    S    
C48   H21   S    
C2    O3    A    
C8    C63   S    
C76   C77   A    
C23   O5    A    
C57   C58   A    
C16   O13   S    
C16   C20   A    
C90   C91   S    
C41   H9    S    
C33   C34   A    
C8    C9    A    
C60   H31   S    
C23   C28   S    
C12   C13   T    
C9    C11   S    
O12   C84   S    
C30   O10   S    
C10   C12   S    
C25   C35   A    
Cu1   N2    S    
C6    C75   S    
O14   C90   S    
Cu1   O3    S    
C4    C38   A    
C68   H38   S    
Cu2   O8    S    
C87   H63   S    
C44   H18   S    
C83   H54   S    
C1    C13   S    
C20   C22   S    
C3    C45   S    
C77   H45   S    
C86   H62   S    
C89   H67   S    
C26   H2    S    
C23   O8    A    
Cu1   O1    S    
C66   C67   A    
C26   C36   A    
C59   H30   S    
Cu2   O2    S    
C51   C56   A    
C40   C41   S    
C41   H11   S    
C19   C21   S    
C1    O1    A    
C67   H37   S    
C5    C9    A    
C48   C49   A    
C53   H25   S    
C6    C10   A    
C89   H69   S    
C77   C78   A    
C4    C51   S    
C25   C27   A    
C26   C28   A    
C39   C40   S    
C65   H35   S    
C81   H49   S    
C64   H34   S    
C42   C43   S    
C28   C30   A    
C75   C80   A    
C69   C74   A    
C29   C31   A    
C30   C32   A    
C53   C54   A    
Cu1   O7    S    
C45   C50   A    
Cu2   O4    S    
C56   H28   S    
C58   C59   A    
C33   C35   A    
C79   H47   S    
C39   H6    S    
C72   H41   S    
C57   C62   A    
C34   C36   A    
C60   C61   A    
C2    C14   S    
C66   H36   S    
Cu1   Cu2   S    
C76   H44   S    
C22   N1    T    
C51   C52   A    
C3    C37   A    
C87   C88   S    
C90   H70   S    
C84   H56   S    
C83   H53   S    
C79   C80   A    
C61   H32   S    
C43   H15   S    
C88   C89   S    
C70   C71   A    
C52   C53   A    
C63   C68   A    
O11   C81   S    
C72   C73   A    
