data_mof_unit_12444.cif
_audit_creation_date              2012-12-11T15:54:50-0500
_audit_creation_method            fapswitch 2.2
_symmetry_space_group_name_H-M    P1
_symmetry_Int_Tables_number       1
_space_group_crystal_system       triclinic
_cell_length_a                    17.56377
_cell_length_b                    24.283581
_cell_length_c                    14.890785
_cell_angle_alpha                 90.001267
_cell_angle_beta                  125.330183
_cell_angle_gamma                 89.897162
_cell_volume                      5181.41445374

loop_
_atom_site_label
_atom_site_type_symbol
_atom_type_description
_atom_site_fract_x
_atom_site_fract_y
_atom_site_fract_z
_atom_type_partial_charge
C1    C     C_R   0.938733 0.848479 0.091233 -0.160190
C2    C     C_R   0.939005 0.151608 0.091307 -0.196503
C3    C     C_R   0.438735 0.348481 0.091239 -0.160228
C4    C     C_R   0.439009 0.651609 0.091307 -0.196572
C5    C     C_R   0.097665 0.878220 0.905728 -0.135166
C6    C     C_R   0.097425 0.122686 0.906228 -0.140152
C7    C     C_R   0.597665 0.378221 0.905727 -0.135165
C8    C     C_R   0.597422 0.622689 0.906226 -0.140186
C9    C     C_R   0.190382 0.122041 0.090734 -0.158536
C10   C     C_R   0.191370 0.879888 0.089490 -0.160230
C11   C     C_R   0.690379 0.622046 0.090734 -0.158508
C12   C     C_R   0.691371 0.379890 0.089488 -0.160231
C13   C     C_R   0.293970 0.001174 0.374280 -0.090319
C14   C     C_R   0.793969 0.501174 0.374281 -0.090322
C15   C     C_R   0.930486 0.000004 0.629664 -0.009359
C16   C     C_R   0.430487 0.500004 0.629664 -0.009356
C17   C     C_R   0.187339 0.866369 0.996173 0.009812
C18   C     C_R   0.186296 0.135636 0.997345 0.011024
C19   C     C_R   0.687339 0.366371 0.996170 0.009809
C20   C     C_R   0.686286 0.635646 0.997344 0.011005
C21   C     C_3   0.875725 0.051457 0.353026 -0.410882
C22   C     C_3   0.878606 0.948188 0.354921 -0.402690
C23   C     C_3   0.375724 0.551458 0.353025 -0.410884
C24   C     C_3   0.378603 0.448189 0.354919 -0.402691
C25   C     C_3   0.876406 0.052575 0.456952 -0.402252
C26   C     C_3   0.872188 0.949101 0.453841 -0.405597
C27   C     C_3   0.376407 0.552576 0.456953 -0.402252
C28   C     C_3   0.372186 0.449102 0.453839 -0.405603
C29   C     C_3   0.030692 0.001306 0.464932 -0.413636
C30   C     C_3   0.530690 0.501306 0.464930 -0.413629
C31   C     C_3   0.930725 0.000306 0.356534 0.412913
C32   C     C_3   0.430723 0.500307 0.356532 0.412919
C33   C     C_3   0.925156 0.999988 0.527415 0.404709
C34   C     C_3   0.425156 0.499988 0.527414 0.404711
C35   C     C_R   0.848005 0.151086 0.907694 -0.136251
C36   C     C_R   0.849147 0.848751 0.907527 -0.166635
C37   C     C_R   0.348003 0.651086 0.907694 -0.136229
C38   C     C_R   0.349140 0.348751 0.907532 -0.166609
C39   C     C_3   0.027358 0.998209 0.564369 -0.388503
C40   C     C_3   0.527357 0.498208 0.564367 -0.388509
C41   C     C_3   0.778592 0.262327 0.885586 -0.413685
C42   C     C_3   0.778344 0.738070 0.885331 -0.403093
C43   C     C_3   0.278595 0.762328 0.885590 -0.413683
C44   C     C_3   0.278387 0.238054 0.885363 -0.403093
C45   C     C_3   0.235113 0.816526 0.888166 -0.403915
C46   C     C_3   0.229652 0.186084 0.886103 -0.411006
C47   C     C_3   0.735111 0.316526 0.888162 -0.403907
C48   C     C_3   0.729516 0.686140 0.886031 -0.411044
C49   C     C_3   0.397659 0.772465 0.088939 -0.445123
C50   C     C_3   0.397304 0.227629 0.088752 -0.440319
C51   C     C_3   0.897658 0.272466 0.088934 -0.445123
C52   C     C_3   0.897299 0.727621 0.088710 -0.440320
C53   C     C_3   0.752731 0.215320 0.020904 0.002630
C54   C     C_3   0.753168 0.786197 0.020024 0.001762
C55   C     C_3   0.252731 0.715318 0.020906 0.002618
C56   C     C_3   0.253149 0.286187 0.020000 0.001664
C57   C     C_3   0.826453 0.231592 0.997901 0.342461
C58   C     C_3   0.826638 0.768707 0.997410 0.338227
C59   C     C_3   0.326453 0.731591 0.997903 0.342497
C60   C     C_3   0.326645 0.268704 0.997427 0.338236
C61   C     C_3   0.240899 0.819641 0.996116 0.384194
C62   C     C_3   0.240035 0.181853 0.996785 0.375990
C63   C     C_3   0.740898 0.319642 0.996112 0.384184
C64   C     C_3   0.740023 0.681864 0.996781 0.376009
C65   C     C_3   0.345629 0.822206 0.093760 -0.417170
C66   C     C_3   0.345447 0.177151 0.090817 -0.412381
C67   C     C_3   0.845629 0.322208 0.093756 -0.417167
C68   C     C_3   0.845453 0.677117 0.090705 -0.412276
C69   C     C_3   0.195917 0.766953 0.005994 -0.452745
C70   C     C_3   0.199240 0.234741 0.012793 -0.426861
C71   C     C_3   0.695916 0.266954 0.005992 -0.452723
C72   C     C_3   0.699330 0.734746 0.012966 -0.426922
C73   C     C_3   0.448091 0.973008 0.421123 -0.397142
C74   C     C_3   0.433912 0.061816 0.495835 -0.395080
C75   C     C_3   0.948092 0.473009 0.421125 -0.397132
C76   C     C_3   0.933910 0.561814 0.495842 -0.395053
C77   C     C_R   0.730544 0.954155 0.734581 -0.140469
C78   C     C_R   0.732199 0.047198 0.734837 -0.151298
C79   C     C_R   0.230544 0.454155 0.734583 -0.140435
C80   C     C_R   0.232199 0.547197 0.734842 -0.151209
C81   C     C_3   0.552830 0.971168 0.510936 -0.400150
C82   C     C_3   0.538601 0.061830 0.581436 -0.429658
C83   C     C_3   0.052833 0.471175 0.510933 -0.400143
C84   C     C_3   0.038598 0.561829 0.581451 -0.429665
C85   C     C_3   0.418850 0.972348 0.569623 -0.410300
C86   C     C_3   0.918849 0.472345 0.569623 -0.410336
C87   C     C_3   0.395744 0.001942 0.464142 0.409788
C88   C     C_3   0.895744 0.501941 0.464144 0.409788
C89   C     C_3   0.574808 0.001988 0.614366 0.417135
C90   C     C_3   0.074808 0.501987 0.614370 0.417095
C91   C     C_3   0.524557 0.973776 0.659575 -0.413019
C92   C     C_3   0.024557 0.473766 0.659570 -0.412971
C93   C     C_R   0.975477 0.046188 0.242666 -0.150114
C94   C     C_R   0.974493 0.954319 0.241682 -0.159280
C95   C     C_R   0.475475 0.546188 0.242664 -0.150146
C96   C     C_R   0.474490 0.454320 0.241679 -0.159306
C97   C     C_R   0.875107 0.818214 0.998881 -0.000193
C98   C     C_R   0.873963 0.181535 0.999087 0.022781
C99   C     C_R   0.375107 0.318214 0.998890 -0.000176
C100  C     C_R   0.373964 0.681536 0.999088 0.022766
C101  C     C_R   0.675549 0.001249 0.697001 -0.011123
C102  C     C_R   0.175549 0.501248 0.697006 -0.011125
C103  C     C_R   0.943167 0.000374 0.266641 -0.003835
C104  C     C_R   0.443164 0.500375 0.266638 -0.003845
C105  C     C_R   0.247818 0.954904 0.310002 0.113848
C106  C     C_R   0.245735 0.046548 0.308611 0.095849
C107  C     C_R   0.747818 0.454904 0.310002 0.113850
C108  C     C_R   0.745735 0.546547 0.308612 0.095855
C109  C     C_R   0.948584 0.045732 0.693889 -0.150475
C110  C     C_R   0.948674 0.954285 0.693963 -0.147879
C111  C     C_R   0.448584 0.545732 0.693889 -0.150487
C112  C     C_R   0.448675 0.454285 0.693963 -0.147882
H1    H     H_    0.979279 0.834953 0.175948 0.087532
H2    H     H_    0.979843 0.165069 0.175927 0.090043
H3    H     H_    0.479285 0.334958 0.175955 0.087553
H4    H     H_    0.479849 0.665070 0.175928 0.090073
H5    H     H_    0.802640 0.050065 0.278014 0.154396
H6    H     H_    0.807428 0.946308 0.276652 0.150847
H7    H     H_    0.302639 0.550065 0.278014 0.154401
H8    H     H_    0.307425 0.446308 0.276650 0.150862
H9    H     H_    0.803692 0.055389 0.433196 0.149464
H10   H     H_    0.797791 0.950547 0.424399 0.152892
H11   H     H_    0.303694 0.555391 0.433199 0.149465
H12   H     H_    0.297789 0.450549 0.424398 0.152895
H13   H     H_    0.914155 0.090218 0.504460 0.146953
H14   H     H_    0.902577 0.910055 0.500241 0.142927
H15   H     H_    0.414158 0.590218 0.504462 0.146954
H16   H     H_    0.402573 0.410056 0.500239 0.142927
H17   H     H_    0.066463 0.040103 0.470068 0.162955
H18   H     H_    0.073366 0.966383 0.468048 0.151585
H19   H     H_    0.566461 0.540103 0.470066 0.162955
H20   H     H_    0.573364 0.466383 0.468044 0.151586
H21   H     H_    0.067893 0.033167 0.620688 0.152934
H22   H     H_    0.061780 0.959429 0.610498 0.155207
H23   H     H_    0.567894 0.533166 0.620687 0.152933
H24   H     H_    0.561778 0.459428 0.610494 0.155207
H25   H     H_    0.830286 0.271087 0.866911 0.158010
H26   H     H_    0.830743 0.726655 0.869063 0.156792
H27   H     H_    0.330291 0.771089 0.866919 0.158012
H28   H     H_    0.330794 0.226681 0.869080 0.156751
H29   H     H_    0.722400 0.236699 0.817443 0.144975
H30   H     H_    0.725229 0.764700 0.816288 0.142951
H31   H     H_    0.222404 0.736700 0.817444 0.144970
H32   H     H_    0.225224 0.264666 0.816317 0.142968
H33   H     H_    0.662235 0.317559 0.813561 0.142591
H34   H     H_    0.655290 0.689291 0.814831 0.144483
H35   H     H_    0.162237 0.817557 0.813565 0.142593
H36   H     H_    0.155452 0.189152 0.814808 0.144447
H37   H     H_    0.272333 0.852126 0.883156 0.160496
H38   H     H_    0.259959 0.148941 0.873997 0.158170
H39   H     H_    0.772332 0.352126 0.883151 0.160492
H40   H     H_    0.759665 0.648979 0.873741 0.158128
H41   H     H_    0.448022 0.786739 0.071385 0.170021
H42   H     H_    0.449578 0.214189 0.073588 0.168320
H43   H     H_    0.948019 0.286741 0.071377 0.170020
H44   H     H_    0.949600 0.714212 0.073567 0.168280
H45   H     H_    0.805838 0.163941 0.822593 0.078550
H46   H     H_    0.807019 0.836342 0.822221 0.090935
H47   H     H_    0.305835 0.663940 0.822592 0.078552
H48   H     H_    0.307001 0.336340 0.822227 0.090932
H49   H     H_    0.377327 0.861182 0.090794 0.158708
H50   H     H_    0.374835 0.138779 0.081261 0.158997
H51   H     H_    0.877326 0.361184 0.090790 0.158707
H52   H     H_    0.874781 0.638769 0.080971 0.159014
H53   H     H_    0.792297 0.203753 0.109638 0.113146
H54   H     H_    0.792797 0.801902 0.106189 0.109427
H55   H     H_    0.292295 0.703748 0.109637 0.113155
H56   H     H_    0.292757 0.301850 0.106194 0.109484
H57   H     H_    0.623115 0.264045 0.930632 0.157483
H58   H     H_    0.624174 0.737950 0.943272 0.162540
H59   H     H_    0.123116 0.764043 0.930634 0.157488
H60   H     H_    0.124127 0.237945 0.942953 0.162543
H61   H     H_    0.190935 0.769751 0.077116 0.145685
H62   H     H_    0.202140 0.232109 0.089394 0.136363
H63   H     H_    0.690933 0.269753 0.077113 0.145683
H64   H     H_    0.702417 0.732100 0.089684 0.136348
H65   H     H_    0.438790 0.752713 0.171427 0.145512
H66   H     H_    0.436209 0.247166 0.171359 0.145072
H67   H     H_    0.938792 0.252715 0.171423 0.145510
H68   H     H_    0.936173 0.747143 0.171330 0.145085
H69   H     H_    0.354119 0.820985 0.173693 0.149145
H70   H     H_    0.357026 0.175335 0.172430 0.146673
H71   H     H_    0.854119 0.320986 0.173689 0.149145
H72   H     H_    0.857116 0.675220 0.172359 0.146642
H73   H     H_    0.423596 0.930205 0.393985 0.144148
H74   H     H_    0.402972 0.084279 0.531988 0.164193
H75   H     H_    0.923602 0.430206 0.393992 0.144150
H76   H     H_    0.902966 0.584277 0.531991 0.164194
H77   H     H_    0.434907 0.995593 0.348264 0.152756
H78   H     H_    0.418888 0.084657 0.422381 0.147842
H79   H     H_    0.934902 0.495594 0.348262 0.152750
H80   H     H_    0.918891 0.584656 0.422391 0.147836
H81   H     H_    0.591057 0.990260 0.479849 0.153054
H82   H     H_    0.572097 0.082898 0.546182 0.152882
H83   H     H_    0.091053 0.490277 0.479847 0.153053
H84   H     H_    0.072096 0.582903 0.546206 0.152878
H85   H     H_    0.708355 0.911702 0.716491 0.085447
H86   H     H_    0.713443 0.090171 0.718223 0.090677
H87   H     H_    0.208355 0.411702 0.716491 0.085441
H88   H     H_    0.213442 0.590170 0.718233 0.090653
H89   H     H_    0.575480 0.927386 0.530798 0.145901
H90   H     H_    0.555359 0.085605 0.654832 0.152659
H91   H     H_    0.075493 0.427394 0.530787 0.145895
H92   H     H_    0.055350 0.585598 0.654851 0.152636
H93   H     H_    0.397869 0.928638 0.553030 0.178372
H94   H     H_    0.381003 0.992356 0.600315 0.145962
H95   H     H_    0.897860 0.428635 0.553028 0.178358
H96   H     H_    0.881009 0.492355 0.600322 0.145970
H97   H     H_    0.551102 0.931032 0.686989 0.154970
H98   H     H_    0.538397 0.996655 0.732313 0.169483
H99   H     H_    0.051097 0.431019 0.686960 0.154952
H100  H     H_    0.038404 0.496632 0.732323 0.169485
H101  H     H_    0.969964 0.088679 0.258794 0.097614
H102  H     H_    0.966607 0.911859 0.255523 0.091096
H103  H     H_    0.469961 0.588679 0.258790 0.097634
H104  H     H_    0.466603 0.411859 0.255520 0.091111
H105  H     H_    0.934783 0.088243 0.667709 0.083877
H106  H     H_    0.935124 0.911785 0.668017 0.082095
H107  H     H_    0.434783 0.588243 0.667708 0.083878
H108  H     H_    0.435124 0.411785 0.668016 0.082095
H109  H     H_    0.067455 0.870628 0.820115 0.086988
H110  H     H_    0.067732 0.129638 0.820516 0.089282
H111  H     H_    0.567454 0.370629 0.820113 0.086987
H112  H     H_    0.567731 0.629632 0.820512 0.089307
H113  H     H_    0.247000 0.129216 0.175677 0.093447
H114  H     H_    0.250170 0.874572 0.173793 0.093622
H115  H     H_    0.746996 0.629229 0.175676 0.093429
H116  H     H_    0.750173 0.374576 0.173790 0.093623
H117  H     H_    0.906996 0.090480 0.350100 0.143703
H118  H     H_    0.916208 0.910051 0.360760 0.145471
H119  H     H_    0.406995 0.590481 0.350099 0.143704
H120  H     H_    0.416205 0.410052 0.360758 0.145475
N1    N     N_R   0.950530 0.896220 0.057200 -0.028589
N2    N     N_R   0.950530 0.103780 0.057200 -0.030639
N3    N     N_R   0.450530 0.396220 0.057200 -0.028596
N4    N     N_R   0.450530 0.603780 0.057200 -0.030658
N5    N     N_R   0.893330 0.103780 0.942800 -0.029899
N6    N     N_R   0.893330 0.896220 0.942800 -0.031364
N7    N     N_R   0.393330 0.603780 0.942800 -0.029907
N8    N     N_R   0.393330 0.396220 0.942800 -0.031369
N9    N     N_R   0.818150 0.971400 0.792440 -0.031507
N10   N     N_R   0.818150 0.028600 0.792440 -0.030486
N11   N     N_R   0.318150 0.471400 0.792440 -0.031513
N12   N     N_R   0.318150 0.528600 0.792440 -0.030489
N13   N     N_R   0.025710 0.028600 0.207560 -0.033959
N14   N     N_R   0.025710 0.971400 0.207560 -0.038553
N15   N     N_R   0.525710 0.528600 0.207560 -0.033956
N16   N     N_R   0.525710 0.471400 0.207560 -0.038554
N17   N     N_R   0.181850 0.971400 0.207560 -0.062766
N18   N     N_R   0.181850 0.028600 0.207560 -0.063694
N19   N     N_R   0.681850 0.471400 0.207560 -0.062766
N20   N     N_R   0.681850 0.528600 0.207560 -0.063694
N21   N     N_R   0.974290 0.028600 0.792440 -0.031741
N22   N     N_R   0.974290 0.971400 0.792440 -0.031733
N23   N     N_R   0.474290 0.528600 0.792440 -0.031742
N24   N     N_R   0.474290 0.471400 0.792440 -0.031734
N25   N     N_R   0.049470 0.896220 0.942800 -0.035324
N26   N     N_R   0.049470 0.103780 0.942800 -0.035898
N27   N     N_R   0.549470 0.396220 0.942800 -0.035324
N28   N     N_R   0.549470 0.603780 0.942800 -0.035893
N29   N     N_R   0.106670 0.103780 0.057200 -0.038983
N30   N     N_R   0.106670 0.896220 0.057200 -0.038175
N31   N     N_R   0.606670 0.603780 0.057200 -0.038974
N32   N     N_R   0.606670 0.396220 0.057200 -0.038173
Ni1   Ni    Ni4+2 0.065600 0.934400 0.131190 0.201726
Ni2   Ni    Ni4+2 0.065600 0.065600 0.131190 0.202192
Ni3   Ni    Ni4+2 0.565600 0.434400 0.131190 0.201725
Ni4   Ni    Ni4+2 0.565600 0.565600 0.131190 0.202192
Ni5   Ni    Ni4+2 0.934400 0.065600 0.868810 0.207969
Ni6   Ni    Ni4+2 0.934400 0.934400 0.868810 0.207600
Ni7   Ni    Ni4+2 0.434400 0.565600 0.868810 0.207972
Ni8   Ni    Ni4+2 0.434400 0.434400 0.868810 0.207598
C113  C     C_3   0.686762 0.166013 0.952092 -0.416505
C114  C     C_3   0.716697 0.111886 0.018072 -0.251424
C115  C     C_3   0.657798 0.063496 0.945820 -0.944662
H121  H     H_    0.582772 0.070968 0.909009 0.256750
H122  H     H_    0.667467 0.057295 0.879152 0.267844
H123  H     H_    0.680205 0.025473 0.996544 0.253476
H124  H     H_    0.790644 0.102326 0.054282 0.220341
H125  H     H_    0.708903 0.116031 0.086737 0.181456
H126  H     H_    0.614340 0.174223 0.926008 0.186914
H127  H     H_    0.681762 0.160234 0.874985 0.191773
C116  C     C_3   0.684773 0.833017 0.944556 -0.423122
C117  C     C_3   0.625516 0.854350 0.983013 -0.257351
C118  C     C_3   0.559893 0.900346 0.907942 -0.950032
H128  H     H_    0.600405 0.935206 0.907336 0.265495
H129  H     H_    0.510699 0.884833 0.822613 0.262319
H130  H     H_    0.518946 0.915525 0.938314 0.250385
H131  H     H_    0.582842 0.820690 0.983064 0.196015
H132  H     H_    0.672152 0.870557 0.068289 0.190113
H133  H     H_    0.724257 0.868901 0.945824 0.208133
H134  H     H_    0.638164 0.818365 0.858139 0.190908
C119  C     C_3   0.186757 0.666014 0.952090 -0.416527
C120  C     C_3   0.216722 0.611874 0.018032 -0.251438
C121  C     C_3   0.157743 0.563503 0.945787 -0.944677
H135  H     H_    0.082760 0.570957 0.909245 0.256755
H136  H     H_    0.167183 0.557364 0.878921 0.267788
H137  H     H_    0.180271 0.525455 0.996448 0.253476
H138  H     H_    0.290637 0.602297 0.054115 0.220416
H139  H     H_    0.209040 0.616009 0.086786 0.181450
H140  H     H_    0.114349 0.674216 0.926063 0.186966
H141  H     H_    0.181718 0.660256 0.874954 0.191736
C122  C     C_3   0.184820 0.333047 0.944606 -0.423137
C123  C     C_3   0.125473 0.354324 0.982981 -0.257371
C124  C     C_3   0.059886 0.400341 0.907952 -0.949987
H142  H     H_    0.100431 0.435223 0.907485 0.265486
H143  H     H_    0.010760 0.384865 0.822579 0.262314
H144  H     H_    0.018862 0.415475 0.938252 0.250379
H145  H     H_    0.082762 0.320644 0.982895 0.196036
H146  H     H_    0.172049 0.370490 0.068297 0.190105
H147  H     H_    0.224365 0.368947 0.946052 0.208145
H148  H     H_    0.138275 0.318454 0.858140 0.190893
C125  C     C_3   0.247507 0.898211 0.352222 -0.449563
C126  C     C_3   0.212134 0.899068 0.425610 -0.227588
C127  C     C_3   0.237824 0.846114 0.492531 -0.983043
H149  H     H_    0.208375 0.809881 0.436881 0.263421
H150  H     H_    0.314848 0.841677 0.549552 0.261332
H151  H     H_    0.208826 0.847353 0.541888 0.251077
H152  H     H_    0.239948 0.934749 0.482487 0.187911
H153  H     H_    0.135348 0.902737 0.373220 0.194151
H154  H     H_    0.200015 0.870698 0.281945 0.183886
H155  H     H_    0.317989 0.879570 0.396001 0.175433
C128  C     C_3   0.228984 0.099916 0.347981 -0.430054
C129  C     C_3   0.209606 0.090190 0.435238 -0.223143
C130  C     C_3   0.175223 0.142579 0.457774 -0.985402
H156  H     H_    0.228472 0.175557 0.488286 0.266175
H157  H     H_    0.108943 0.156871 0.381672 0.254875
H158  H     H_    0.162451 0.134203 0.521335 0.248497
H159  H     H_    0.156690 0.057570 0.407004 0.199959
H160  H     H_    0.272613 0.075432 0.513848 0.178344
H161  H     H_    0.287145 0.129301 0.378226 0.161957
H162  H     H_    0.166892 0.120690 0.276350 0.198621
C131  C     C_3   0.747509 0.398209 0.352219 -0.449559
C132  C     C_3   0.712125 0.399062 0.425595 -0.227624
C133  C     C_3   0.737765 0.346093 0.492461 -0.983037
H163  H     H_    0.708244 0.309878 0.436770 0.263408
H164  H     H_    0.814784 0.341617 0.549441 0.261352
H165  H     H_    0.708805 0.347341 0.541860 0.251076
H166  H     H_    0.739965 0.434729 0.482507 0.187912
H167  H     H_    0.635343 0.402753 0.373203 0.194173
H168  H     H_    0.700023 0.370695 0.281942 0.183910
H169  H     H_    0.817993 0.379570 0.396007 0.175418
C134  C     C_3   0.728985 0.599916 0.347982 -0.430054
C135  C     C_3   0.709602 0.590190 0.435236 -0.223146
C136  C     C_3   0.675221 0.642580 0.457772 -0.985400
H170  H     H_    0.728472 0.675557 0.488287 0.266176
H171  H     H_    0.608943 0.656873 0.381669 0.254875
H172  H     H_    0.662446 0.634205 0.521331 0.248496
H173  H     H_    0.656685 0.557572 0.406999 0.199963
H174  H     H_    0.772607 0.575431 0.513846 0.178346
H175  H     H_    0.787146 0.629301 0.378228 0.161958
H176  H     H_    0.666894 0.620691 0.276349 0.198622

loop_
_geom_bond_atom_site_label_1
_geom_bond_atom_site_label_2
_ccdc_geom_bond_type
C105  N17   A    
C55   C59   S    
C15   C109  A    
C7    N27   A    
C42   C58   S    
C131  C132  S    
C123  H146  S    
C84   C90   S    
C46   C62   S    
C49   H41   S    
C117  C118  S    
C50   H66   S    
C86   C88   S    
C37   N7    A    
C30   H19   S    
N9    Ni6   S    
C62   C70   S    
C114  C115  S    
C26   H14   S    
N6    Ni6   S    
C21   H5    S    
C17   C61   S    
C74   H78   S    
C77   C101  A    
C132  H166  S    
C46   H36   S    
C1    N1    A    
C129  C130  S    
C32   C104  S    
C79   C102  A    
C36   C97   A    
C51   C57   S    
C79   N11   A    
N14   Ni1   S    
C76   H76   S    
C84   H92   S    
C66   H70   S    
C117  H132  S    
N13   N14   A    
C78   C101  A    
C1    H1    S    
C91   H98   S    
C73   C81   S    
C44   C46   S    
C49   H65   S    
C68   H52   S    
C111  N23   A    
C40   H23   S    
C11   C20   A    
C94   H102  S    
C128  C129  S    
C82   H90   S    
C126  C127  S    
C10   N30   A    
N2    N5    A    
C35   H45   S    
C7    H111  S    
C90   C92   S    
C122  C123  S    
C22   H118  S    
C134  H176  S    
C136  H172  S    
C93   N13   A    
C14   C107  A    
C63   C71   S    
C7    C19   A    
C96   C104  A    
C53   C71   S    
N19   Ni3   S    
C122  H147  S    
C22   H6    S    
C135  H173  S    
C68   H72   S    
C89   C101  S    
C13   C106  A    
C86   H95   S    
C116  H134  S    
C96   H104  S    
C106  N18   A    
N28   Ni7   S    
C14   C88   S    
N29   Ni2   S    
C118  H129  S    
C2    H2    S    
C110  N22   A    
C83   H83   S    
C48   C64   S    
C81   H81   S    
C133  H163  S    
C61   C65   S    
C65   H49   S    
C78   H86   S    
C25   H9    S    
C23   H119  S    
C16   C111  A    
C72   H58   S    
C6    H110  S    
C39   H22   S    
N3    N8    A    
C35   N5    A    
C93   C103  A    
C85   H93   S    
C121  H136  S    
C41   H29   S    
C21   C31   S    
C51   H43   S    
N17   N18   A    
C82   C89   S    
C108  N20   A    
C77   N9    A    
C113  H127  S    
C64   C68   S    
C23   H7    S    
N21   N22   A    
C56   C122  S    
N9    N10   A    
C12   N32   A    
N17   Ni1   S    
C130  H157  S    
N26   Ni5   S    
N11   Ni8   S    
C90   C102  S    
C25   H13   S    
C16   C34   S    
C29   H17   S    
C124  H143  S    
C74   C87   S    
C89   C91   S    
C43   C59   S    
C3    N3    A    
C59   C100  S    
C4    N4    A    
C56   H56   S    
C111  H107  S    
C51   H67   S    
C41   C47   S    
C2    N2    A    
N3    Ni3   S    
C62   C66   S    
C114  H124  S    
N10   Ni5   S    
C115  H123  S    
C19   C63   S    
C132  C133  S    
C18   C62   S    
C51   C67   S    
C129  H159  S    
C38   N8    A    
C80   C102  A    
C8    N28   A    
C75   H79   S    
C119  C120  S    
C76   H80   S    
C43   C45   S    
C26   C33   S    
C13   C87   S    
C5    N25   A    
C112  H108  S    
C42   C48   S    
C70   H62   S    
C55   C69   S    
C67   H71   S    
C8    C20   A    
C131  H169  S    
C92   H100  S    
C119  H140  S    
C54   C116  S    
C21   C25   S    
C127  H151  S    
C45   H35   S    
C24   C28   S    
C73   H73   S    
C28   H12   S    
C56   C70   S    
C49   C59   S    
N4    N7    A    
C50   C60   S    
C37   H47   S    
C38   H48   S    
C120  H138  S    
C84   H84   S    
N32   Ni3   S    
C30   H20   S    
C109  H105  S    
C55   C119  S    
N1    Ni1   S    
C132  H167  S    
C9    C18   A    
C135  C136  S    
C11   H115  S    
C116  C117  S    
C9    H113  S    
C128  H162  S    
C112  N24   A    
C37   C100  A    
C25   C33   S    
C47   H33   S    
C106  C128  S    
C42   H26   S    
C43   H31   S    
C115  H121  S    
C55   H55   S    
C125  H155  S    
C91   H97   S    
C76   C84   S    
N30   Ni1   S    
N19   N20   A    
N16   Ni3   S    
C40   H24   S    
C69   H61   S    
C54   H54   S    
C47   C63   S    
C120  C121  S    
C12   H116  S    
C5    C17   A    
C61   C69   S    
N11   N12   A    
C126  H152  S    
C66   H50   S    
C69   H59   S    
C70   H60   S    
C73   C87   S    
C27   H15   S    
N20   Ni4   S    
N21   Ni5   S    
C134  H175  S    
C71   H57   S    
C136  H171  S    
C35   C98   A    
C41   H25   S    
C8    H112  S    
C81   C89   S    
C14   C108  A    
C28   C34   S    
C127  H149  S    
C44   H28   S    
C15   C110  A    
N31   Ni4   S    
C74   C82   S    
N28   N31   A    
C36   N6    A    
C123  H145  S    
C135  H174  S    
C24   H8    S    
C93   H101  S    
N25   N30   A    
C79   H87   S    
N18   Ni2   S    
C83   H91   S    
N27   N32   A    
C86   H96   S    
C121  H135  S    
C53   C57   S    
C81   H89   S    
C116  H133  S    
C56   C60   S    
N1    N6    A    
C118  H128  S    
C21   H117  S    
C33   C39   S    
C94   N14   A    
C13   C105  A    
C47   H39   S    
C117  H131  S    
C48   H40   S    
C34   C40   S    
C107  C131  S    
C108  C134  S    
C105  C125  S    
C16   C112  A    
C133  H164  S    
C39   H21   S    
C4    H4    S    
C75   H75   S    
C38   C99   A    
C24   H120  S    
C133  H165  S    
C107  N19   A    
C6    N26   A    
C113  H126  S    
C23   C32   S    
C41   C57   S    
C3    H3    S    
C75   C83   S    
C125  C126  S    
C44   C60   S    
C57   C98   S    
C12   C19   A    
C45   C61   S    
C71   H63   S    
C72   H64   S    
C130  H156  S    
C82   H82   S    
C124  H142  S    
C22   C26   S    
N4    Ni4   S    
N5    Ni5   S    
C26   H10   S    
C77   H85   S    
C96   N16   A    
C73   H77   S    
C28   H16   S    
C122  H148  S    
C74   H74   S    
C5    H109  S    
C134  C135  S    
N12   Ni7   S    
C95   H103  S    
N13   Ni2   S    
C60   C99   S    
C109  N21   A    
C24   C32   S    
C85   C91   S    
N23   Ni7   S    
N24   Ni8   S    
C78   N10   A    
C49   C65   S    
C114  H125  S    
C115  H122  S    
C118  H130  S    
N2    Ni2   S    
C10   C17   A    
C129  H160  S    
C80   H88   S    
C48   H34   S    
C42   H30   S    
C43   H27   S    
C11   N31   A    
C76   C88   S    
C52   C68   S    
C36   H46   S    
C95   N15   A    
C53   C113  S    
C131  H168  S    
C58   C97   S    
C85   H94   S    
C121  H137  S    
C85   C87   S    
C27   C34   S    
C126  H153  S    
C6    C18   A    
C63   C67   S    
C127  H150  S    
C22   C31   S    
C1    C97   A    
C27   H11   S    
C65   H69   S    
N22   Ni6   S    
C80   N12   A    
C9    N29   A    
C31   C103  S    
C20   C64   S    
C130  H158  S    
C52   H68   S    
C120  H139  S    
C3    C99   A    
C29   H18   S    
C44   H32   S    
C124  H144  S    
C29   C39   S    
C113  C114  S    
C30   C40   S    
C50   C66   S    
C52   C58   S    
N15   Ni4   S    
C123  C124  S    
C46   H38   S    
C23   C27   S    
C4    C100  A    
N26   N29   A    
C128  H161  S    
N23   N24   A    
C95   C104  A    
C54   C58   S    
C53   H53   S    
C83   C90   S    
C125  H154  S    
C94   C103  A    
N15   N16   A    
C52   H44   S    
N7    Ni7   S    
N8    Ni8   S    
C136  H170  S    
C29   C31   S    
C86   C92   S    
C30   C32   S    
C50   H42   S    
C45   H37   S    
C64   C72   S    
C110  H106  S    
C67   H51   S    
C75   C88   S    
C54   C72   S    
C2    C98   A    
C10   H114  S    
C92   H99   S    
N25   Ni6   S    
C119  H141  S    
C15   C33   S    
N27   Ni8   S    
