data_mof_unit_47152.cif
_audit_creation_date              2012-12-10T21:18:20-0500
_audit_creation_method            fapswitch 2.2
_symmetry_space_group_name_H-M    P1
_symmetry_Int_Tables_number       1
_space_group_crystal_system       triclinic
_cell_length_a                    17.516836
_cell_length_b                    16.819763
_cell_length_c                    10.539147
_cell_angle_alpha                 89.007249
_cell_angle_beta                  91.472804
_cell_angle_gamma                 90.225801
_cell_volume                      3103.62791358

loop_
_atom_site_label
_atom_site_type_symbol
_atom_type_description
_atom_site_fract_x
_atom_site_fract_y
_atom_site_fract_z
_atom_type_partial_charge
C1    C     C_R   0.353229 0.499852 0.502259 0.877746
C2    C     C_R   0.646825 0.500107 0.501223 0.875197
C3    C     C_1   0.967195 0.498286 0.565982 -0.095736
C4    C     C_1   0.034947 0.498544 0.567709 -0.090223
C5    C     C_R   0.445105 0.833090 0.427929 -0.096119
C6    C     C_R   0.559445 0.167499 0.564084 -0.093200
C7    C     C_R   0.556087 0.831286 0.573452 -0.096472
C8    C     C_R   0.440070 0.167912 0.439897 -0.093535
C9    C     C_R   0.446616 0.747823 0.428428 0.450653
C10   C     C_R   0.558465 0.252538 0.560183 0.445835
C11   C     C_R   0.555138 0.746016 0.568818 0.459483
C12   C     C_R   0.440982 0.252987 0.442089 0.443962
C13   C     C_R   0.500584 0.875260 0.501102 0.001241
C14   C     C_R   0.499946 0.124569 0.501930 0.002994
C15   C     C_1   0.500128 0.963485 0.501963 -0.031269
C16   C     C_1   0.500042 0.036389 0.502379 -0.024726
C17   C     C_R   0.494270 0.500574 0.257224 0.876715
C18   C     C_R   0.505733 0.499131 0.742865 0.874802
C19   C     C_3   0.478968 0.572636 0.032317 0.091131
C20   C     C_3   0.521511 0.424586 0.967520 0.068340
C21   C     C_3   0.552993 0.552690 0.963942 0.051180
C22   C     C_3   0.447623 0.444491 0.036844 0.050946
C23   C     C_3   0.431399 0.516365 0.947024 0.067838
C24   C     C_3   0.568993 0.480697 0.053630 0.072912
C25   C     C_3   0.505388 0.496930 0.878192 -0.186045
C26   C     C_3   0.494966 0.501019 0.122118 -0.183250
C27   C     C_R   0.846718 0.570200 0.569391 0.103794
C28   C     C_R   0.154815 0.425847 0.560234 0.100386
C29   C     C_R   0.153555 0.572655 0.543257 0.105450
C30   C     C_R   0.848554 0.426884 0.520819 0.108018
C31   C     C_R   0.767785 0.569894 0.547911 -0.225313
C32   C     C_R   0.233101 0.427400 0.538822 -0.223098
C33   C     C_R   0.231796 0.571485 0.521573 -0.215313
C34   C     C_R   0.769551 0.429258 0.500407 -0.209355
C35   C     C_R   0.729548 0.500081 0.514178 -0.117453
C36   C     C_R   0.271102 0.499479 0.518391 -0.119542
C37   C     C_R   0.886371 0.498094 0.554876 0.064860
C38   C     C_R   0.115623 0.499093 0.560241 0.061491
H1    H     H_    0.735156 0.623504 0.558298 0.188946
H2    H     H_    0.265332 0.372855 0.538105 0.172645
H3    H     H_    0.262962 0.626278 0.507155 0.184315
H4    H     H_    0.738320 0.376469 0.473317 0.164759
N1    N     N_R   0.500000 0.707230 0.500000 -0.122009
N2    N     N_R   0.500000 0.292770 0.500000 -0.126421
O1    O     O_R   0.389110 0.566570 0.499990 -0.575185
O2    O     O_R   0.610890 0.433430 0.500010 -0.575305
O3    O     O_R   0.610890 0.566570 0.500010 -0.575342
O4    O     O_R   0.389110 0.433430 0.499990 -0.574489
O5    O     O_R   0.499980 0.566530 0.313950 -0.601829
O6    O     O_R   0.500020 0.433470 0.686050 -0.609418
O7    O     O_R   0.500020 0.566530 0.686050 -0.606046
O8    O     O_R   0.499980 0.433470 0.313950 -0.610754
Zn1   Zn    Zn3+2 0.500000 0.588860 0.500000 1.002157
Zn2   Zn    Zn3+2 0.500000 0.411140 0.500000 0.997097
C39   C     C_3   0.357246 0.535306 0.870274 -0.377991
C40   C     C_3   0.286792 0.544281 0.952358 -0.364390
C41   C     C_3   0.216380 0.565479 0.870659 -0.881256
H5    H     H_    0.226080 0.621167 0.815151 0.260460
H6    H     H_    0.202748 0.516441 0.804585 0.273981
H7    H     H_    0.166756 0.574190 0.932309 0.248916
H8    H     H_    0.274376 0.488016 0.003582 0.232369
H9    H     H_    0.296285 0.591085 0.023604 0.228816
H10   H     H_    0.365986 0.590747 0.813968 0.215670
H11   H     H_    0.346511 0.487312 0.800990 0.180418
C42   C     C_3   0.642018 0.461159 0.132939 -0.398980
C43   C     C_3   0.711882 0.445968 0.052462 -0.355782
C44   C     C_3   0.780739 0.422681 0.136544 -0.881734
H12   H     H_    0.794981 0.470844 0.204114 0.269462
H13   H     H_    0.768525 0.367059 0.190755 0.253427
H14   H     H_    0.830854 0.412536 0.076569 0.251387
H15   H     H_    0.699898 0.397366 0.985087 0.226911
H16   H     H_    0.726755 0.500293 0.997440 0.233474
H17   H     H_    0.654571 0.510428 0.198908 0.181129
H18   H     H_    0.630973 0.408470 0.194428 0.203592
C45   C     C_3   0.452948 0.654926 0.073888 -0.364133
C46   C     C_3   0.445794 0.715919 0.962942 -0.371805
C47   C     C_3   0.366862 0.754107 0.952059 -0.899841
H19   H     H_    0.324590 0.711918 0.911552 0.268575
H20   H     H_    0.347413 0.772664 0.046216 0.265767
H21   H     H_    0.369074 0.807140 0.887993 0.252283
H22   H     H_    0.488562 0.763951 0.978345 0.201882
H23   H     H_    0.458032 0.688808 0.870476 0.238206
H24   H     H_    0.398117 0.647120 0.122546 0.219692
H25   H     H_    0.494758 0.677835 0.145358 0.196026
C48   C     C_3   0.545967 0.343513 0.916740 -0.349399
C49   C     C_3   0.560406 0.280242 0.021230 -0.376579
C50   C     C_3   0.585302 0.201868 0.965063 -0.894729
H26   H     H_    0.542349 0.180930 0.893643 0.264907
H27   H     H_    0.641474 0.209677 0.919987 0.262251
H28   H     H_    0.591296 0.156006 0.041708 0.250579
H29   H     H_    0.606065 0.299712 0.088103 0.229990
H30   H     H_    0.507977 0.269211 0.075265 0.227895
H31   H     H_    0.500733 0.321629 0.850357 0.217582
H32   H     H_    0.598490 0.352197 0.861434 0.229939
C51   C     C_3   0.612302 0.611082 0.911266 -0.380690
C52   C     C_3   0.652346 0.661147 0.013832 -0.361945
C53   C     C_3   0.724215 0.700909 0.963609 -0.894308
H33   H     H_    0.766642 0.655228 0.938524 0.260414
H34   H     H_    0.710303 0.738122 0.878410 0.264687
H35   H     H_    0.750046 0.739447 0.037760 0.254799
H36   H     H_    0.613112 0.707946 0.045712 0.214585
H37   H     H_    0.669107 0.624309 0.097566 0.233244
H38   H     H_    0.654516 0.577052 0.857385 0.203946
H39   H     H_    0.582814 0.652103 0.843900 0.243058
C54   C     C_3   0.389392 0.386030 0.093056 -0.363527
C55   C     C_3   0.348925 0.334690 0.992578 -0.376829
C56   C     C_3   0.281788 0.289448 0.048815 -0.877103
H40   H     H_    0.301735 0.250611 0.129037 0.264463
H41   H     H_    0.238631 0.331699 0.083083 0.261528
H42   H     H_    0.254410 0.251777 0.974935 0.247445
H43   H     H_    0.327239 0.371616 0.911669 0.229587
H44   H     H_    0.389362 0.290870 0.955271 0.222620
H45   H     H_    0.419227 0.346303 0.162628 0.247751
H46   H     H_    0.347259 0.420272 0.146676 0.199444
C57   C     C_3   0.890157 0.645708 0.606244 -0.406095
C58   C     C_3   0.840942 0.719404 0.629038 -0.374650
C59   C     C_3   0.889986 0.790050 0.670060 -0.887474
H47   H     H_    0.922847 0.775261 0.758837 0.262463
H48   H     H_    0.930176 0.806792 0.594258 0.265015
H49   H     H_    0.852674 0.841730 0.687731 0.248580
H50   H     H_    0.809027 0.736572 0.540278 0.222376
H51   H     H_    0.799740 0.705919 0.704873 0.224991
H52   H     H_    0.924082 0.632640 0.694765 0.204984
H53   H     H_    0.930620 0.660516 0.529800 0.203214
C60   C     C_3   0.111458 0.347924 0.581328 -0.406735
C61   C     C_3   0.160556 0.272422 0.593170 -0.367585
C62   C     C_3   0.111558 0.199137 0.619927 -0.887553
H54   H     H_    0.078446 0.207114 0.707262 0.260550
H55   H     H_    0.071660 0.188251 0.538480 0.265455
H56   H     H_    0.148882 0.146371 0.633973 0.250704
H57   H     H_    0.190628 0.262969 0.503084 0.221404
H58   H     H_    0.203298 0.278722 0.672257 0.221420
H59   H     H_    0.078922 0.353044 0.670058 0.204352
H60   H     H_    0.069786 0.340532 0.501111 0.204208
C63   C     C_3   0.108939 0.650371 0.547973 -0.416399
C64   C     C_3   0.156439 0.727304 0.539576 -0.357297
C65   C     C_3   0.106191 0.800529 0.551955 -0.891299
H61   H     H_    0.061575 0.802249 0.475131 0.259618
H62   H     H_    0.078436 0.799776 0.645567 0.263788
H63   H     H_    0.141803 0.855091 0.544300 0.251701
H64   H     H_    0.200650 0.727752 0.617198 0.222048
H65   H     H_    0.184746 0.731139 0.446432 0.226514
H66   H     H_    0.065892 0.650975 0.468612 0.202649
H67   H     H_    0.077956 0.650739 0.638789 0.208544
C66   C     C_3   0.894160 0.350512 0.505978 -0.408284
C67   C     C_3   0.847494 0.275322 0.475326 -0.366177
C68   C     C_3   0.899119 0.202834 0.467360 -0.888710
H68   H     H_    0.943448 0.213157 0.395327 0.260390
H69   H     H_    0.927161 0.190011 0.561163 0.263901
H70   H     H_    0.864479 0.150330 0.439229 0.254420
H71   H     H_    0.805508 0.263738 0.550820 0.220755
H72   H     H_    0.816663 0.283376 0.382544 0.216558
H73   H     H_    0.935428 0.360649 0.428895 0.202344
H74   H     H_    0.927180 0.339045 0.595950 0.206125
C69   C     C_3   0.385114 0.879167 0.350160 -0.406485
C70   C     C_3   0.415353 0.900144 0.218250 -0.348570
C71   C     C_3   0.353735 0.937476 0.131432 -0.908053
H75   H     H_    0.302550 0.898442 0.125519 0.261495
H76   H     H_    0.336751 0.996298 0.166821 0.263269
H77   H     H_    0.376310 0.945988 0.034624 0.255928
H78   H     H_    0.463958 0.942500 0.227673 0.226494
H79   H     H_    0.436950 0.845710 0.173301 0.227753
H80   H     H_    0.330469 0.845735 0.342993 0.196652
H81   H     H_    0.369379 0.934312 0.399072 0.216088
C72   C     C_3   0.622204 0.123018 0.637487 -0.406063
C73   C     C_3   0.685194 0.096856 0.548884 -0.349488
C74   C     C_3   0.753063 0.061452 0.623666 -0.909155
H82   H     H_    0.780232 0.107329 0.684690 0.266448
H83   H     H_    0.734608 0.010602 0.684072 0.266661
H84   H     H_    0.796003 0.039801 0.556880 0.252170
H85   H     H_    0.662221 0.051745 0.482106 0.228584
H86   H     H_    0.705509 0.148716 0.492105 0.216428
H87   H     H_    0.647245 0.159883 0.714089 0.211788
H88   H     H_    0.597819 0.070790 0.688026 0.204984
C75   C     C_3   0.612928 0.874759 0.659796 -0.405880
C76   C     C_3   0.590348 0.865973 0.799036 -0.347855
C77   C     C_3   0.645778 0.910129 0.887102 -0.910705
H89   H     H_    0.705006 0.888643 0.875313 0.264819
H90   H     H_    0.643598 0.975046 0.866347 0.262306
H91   H     H_    0.629618 0.899544 0.987202 0.252916
H92   H     H_    0.532014 0.890279 0.810404 0.227422
H93   H     H_    0.589339 0.802281 0.827877 0.229533
H94   H     H_    0.672171 0.854177 0.645716 0.182435
H95   H     H_    0.615722 0.938772 0.635639 0.223398
C78   C     C_3   0.375828 0.123814 0.371508 -0.404840
C79   C     C_3   0.311429 0.103672 0.462964 -0.349917
C80   C     C_3   0.241153 0.070879 0.392824 -0.905845
H96   H     H_    0.218841 0.115332 0.322184 0.264394
H97   H     H_    0.255255 0.015193 0.343876 0.265352
H98   H     H_    0.195813 0.057376 0.461704 0.253304
H99   H     H_    0.331919 0.058826 0.534554 0.226820
H100  H     H_    0.294528 0.157670 0.514436 0.215315
H101  H     H_    0.353870 0.158908 0.288390 0.200214
H102  H     H_    0.397626 0.068556 0.330045 0.214093
O9    O     O_3   0.395167 0.703060 0.358594 -0.767020
H103  H     H_    0.374430 0.734884 0.286318 0.311308
O10   O     O_3   0.614831 0.296781 0.619212 -0.760176
H104  H     H_    0.664355 0.269886 0.609085 0.308567
O11   O     O_3   0.608606 0.699098 0.631918 -0.780335
H105  H     H_    0.652329 0.730900 0.662607 0.307493
O12   O     O_3   0.383790 0.297941 0.384934 -0.768388
H106  H     H_    0.334867 0.268691 0.388822 0.313951

loop_
_geom_bond_atom_site_label_1
_geom_bond_atom_site_label_2
_ccdc_geom_bond_type
C2    C35   S    
C60   H60   S    
C7    C13   A    
C39   C40   S    
C73   H86   S    
C72   C73   S    
C52   H37   S    
O12   H106  S    
C51   C52   S    
C34   H4    S    
C78   H102  S    
C50   H26   S    
C45   H24   S    
C66   C67   S    
C78   C79   S    
C63   C64   S    
C74   H83   S    
C55   H44   S    
C47   H19   S    
C2    O2    A    
O4    Zn2   S    
C65   H62   S    
C61   C62   S    
C58   H51   S    
C55   C56   S    
C17   C26   S    
C32   C36   A    
C54   H45   S    
C70   C71   S    
C68   H69   S    
C24   C26   S    
C49   H29   S    
C59   H48   S    
C48   C49   S    
C45   H25   S    
C41   H6    S    
C20   C25   S    
C72   H87   S    
C15   C16   T    
C29   C33   A    
C33   C36   A    
C42   H17   S    
C58   C59   S    
C34   C35   A    
C79   H99   S    
C19   C26   S    
C80   H98   S    
C64   H65   S    
C68   H68   S    
C48   H31   S    
N1    Zn1   S    
C71   H75   S    
C43   H16   S    
C20   C24   S    
O8    Zn2   S    
C77   H90   S    
C39   H10   S    
C29   C38   A    
C56   H40   S    
C11   N1    A    
C14   C16   S    
C61   H58   S    
C57   C58   S    
C5    C13   A    
C20   C48   S    
O3    Zn1   S    
C66   H73   S    
C63   H66   S    
C43   C44   S    
C6    C72   S    
O1    Zn1   S    
C73   H85   S    
C71   H76   S    
C52   H36   S    
C39   H11   S    
C56   H41   S    
C18   C25   S    
C17   O8    A    
C53   H34   S    
C51   H38   S    
C18   O7    A    
C53   H33   S    
C74   H84   S    
C55   H43   S    
C47   H20   S    
C76   H92   S    
C65   H63   S    
C9    N1    A    
C57   H52   S    
C58   H50   S    
C30   C34   A    
C27   C31   A    
C44   H12   S    
C54   H46   S    
C28   C32   A    
C68   H70   S    
C46   C47   S    
C59   H49   S    
C46   H23   S    
C74   H82   S    
C49   C50   S    
C41   H7    S    
C21   C51   S    
C69   H80   S    
C72   H88   S    
C5    C69   S    
C10   N2    A    
C42   H18   S    
C67   H71   S    
C30   C37   A    
C7    C75   S    
C44   H13   S    
C19   C23   S    
C45   C46   S    
C62   H55   S    
C5    C9    A    
C64   H64   S    
C6    C14   A    
C48   H32   S    
C7    C11   A    
C43   H15   S    
C28   C38   A    
C8    C12   A    
C77   H91   S    
C52   C53   S    
O2    Zn2   S    
O6    Zn2   S    
C12   O12   S    
C24   C42   S    
C67   H72   S    
C66   H74   S    
C76   C77   S    
C29   C63   S    
C4    C38   S    
C70   H78   S    
C77   H89   S    
C71   H77   S    
C32   H2    S    
C50   H27   S    
C73   C74   S    
C8    C78   S    
C56   H42   S    
C40   H9    S    
C50   H28   S    
C40   C41   S    
C17   O5    A    
C3    C4    T    
C10   O10   S    
C53   H35   S    
C28   C60   S    
C18   O6    A    
C30   C66   S    
C75   H94   S    
C67   C68   S    
C54   C55   S    
C47   H21   S    
C60   H59   S    
C21   C25   S    
C63   H67   S    
C8    C14   A    
C57   H53   S    
C19   C21   S    
C40   H8    S    
C20   C22   S    
C64   C65   S    
C46   H22   S    
C6    C10   A    
C9    O9    S    
C1    O4    A    
C23   C39   S    
C69   H81   S    
C22   C54   S    
C65   H61   S    
C2    O3    A    
C44   H14   S    
C33   H3    S    
C13   C15   S    
C62   H56   S    
C80   H96   S    
C12   N2    A    
C75   C76   S    
C49   H30   S    
C59   H47   S    
C51   H39   S    
C1    O1    A    
C41   H5    S    
C60   C61   S    
C61   H57   S    
C27   C37   A    
O5    Zn1   S    
C19   C45   S    
C31   H1    S    
C31   C35   A    
C23   C25   S    
C79   H100  S    
O10   H104  S    
C11   O11   S    
C80   H97   S    
C76   H93   S    
C70   H79   S    
O9    H103  S    
N2    Zn2   S    
O11   H105  S    
C3    C37   S    
C42   C43   S    
C22   C26   S    
C21   C24   S    
C69   C70   S    
C22   C23   S    
C78   H101  S    
O7    Zn1   S    
C79   C80   S    
C62   H54   S    
C1    C36   S    
C75   H95   S    
C27   C57   S    
