data_mof_unit_20192.cif
_audit_creation_date              2012-12-11T16:10:55-0500
_audit_creation_method            fapswitch 2.2
_symmetry_space_group_name_H-M    P1
_symmetry_Int_Tables_number       1
_space_group_crystal_system       triclinic
_cell_length_a                    12.856538
_cell_length_b                    13.372626
_cell_length_c                    26.944461
_cell_angle_alpha                 97.410839
_cell_angle_beta                  90.266996
_cell_angle_gamma                 118.861635
_cell_volume                      4011.18849805

loop_
_atom_site_label
_atom_site_type_symbol
_atom_type_description
_atom_site_fract_x
_atom_site_fract_y
_atom_site_fract_z
_atom_type_partial_charge
C1    C     C_R   0.627809 0.894794 0.424369 0.540469
C2    C     C_1   0.139718 0.823880 0.179537 -0.041697
C3    C     C_R   0.949038 0.282686 0.720610 -0.112342
C4    C     C_R   0.873188 0.254548 0.759211 -0.111605
C5    C     C_R   0.798575 0.139319 0.764144 -0.099371
C6    C     C_1   0.159791 0.836712 0.231897 -0.003035
C7    C     C_R   0.602049 0.223712 0.443390 0.544548
C8    C     C_1   0.174130 0.843600 0.276581 -0.004652
C9    C     C_1   0.194165 0.850480 0.328573 -0.044913
C10   C     C_1   0.220436 0.858941 0.372372 -0.007525
C11   C     C_1   0.689686 0.798672 0.136247 -0.009015
C12   C     C_1   0.673037 0.808029 0.180073 -0.049674
C13   C     C_1   0.661582 0.816938 0.232146 -0.008187
C14   C     C_1   0.655567 0.825933 0.276882 -0.007993
C15   C     C_R   0.606642 0.379444 0.235613 0.015182
C16   C     C_1   0.649779 0.841182 0.329250 -0.059966
C17   C     C_1   0.642658 0.861079 0.373538 -0.025215
C18   C     C_1   0.693123 0.386114 0.874634 -0.030399
C19   C     C_R   0.268498 0.875582 0.422519 0.542947
C20   C     C_1   0.682788 0.361062 0.829754 -0.078044
C21   C     C_1   0.673276 0.341753 0.777001 -0.030358
C22   C     C_1   0.666084 0.326783 0.731906 -0.016921
C23   C     C_1   0.653992 0.304753 0.679186 -0.049031
C24   C     C_1   0.636065 0.276660 0.634472 -0.008465
C25   C     C_1   0.227830 0.867676 0.610962 0.005947
C26   C     C_R   0.602892 0.364956 0.286483 -0.098380
C27   C     C_R   0.204519 0.767112 0.727148 -0.019699
C28   C     C_R   0.199165 0.764473 0.779059 -0.017550
C29   C     C_R   0.189462 0.945349 0.790991 -0.005238
C30   C     C_R   0.200543 0.950251 0.738976 -0.000298
C31   C     C_R   0.630500 0.899427 0.564088 0.546369
C32   C     C_R   0.200399 0.857560 0.707273 -0.003710
C33   C     C_R   0.185477 0.849926 0.810193 0.007081
C34   C     C_1   0.153642 0.829880 0.860582 -0.053019
C35   C     C_1   0.209398 0.861262 0.654231 -0.037777
C36   C     C_1   0.117146 0.803501 0.900391 -0.009820
C37   C     C_R   0.677720 0.331147 0.308236 0.015682
C38   C     C_1   0.650186 0.867818 0.610163 -0.025613
C39   C     C_R   0.731641 0.928344 0.741035 0.003554
C40   C     C_R   0.723992 0.908162 0.790821 -0.131434
C41   C     C_R   0.587160 0.703436 0.765259 0.005804
C42   C     C_R   0.598454 0.722134 0.715046 -0.128889
C43   C     C_R   0.603193 0.227384 0.582847 0.544269
C44   C     C_R   0.668904 0.833049 0.702760 0.010517
C45   C     C_R   0.651978 0.798653 0.803192 0.012618
C46   C     C_1   0.656552 0.788595 0.855201 -0.076904
C47   C     C_1   0.661182 0.848993 0.651616 -0.077967
C48   C     C_R   0.685924 0.355948 0.206651 0.023149
C49   C     C_1   0.675075 0.783990 0.898182 -0.028837
C50   C     C_R   0.065107 0.771664 0.084164 0.542299
C51   C     C_R   0.716156 0.439213 0.066742 0.545456
C52   C     C_R   0.720404 0.782180 0.086100 0.544776
C53   C     C_R   0.059974 0.765182 0.944591 0.545815
C54   C     C_R   0.709345 0.432387 0.926608 0.541102
C55   C     C_R   0.269753 0.880122 0.562393 0.544076
C56   C     C_R   0.712065 0.774573 0.946204 0.543557
C57   C     C_1   0.637867 0.275907 0.399159 -0.013074
C58   C     C_R   0.759845 0.312278 0.279517 0.002250
C59   C     C_1   0.695328 0.371861 0.154853 -0.066979
C60   C     C_R   0.762779 0.324983 0.228700 -0.118137
C61   C     C_R   0.844849 0.281531 0.301414 0.031072
C62   C     C_R   0.804319 0.181601 0.324219 -0.076628
C63   C     C_R   0.885866 0.153602 0.344261 -0.096435
C64   C     C_R   0.007972 0.224071 0.341239 -0.102295
C65   C     C_R   0.048949 0.322782 0.318138 -0.108944
C66   C     C_R   0.967879 0.351443 0.298235 -0.096099
C67   C     C_R   0.500666 0.586890 0.776586 0.023626
C68   C     C_R   0.384062 0.530421 0.753611 -0.099996
C69   C     C_R   0.298890 0.424439 0.765796 -0.093389
C70   C     C_1   0.660542 0.306903 0.358825 -0.059092
C71   C     C_R   0.329047 0.373488 0.801120 -0.112876
C72   C     C_R   0.445239 0.426515 0.823217 -0.119368
C73   C     C_R   0.531383 0.532317 0.810666 -0.084369
C74   C     C_3   0.528799 0.419760 0.211201 -0.247132
C75   C     C_3   0.449985 0.449061 0.246171 -0.312891
C76   C     C_3   0.379593 0.491975 0.218035 -0.440736
C77   C     C_R   0.216693 0.677777 0.692949 0.034293
C78   C     C_R   0.324841 0.705899 0.671281 -0.094040
C79   C     C_R   0.332255 0.626765 0.634110 -0.107290
C80   C     C_R   0.232212 0.519282 0.618531 -0.107767
C81   C     C_1   0.703747 0.395056 0.112981 -0.015797
C82   C     C_R   0.124040 0.491630 0.639394 -0.122258
C83   C     C_R   0.116000 0.570826 0.676322 -0.100161
C84   C     C_R   0.211657 0.676003 0.802556 0.035384
C85   C     C_R   0.110974 0.569913 0.806739 -0.094955
C86   C     C_R   0.117821 0.497745 0.838388 -0.103798
C87   C     C_R   0.224492 0.531179 0.866090 -0.081558
C88   C     C_R   0.325231 0.636049 0.861695 -0.088903
C89   C     C_R   0.319117 0.708232 0.829978 -0.088861
C90   C     C_3   0.182360 0.040794 0.825756 -0.249398
C91   C     C_3   0.063565 0.039425 0.816598 -0.291580
C92   C     C_1   0.113359 0.805448 0.135166 -0.005587
C93   C     C_3   0.044741 0.114900 0.859231 -0.450758
C94   C     C_R   0.220945 0.054003 0.716876 0.028771
C95   C     C_R   0.332525 0.154460 0.725421 -0.095635
C96   C     C_R   0.360211 0.244347 0.697566 -0.087569
C97   C     C_R   0.278028 0.233774 0.660401 -0.090513
C98   C     C_R   0.167651 0.133471 0.651207 -0.112813
C99   C     C_R   0.138030 0.044945 0.679968 -0.099725
C100  C     C_R   0.802683 0.050124 0.731553 0.033094
C101  C     C_R   0.880153 0.079831 0.692686 -0.079270
C102  C     C_R   0.950897 0.195668 0.686753 -0.103301
Cr1   Cr    Cr6+3 0.416010 0.828400 0.490230 1.028937
Cr2   Cr    Cr6+3 0.676380 0.087280 0.505260 1.023984
Cr3   Cr    Cr6+3 0.407590 0.084280 0.504540 1.025931
Cr4   Cr    Cr6+3 0.914090 0.832340 0.018020 1.025368
Cr5   Cr    Cr6+3 0.923310 0.576840 0.003860 1.028395
Cr6   Cr    Cr6+3 0.654200 0.573160 0.004700 1.017493
H1    H     H_    0.774385 0.978967 0.820761 0.107865
H2    H     H_    0.357633 0.570128 0.727546 0.128279
H3    H     H_    0.209034 0.382652 0.748420 0.125410
H4    H     H_    0.262226 0.292528 0.810867 0.111866
H5    H     H_    0.468216 0.385648 0.850162 0.129708
H6    H     H_    0.621384 0.571402 0.827659 0.125092
H7    H     H_    0.441094 0.571380 0.202543 0.166344
H8    H     H_    0.320498 0.424430 0.186875 0.157305
H9    H     H_    0.323665 0.512439 0.244188 0.145442
H10   H     H_    0.385695 0.370827 0.261763 0.159651
H11   H     H_    0.506540 0.517922 0.277501 0.168924
H12   H     H_    0.549119 0.650244 0.685342 0.105257
H13   H     H_    0.588202 0.498335 0.194580 0.159612
H14   H     H_    0.470565 0.351187 0.180104 0.153786
H15   H     H_    0.402416 0.789703 0.682549 0.121175
H16   H     H_    0.415248 0.648864 0.617155 0.117621
H17   H     H_    0.238085 0.458054 0.589822 0.104795
H18   H     H_    0.045922 0.409476 0.626382 0.109700
H19   H     H_    0.030810 0.550159 0.691023 0.102287
H20   H     H_    0.026307 0.545832 0.787427 0.099259
H21   H     H_    0.040022 0.417109 0.842570 0.104975
H22   H     H_    0.229194 0.475591 0.890831 0.107094
H23   H     H_    0.825157 0.310348 0.206117 0.117018
H24   H     H_    0.407638 0.661823 0.883275 0.121114
H25   H     H_    0.396713 0.791180 0.828227 0.111666
H26   H     H_    0.027542 0.074150 0.893875 0.167177
H27   H     H_    0.123983 0.202087 0.867159 0.142778
H28   H     H_    0.967251 0.125095 0.848750 0.142365
H29   H     H_    0.062109 0.071881 0.780838 0.174450
H30   H     H_    0.988336 0.949664 0.813766 0.177215
H31   H     H_    0.193873 0.033766 0.865771 0.152995
H32   H     H_    0.258027 0.125403 0.820681 0.127005
H33   H     H_    0.399100 0.161757 0.752580 0.112322
H34   H     H_    0.541117 0.378408 0.309754 0.109650
H35   H     H_    0.445646 0.322172 0.704559 0.130751
H36   H     H_    0.300329 0.302822 0.638446 0.105441
H37   H     H_    0.105738 0.123268 0.621133 0.098845
H38   H     H_    0.053193 0.966497 0.671658 0.103080
H39   H     H_    0.887860 0.014255 0.667561 0.106619
H40   H     H_    0.008614 0.218729 0.656395 0.101007
H41   H     H_    0.006780 0.372039 0.717300 0.107126
H42   H     H_    0.872108 0.322264 0.785353 0.112758
H43   H     H_    0.738814 0.120140 0.794011 0.104344
H44   H     H_    0.709897 0.124994 0.326137 0.118394
H45   H     H_    0.854595 0.077084 0.362017 0.132883
H46   H     H_    0.070809 0.202002 0.356678 0.112475
H47   H     H_    0.143555 0.377144 0.315658 0.108092
H48   H     H_    0.000993 0.428473 0.280580 0.109979
O1    O     O_R   0.294740 0.800910 0.434410 -0.505691
O2    O     O_R   0.635480 0.460400 0.052590 -0.511190
O3    O     O_R   0.662650 0.681410 0.060750 -0.497182
O4    O     O_R   0.526010 0.837250 0.440870 -0.492066
O5    O     O_R   0.814500 0.852290 0.965490 -0.508700
O6    O     O_R   0.013160 0.821640 0.966980 -0.500531
O7    O     O_R   0.038850 0.666600 0.954370 -0.502425
O8    O     O_R   0.813260 0.476410 0.948680 -0.492863
O9    O     O_R   0.630060 0.454430 0.944230 -0.517936
O10   O     O_R   0.657630 0.675880 0.960300 -0.499329
O11   O     O_3   0.830530 0.660780 0.008860 -0.250406
O12   O     O_R   0.664100 0.185180 0.560770 -0.493488
O13   O     O_R   0.704290 0.994500 0.446090 -0.517326
O14   O     O_R   0.662870 0.181760 0.460430 -0.494929
O15   O     O_R   0.498970 0.199080 0.457120 -0.509636
O16   O     O_R   0.309350 0.975930 0.448180 -0.496069
O17   O     O_R   0.296060 0.804610 0.542650 -0.502783
O18   O     O_R   0.527240 0.840670 0.541200 -0.498731
O19   O     O_R   0.705610 0.998200 0.554330 -0.507541
O20   O     O_R   0.500290 0.202770 0.565360 -0.507729
O21   O     O_R   0.310570 0.979360 0.548520 -0.493461
O22   O     O_3   0.499990 0.999990 0.500010 -0.251328
O23   O     O_R   0.819910 0.858260 0.073860 -0.503783
O24   O     O_R   0.018180 0.827180 0.067430 -0.494510
O25   O     O_R   0.044260 0.672570 0.062730 -0.506760
O26   O     O_R   0.818270 0.481940 0.049130 -0.492900

loop_
_geom_bond_atom_site_label_1
_geom_bond_atom_site_label_2
_ccdc_geom_bond_type
C8    C9    S    
C30   C32   A    
Cr6   O9    S    
C101  C102  A    
Cr3   O16   S    
C7    O15   A    
C28   C84   S    
C41   C42   A    
C95   C96   A    
Cr3   O22   S    
C87   C88   A    
C51   O26   A    
C53   O7    A    
C20   C21   S    
C97   C98   A    
C90   C91   S    
C41   C67   S    
Cr6   O3    S    
C31   O19   A    
C77   C78   A    
C65   C66   A    
C46   C49   T    
C62   C63   A    
C62   H44   S    
Cr5   O25   S    
C43   O12   A    
C87   H22   S    
C85   C86   A    
Cr1   O4    S    
Cr6   O2    S    
C80   H17   S    
C77   C83   A    
C58   C60   A    
C64   H46   S    
Cr1   O17   S    
C76   H7    S    
Cr4   O5    S    
C69   C71   A    
C55   O17   A    
C36   C53   S    
C102  H40   S    
C91   H29   S    
C61   C66   A    
Cr2   O22   S    
C29   C33   A    
C68   C69   A    
Cr3   O20   S    
C23   C24   T    
C11   C52   S    
C13   C14   T    
C57   C70   T    
C9    C10   T    
C51   C81   S    
C34   C36   T    
C37   C58   A    
C44   C47   S    
C88   C89   A    
C93   H28   S    
C52   O3    A    
C37   C70   S    
C71   H4    S    
C55   O21   A    
C2    C6    S    
C75   H10   S    
C42   C44   A    
C15   C48   A    
C60   H23   S    
Cr4   O24   S    
C29   C90   S    
C48   C60   A    
Cr2   O19   S    
C40   C45   A    
Cr5   O11   S    
Cr5   O8    S    
C3    H41   S    
C89   H25   S    
C74   C75   S    
Cr5   O26   S    
C67   C68   A    
C19   O1    A    
C32   C35   S    
C25   C55   S    
C75   H11   S    
C19   O16   A    
C63   H45   S    
C80   C82   A    
C93   H26   S    
Cr3   O21   S    
C39   C40   A    
C91   C93   S    
C78   C79   A    
C16   C17   T    
C15   C26   A    
C6    C8    T    
C27   C77   S    
C45   C46   S    
C72   H5    S    
Cr1   O18   S    
C73   H6    S    
C79   C80   A    
C50   O24   A    
C75   C76   S    
C97   H36   S    
C29   C30   A    
Cr2   O12   S    
C91   H30   S    
C43   O20   A    
C5    C100  A    
C10   C19   S    
C96   C97   A    
C74   H13   S    
C33   C34   S    
C86   H21   S    
C68   H2    S    
C84   C85   A    
C2    C92   T    
C78   H15   S    
C38   C47   T    
C39   C44   A    
C25   C35   T    
C67   C73   A    
C3    C102  A    
C50   C92   S    
C74   H14   S    
C99   H38   S    
Cr5   O7    S    
C28   C33   A    
C98   C99   A    
C14   C16   S    
C50   O25   A    
C84   C89   A    
C88   H24   S    
C54   O9    A    
C3    C4    A    
Cr4   O23   S    
C90   H31   S    
C48   C59   S    
Cr2   O14   S    
Cr6   O10   S    
C101  H39   S    
Cr3   O15   S    
C27   C32   A    
C86   C87   A    
Cr6   O11   S    
C1    O4    A    
Cr1   O1    S    
C59   C81   T    
C83   H19   S    
C72   C73   A    
C93   H27   S    
C90   H32   S    
C11   C12   T    
C26   C37   A    
C95   H33   S    
C40   H1    S    
C98   H37   S    
C49   C56   S    
C4    H42   S    
C79   H16   S    
C51   O2    A    
C1    C17   S    
C76   H9    S    
C5    H43   S    
C31   C38   S    
Cr1   O22   S    
C64   C65   A    
C61   C62   A    
C52   O23   A    
C71   C72   A    
C30   C94   S    
C26   H34   S    
Cr4   O11   S    
C96   H35   S    
C66   H48   S    
C69   H3    S    
C42   H12   S    
C39   C100  S    
C94   C99   A    
C58   C61   S    
C56   O5    A    
C1    O13   A    
C100  C101  A    
C76   H8    S    
C18   C20   T    
Cr4   O6    S    
C94   C95   A    
C53   O6    A    
C18   C54   S    
C63   C64   A    
C4    C5    A    
C15   C74   S    
C12   C13   S    
C65   H47   S    
C82   C83   A    
C7    O14   A    
C56   O10   A    
C27   C28   A    
C24   C43   S    
C41   C45   A    
C22   C23   S    
C85   H20   S    
C54   O8    A    
C21   C22   T    
C7    C57   S    
C82   H18   S    
Cr2   O13   S    
C31   O18   A    
