data_mof_unit_45139.cif
_audit_creation_date              2012-12-11T14:21:02-0500
_audit_creation_method            fapswitch 2.2
_symmetry_space_group_name_H-M    P1
_symmetry_Int_Tables_number       1
_space_group_crystal_system       triclinic
_cell_length_a                    11.60902
_cell_length_b                    11.587696
_cell_length_c                    19.475018
_cell_angle_alpha                 90.154271
_cell_angle_beta                  89.50202
_cell_angle_gamma                 59.427344
_cell_volume                      2255.45834598

loop_
_atom_site_label
_atom_site_type_symbol
_atom_type_description
_atom_site_fract_x
_atom_site_fract_y
_atom_site_fract_z
_atom_type_partial_charge
C1    C     C_R   0.640256 0.117700 0.599117 0.555172
C2    C     C_1   0.640915 0.703339 0.667772 0.004821
C3    C     C_1   0.127998 0.198209 0.859610 0.002713
C4    C     C_1   0.171226 0.170329 0.727718 -0.032117
C5    C     C_1   0.151006 0.181823 0.799086 -0.032401
C6    C     C_1   0.194430 0.161329 0.667184 0.002377
C7    C     C_1   0.678588 0.190924 0.861013 0.004632
C8    C     C_1   0.657833 0.167673 0.729035 -0.032096
C9    C     C_1   0.665363 0.180856 0.800494 -0.031002
C10   C     C_1   0.652202 0.150326 0.668519 0.000704
C11   C     C_R   0.684901 0.603143 0.205637 0.018484
C12   C     C_R   0.612385 0.745811 0.598411 0.545353
C13   C     C_R   0.559233 0.650985 0.239337 -0.035298
C14   C     C_R   0.560955 0.632068 0.309618 -0.028213
C15   C     C_R   0.786512 0.591684 0.315184 -0.162054
C16   C     C_R   0.799981 0.561529 0.245218 -0.163640
C17   C     C_R   0.433517 0.713216 0.206439 -0.141017
C18   C     C_R   0.319583 0.722810 0.238763 0.300781
C19   C     C_R   0.326951 0.688797 0.308045 0.291672
C20   C     C_R   0.451043 0.631780 0.341054 -0.134084
C21   C     C_R   0.663260 0.636795 0.347031 0.020344
C22   C     C_R   0.173579 0.172885 0.183741 0.002685
C23   C     C_R   0.240353 0.145720 0.597906 0.551312
C24   C     C_R   0.256528 0.221109 0.203283 -0.069832
C25   C     C_R   0.272839 0.233526 0.274532 -0.040542
C26   C     C_R   0.215964 0.059346 0.292328 -0.149996
C27   C     C_R   0.156060 0.087634 0.228118 0.226292
C28   C     C_R   0.308578 0.272682 0.153620 0.295647
C29   C     C_R   0.333893 0.371782 0.173351 -0.118671
C30   C     C_R   0.319289 0.410197 0.241461 -0.134563
C31   C     C_R   0.292941 0.342232 0.292774 0.281250
C32   C     C_R   0.261497 0.140101 0.319880 -0.049550
C33   C     C_R   0.658985 0.179985 0.188021 0.000102
C34   C     C_R   0.623767 0.082494 0.394177 0.538878
C35   C     C_R   0.698645 0.046250 0.203548 0.005500
C36   C     C_R   0.708339 0.008948 0.273166 -0.013355
C37   C     C_R   0.603065 0.244223 0.306764 -0.137693
C38   C     C_R   0.615583 0.276720 0.240054 -0.183313
C39   C     C_R   0.750142 0.945756 0.151913 -0.103907
C40   C     C_R   0.838397 0.813449 0.168919 -0.095042
C41   C     C_R   0.867522 0.779517 0.237317 -0.089030
C42   C     C_R   0.794376 0.872340 0.289112 -0.108930
C43   C     C_R   0.645863 0.111387 0.323962 0.001989
C44   C     C_R   0.082546 0.230685 0.928923 0.553662
C45   C     C_R   0.621827 0.726691 0.407245 0.534332
C46   C     C_R   0.683731 0.604750 0.929726 0.545832
C47   C     C_R   0.708279 0.206462 0.930305 0.545394
C48   C     C_R   0.085970 0.232520 0.124195 0.577517
C49   C     C_R   0.703224 0.562097 0.133725 0.547461
C50   C     C_R   0.704693 0.209505 0.124736 0.533602
C51   C     C_R   0.300536 0.117644 0.393241 0.555765
C52   C     C_1   0.670480 0.647069 0.860313 -0.000052
C53   C     C_1   0.654611 0.683359 0.728328 -0.031966
C54   C     C_1   0.663492 0.666999 0.799712 -0.032822
Cr1   Cr    Cr6+3 0.404720 0.198220 0.499960 1.052712
Cr2   Cr    Cr6+3 0.698290 0.897110 0.500380 0.996746
Cr3   Cr    Cr6+3 0.396970 0.904720 0.499610 0.991076
Cr4   Cr    Cr6+3 0.926180 0.151990 0.028120 1.031665
Cr5   Cr    Cr6+3 0.921330 0.451820 0.027470 1.031284
Cr6   Cr    Cr6+3 0.626260 0.446870 0.028710 1.006139
H1    H     H_    0.868442 0.586290 0.343444 0.089622
H2    H     H_    0.365344 0.418946 0.135743 0.140739
H3    H     H_    0.337385 0.488464 0.255364 0.166591
H4    H     H_    0.563300 0.323016 0.345374 0.160282
H5    H     H_    0.733032 0.970698 0.097988 0.120477
H6    H     H_    0.592269 0.377973 0.229151 0.128458
H7    H     H_    0.888996 0.738625 0.129017 0.129571
H8    H     H_    0.945471 0.679707 0.250134 0.114298
H9    H     H_    0.816975 0.836349 0.340831 0.162145
H10   H     H_    0.421978 0.758727 0.156839 0.145929
H11   H     H_    0.898208 0.515009 0.221210 0.126282
H12   H     H_    0.460294 0.595255 0.392981 0.139006
H13   H     H_    0.215529 0.981864 0.322819 0.150583
O1    O     O_R   0.267740 0.231960 0.575440 -0.505841
O2    O     O_R   0.685970 0.784660 0.430010 -0.528420
O3    O     O_R   0.502530 0.767000 0.423990 -0.539639
O4    O     O_R   0.288330 0.026350 0.429250 -0.521793
O5    O     O_3   0.499990 0.000020 0.499980 -0.281164
O6    O     O_R   0.821500 0.119340 0.952830 -0.514788
O7    O     O_R   0.037130 0.162530 0.957360 -0.503069
O8    O     O_R   0.056440 0.344740 0.951340 -0.485958
O9    O     O_R   0.797900 0.560360 0.957470 -0.492547
O10   O     O_R   0.596130 0.579390 0.952730 -0.505675
O11   O     O_R   0.639060 0.321160 0.958670 -0.487530
O12   O     O_R   0.527280 0.186640 0.570530 -0.490390
O13   O     O_R   0.821240 0.124200 0.104370 -0.505383
O14   O     O_R   0.036890 0.167040 0.097840 -0.463552
O15   O     O_R   0.056180 0.349610 0.102880 -0.496020
O16   O     O_R   0.797660 0.564870 0.097950 -0.513103
O17   O     O_R   0.595880 0.584250 0.104270 -0.543312
O18   O     O_R   0.638830 0.325670 0.099150 -0.516866
O19   O     O_3   0.824590 0.350230 0.028100 -0.272071
O20   O     O_R   0.728090 0.003450 0.576380 -0.502271
O21   O     O_R   0.682970 0.789190 0.570490 -0.494556
O22   O     O_R   0.499290 0.771880 0.575530 -0.508938
O23   O     O_R   0.285330 0.030870 0.569730 -0.489716
O24   O     O_R   0.270980 0.227080 0.423890 -0.461170
O25   O     O_R   0.530280 0.182120 0.430050 -0.477206
O26   O     O_R   0.731330 0.998570 0.424830 -0.534874
O27   O     O_3   0.277661 0.394397 0.357996 -0.521744
C55   C     C_3   0.140147 0.484700 0.370130 -0.065302
H14   H     H_    0.098840 0.567937 0.332799 0.143572
H15   H     H_    0.127168 0.528807 0.422233 0.136142
H16   H     H_    0.082367 0.432228 0.368568 0.114085
O28   O     O_3   0.198310 0.764166 0.206101 -0.508935
C56   C     C_3   0.211036 0.745189 0.134180 -0.082205
H17   H     H_    0.297346 0.645767 0.119132 0.088302
H18   H     H_    0.218152 0.827410 0.109150 0.147216
H19   H     H_    0.119342 0.749508 0.114871 0.134983
O29   O     O_3   0.212390 0.703081 0.339449 -0.558610
C57   C     C_3   0.196679 0.751089 0.407599 -0.126790
H20   H     H_    0.222594 0.830792 0.413195 0.140295
H21   H     H_    0.256113 0.667132 0.443225 0.120119
H22   H     H_    0.089944 0.795909 0.422792 0.130620
O30   O     O_3   0.325341 0.236500 0.084616 -0.547132
C58   C     C_3   0.407759 0.096042 0.076834 -0.112351
H23   H     H_    0.484027 0.048869 0.117726 0.105685
H24   H     H_    0.462372 0.074768 0.027086 0.136825
H25   H     H_    0.345944 0.048081 0.075008 0.122731
O31   O     O_3   0.087554 0.026165 0.206367 -0.518435
C59   C     C_3   0.980415 0.056912 0.251612 -0.037754
H26   H     H_    0.906854 0.166452 0.252650 0.100399
H27   H     H_    0.013048 0.018350 0.304257 0.120384
H28   H     H_    0.931718 0.003690 0.232068 0.197059

loop_
_geom_bond_atom_site_label_1
_geom_bond_atom_site_label_2
_ccdc_geom_bond_type
C51   O24   A    
C22   C48   S    
C25   C31   A    
C55   H14   S    
C11   C13   A    
C41   C42   A    
C36   C42   A    
C35   C36   A    
Cr5   O9    S    
C47   O6    A    
C49   O17   A    
C2    C12   S    
Cr4   O14   S    
Cr5   O8    S    
C27   O31   S    
C58   H23   S    
C26   C32   A    
C26   C27   A    
C37   C38   A    
C45   O3    A    
C14   C21   A    
C28   C29   A    
C30   C31   A    
Cr6   O10   S    
C19   O29   S    
C56   H17   S    
C15   C16   A    
C46   C52   S    
C26   H13   S    
Cr2   O5    S    
C23   O23   A    
C18   C19   A    
Cr5   O16   S    
Cr5   O15   S    
C59   H28   S    
C34   O25   A    
O29   C57   S    
Cr1   O1    S    
C19   C20   A    
C8    C9    S    
C40   H7    S    
C48   O15   A    
C12   O22   A    
Cr4   O7    S    
C25   C32   A    
C31   O27   S    
C17   H10   S    
C55   H15   S    
Cr2   O2    S    
C46   O9    A    
C30   H3    S    
C39   H5    S    
C12   O21   A    
C16   H11   S    
Cr4   O13   S    
C52   C54   T    
C17   C18   A    
C41   H8    S    
C21   C45   S    
Cr6   O19   S    
C1    O12   A    
Cr2   O20   S    
C3    C44   S    
C34   C43   S    
Cr3   O4    S    
C44   O7    A    
C24   C25   A    
C4    C6    T    
C44   O8    A    
C39   C40   A    
Cr1   O5    S    
C33   C50   S    
C53   C54   S    
Cr3   O23   S    
C42   H9    S    
C7    C47   S    
Cr1   O12   S    
Cr2   O21   S    
C51   O4    A    
C32   C51   S    
C29   C30   A    
C11   C49   S    
C28   O30   S    
C14   C20   A    
C11   C16   A    
Cr1   O24   S    
C34   O26   A    
C15   H1    S    
C48   O14   A    
C57   H21   S    
C47   O11   A    
C59   H26   S    
Cr4   O6    S    
C1    O20   A    
C40   C41   A    
C55   H16   S    
C22   C27   A    
C22   C24   A    
C37   C43   A    
C23   O1    A    
C37   H4    S    
O31   C59   S    
Cr3   O3    S    
Cr6   O18   S    
C7    C9    T    
C38   H6    S    
C29   H2    S    
C57   H20   S    
Cr3   O5    S    
C1    C10   S    
C24   C28   A    
C49   O16   A    
C4    C5    S    
C3    C5    T    
C2    C53   T    
Cr6   O17   S    
O28   C56   S    
C33   C38   A    
C58   H25   S    
C13   C17   A    
C45   O2    A    
C18   O28   S    
Cr6   O11   S    
C56   H18   S    
C6    C23   S    
Cr1   O25   S    
O27   C55   S    
C33   C35   A    
C58   H24   S    
C57   H22   S    
Cr5   O19   S    
C59   H27   S    
C50   O13   A    
C46   O10   A    
C50   O18   A    
C15   C21   A    
C35   C39   A    
C8    C10   T    
Cr3   O22   S    
C20   H12   S    
C36   C43   A    
Cr2   O26   S    
C13   C14   A    
Cr4   O19   S    
O30   C58   S    
C56   H19   S    
