data_mof_unit_24252.cif
_audit_creation_date              2012-12-11T14:58:42-0500
_audit_creation_method            fapswitch 2.2
_symmetry_space_group_name_H-M    P1
_symmetry_Int_Tables_number       1
_space_group_crystal_system       triclinic
_cell_length_a                    10.921306
_cell_length_b                    10.906206
_cell_length_c                    18.79186
_cell_angle_alpha                 90.347768
_cell_angle_beta                  90.232296
_cell_angle_gamma                 60.163035
_cell_volume                      1941.56306511

loop_
_atom_site_label
_atom_site_type_symbol
_atom_type_description
_atom_site_fract_x
_atom_site_fract_y
_atom_site_fract_z
_atom_type_partial_charge
Br1   Br    Br    0.175385 0.102531 0.387577 -0.553721
Br2   Br    Br    0.557153 0.005689 0.797933 -0.507900
Br3   Br    Br    0.830009 0.060106 0.671646 -0.478681
C1    C     C_R   0.359109 0.771858 0.397197 0.598862
C2    C     C_R   0.229903 0.424730 0.204293 -0.151143
C3    C     C_R   0.234537 0.433165 0.278102 -0.029495
C4    C     C_R   0.387141 0.354963 0.387642 0.538352
C5    C     C_R   0.887518 0.710001 0.413083 -0.120193
C6    C     C_R   0.965150 0.565953 0.426137 -0.075158
C7    C     C_R   0.066512 0.476564 0.377476 -0.067642
C8    C     C_R   0.103771 0.530516 0.318749 0.044489
C9    C     C_R   0.363661 0.342872 0.312480 0.015782
C10   C     C_R   0.830563 0.245385 0.291430 0.099988
C11   C     C_R   0.866844 0.228147 0.220586 -0.137681
C12   C     C_R   0.610526 0.134534 0.163363 0.050641
C13   C     C_R   0.848015 0.343186 0.180527 -0.001715
C14   C     C_R   0.791286 0.477750 0.210836 -0.149117
C15   C     C_R   0.755432 0.496191 0.281718 -0.171888
C16   C     C_R   0.722072 0.410283 0.394499 0.568010
C17   C     C_R   0.772537 0.381336 0.322215 0.073333
C18   C     C_R   0.413973 0.729550 0.270853 -0.177963
C19   C     C_R   0.396935 0.775003 0.200876 -0.113832
C20   C     C_R   0.311001 0.918472 0.185653 0.006573
C21   C     C_R   0.245595 0.016996 0.240964 -0.141423
C22   C     C_R   0.265431 0.971088 0.311577 0.131114
C23   C     C_R   0.350282 0.329029 0.164927 -0.000159
C24   C     C_R   0.348432 0.827045 0.326120 0.053191
C25   C     C_R   0.398597 0.197030 0.693163 -0.071220
C26   C     C_R   0.403625 0.184861 0.765760 0.170537
C27   C     C_R   0.310042 0.303416 0.808612 0.038384
C28   C     C_R   0.371545 0.705279 0.611143 0.565984
C29   C     C_R   0.221601 0.433065 0.776486 -0.158070
C30   C     C_R   0.224728 0.445534 0.703151 -0.154436
C31   C     C_R   0.318714 0.328348 0.662063 -0.004452
C32   C     C_R   0.887223 0.411844 0.708044 -0.150866
C33   C     C_R   0.910520 0.406277 0.780314 0.078744
C34   C     C_R   0.483907 0.254094 0.272823 -0.151397
C35   C     C_R   0.916940 0.292530 0.820036 0.015220
C36   C     C_R   0.900062 0.188066 0.784949 -0.130319
C37   C     C_R   0.862714 0.202832 0.713028 0.153119
C38   C     C_R   0.848565 0.321143 0.675305 0.017524
C39   C     C_R   0.227339 0.770754 0.720924 -0.121602
C40   C     C_R   0.367370 0.349499 0.594432 0.548253
C41   C     C_R   0.207017 0.808660 0.791998 -0.135227
C42   C     C_R   0.314377 0.812584 0.831279 0.026287
C43   C     C_R   0.447860 0.762071 0.800626 -0.102516
C44   C     C_R   0.468692 0.723395 0.728903 -0.116918
C45   C     C_R   0.480143 0.243674 0.200044 -0.034284
C46   C     C_R   0.356017 0.734275 0.687803 0.020414
C47   C     C_R   0.909437 0.316652 0.111157 0.541871
C48   C     C_R   0.327324 0.293891 0.093039 0.532437
C49   C     C_R   0.272670 0.962174 0.112356 0.553794
C50   C     C_R   0.946650 0.282496 0.896644 0.590688
C51   C     C_R   0.295387 0.284590 0.884018 0.556473
C52   C     C_R   0.770589 0.372279 0.608405 0.569535
C53   C     C_R   0.277972 0.888800 0.899139 0.548876
C54   C     C_R   0.829147 0.930746 0.078040 -0.126320
C55   C     C_R   0.770555 0.074043 0.062996 -0.083199
C56   C     C_R   0.027151 0.678534 0.306903 0.131634
C57   C     C_R   0.664536 0.175685 0.106241 -0.090659
C58   C     C_R   0.917380 0.765289 0.353389 -0.046236
C59   C     C_R   0.670218 0.987925 0.178246 0.132571
C60   C     C_R   0.779218 0.887997 0.135435 -0.054686
Cr1   Cr    Cr6+3 0.601770 0.606860 0.505860 1.013681
Cr2   Cr    Cr6+3 0.291380 0.601660 0.495070 1.037924
Cr3   Cr    Cr6+3 0.606880 0.291510 0.499120 1.089918
Cr4   Cr    Cr6+3 0.062440 0.063090 0.008210 0.983008
Cr5   Cr    Cr6+3 0.062880 0.375170 0.998920 1.014089
Cr6   Cr    Cr6+3 0.374700 0.061720 0.992470 1.060782
H1    H     H_    0.583566 0.192007 0.298927 0.144272
H2    H     H_    0.177546 0.128002 0.229130 0.127965
H3    H     H_    0.823011 0.776286 0.145677 0.121849
H4    H     H_    0.471480 0.106535 0.661492 0.188196
H5    H     H_    0.154752 0.525336 0.808407 0.148112
H6    H     H_    0.161525 0.548494 0.679380 0.135824
H7    H     H_    0.883239 0.499334 0.679023 0.146451
H8    H     H_    0.909151 0.098559 0.814093 0.164507
H9    H     H_    0.139528 0.776142 0.691397 0.167653
H10   H     H_    0.857980 0.877011 0.345335 0.128661
H11   H     H_    0.103707 0.843804 0.814651 0.148617
H12   H     H_    0.806200 0.779344 0.449984 0.123851
H13   H     H_    0.533777 0.758218 0.831272 0.160169
H14   H     H_    0.570973 0.689445 0.705240 0.150397
H15   H     H_    0.911790 0.852588 0.044471 0.114007
H16   H     H_    0.805901 0.106384 0.016994 0.168727
H17   H     H_    0.619270 0.286456 0.093051 0.107285
H18   H     H_    0.128447 0.484514 0.178339 0.141863
H19   H     H_    0.809504 0.075431 0.302721 0.196404
H20   H     H_    0.964395 0.051753 0.330333 0.280193
H21   H     H_    0.927665 0.586049 0.775856 0.218737
H22   H     H_    0.811881 0.590651 0.833942 0.251985
H23   H     H_    0.947845 0.523200 0.474431 0.158168
H24   H     H_    0.047787 0.713303 0.202836 0.220645
H25   H     H_    0.172440 0.711231 0.257432 0.252671
H26   H     H_    0.639895 0.964427 0.282522 0.221924
H27   H     H_    0.507384 0.986364 0.227896 0.255045
H28   H     H_    0.126702 0.366305 0.389814 0.173074
H29   H     H_    0.914988 0.122578 0.197962 0.154214
H30   H     H_    0.778201 0.567582 0.180419 0.149220
H31   H     H_    0.712249 0.601018 0.304724 0.156159
H32   H     H_    0.472078 0.617347 0.281767 0.098875
H33   H     H_    0.444327 0.697839 0.158423 0.136810
N1    N     N_3   0.856185 0.123505 0.331204 -0.563985
N2    N     N_3   0.912974 0.524446 0.813556 -0.578833
N3    N     N_3   0.065115 0.744876 0.252517 -0.638698
N4    N     N_3   0.616686 0.936925 0.233124 -0.639303
O1    O     O_R   0.748800 0.497470 0.428000 -0.536117
O2    O     O_R   0.417600 0.174890 0.067840 -0.506341
O3    O     O_R   0.375320 0.946260 0.070860 -0.490574
O4    O     O_R   0.476420 0.724060 0.429470 -0.510231
O5    O     O_R   0.160600 0.919630 0.926660 -0.537385
O6    O     O_R   0.933060 0.190520 0.936020 -0.530863
O7    O     O_R   0.908880 0.403460 0.925020 -0.483839
O8    O     O_R   0.179600 0.361450 0.918490 -0.504214
O9    O     O_R   0.391510 0.170860 0.907530 -0.461930
O10   O     O_R   0.351130 0.942530 0.922260 -0.474035
O11   O     O_3   0.166667 0.166667 0.999870 -0.295208
O12   O     O_R   0.300070 0.471040 0.567100 -0.527906
O13   O     O_R   0.264580 0.744340 0.416750 -0.481735
O14   O     O_R   0.309380 0.472470 0.418200 -0.507657
O15   O     O_R   0.501710 0.260430 0.414300 -0.519367
O16   O     O_R   0.728090 0.305600 0.428960 -0.438981
O17   O     O_R   0.738760 0.495930 0.588610 -0.554941
O18   O     O_R   0.467110 0.722640 0.578360 -0.484770
O19   O     O_R   0.254530 0.742800 0.577360 -0.488183
O20   O     O_R   0.491670 0.258900 0.574910 -0.482879
O21   O     O_R   0.718780 0.304180 0.577850 -0.437759
O22   O     O_3   0.500010 0.500010 0.500020 -0.313935
O23   O     O_R   0.186690 0.923650 0.086970 -0.512074
O24   O     O_R   0.957250 0.194250 0.084630 -0.532953
O25   O     O_R   0.934970 0.407490 0.085330 -0.523972
O26   O     O_R   0.203780 0.365190 0.067090 -0.515830

loop_
_geom_bond_atom_site_label_1
_geom_bond_atom_site_label_2
_ccdc_geom_bond_type
C5    C6    A    
H25   N3    S    
Cr5   O25   S    
C12   C57   A    
C16   C17   S    
H22   N2    S    
C3    C9    A    
C1    C24   S    
C20   C49   S    
C16   O16   A    
C42   C43   A    
C27   C51   S    
C56   N3    S    
C15   H31   S    
Br2   C26   S    
C49   O23   A    
C36   H8    S    
C25   C26   A    
C13   C47   S    
C28   O18   A    
C29   H5    S    
C2    C3    A    
C55   C57   A    
Cr2   O14   S    
Cr3   O21   S    
C6    H23   S    
C9    C34   A    
Cr5   O26   S    
C38   C52   S    
H27   N4    S    
C47   O24   A    
C10   C11   A    
H24   N3    S    
C43   H13   S    
Cr6   O3    S    
C30   H6    S    
C32   C33   A    
C42   C53   S    
C48   O2    A    
Cr1   O22   S    
Cr2   O12   S    
Cr3   O16   S    
C1    O13   A    
C11   H29   S    
C44   H14   S    
C10   N1    S    
C6    C7    A    
C53   O5    A    
C23   C45   A    
C5    C58   A    
C18   H32   S    
C18   C24   A    
C25   C31   A    
C18   C19   A    
H20   N1    S    
Br1   C22   S    
Cr4   O23   S    
C39   C41   A    
C12   C45   S    
C4    O15   A    
C8    C56   A    
C25   H4    S    
C40   O20   A    
Cr6   O2    S    
C50   O7    A    
C54   C60   A    
C53   O10   A    
C4    C9    S    
C52   O17   A    
C32   H7    S    
C56   C58   A    
C5    H12   S    
Cr2   O22   S    
C41   H11   S    
C30   C31   A    
C21   C22   A    
C44   C46   A    
C47   O25   A    
C3    C8    S    
C57   H17   S    
C13   C14   A    
C39   C46   A    
Cr1   O18   S    
Cr3   O20   S    
Cr2   O19   S    
C7    H28   S    
C26   C27   A    
H26   N4    S    
Cr5   O11   S    
C14   H30   S    
Cr1   O4    S    
C20   C21   A    
C51   O9    A    
C59   C60   A    
C14   C15   A    
Cr2   O13   S    
Cr3   O15   S    
C34   C45   A    
Cr4   O11   S    
H21   N2    S    
C50   O6    A    
Cr4   O5    S    
C37   C38   A    
C52   O21   A    
Br3   C37   S    
C39   H9    S    
C11   C13   A    
Cr4   O24   S    
C28   O19   A    
C55   H16   S    
C36   C37   A    
H19   N1    S    
C41   C42   A    
Cr1   O1    S    
C1    O4    A    
C43   C44   A    
Cr6   O9    S    
C54   H15   S    
C10   C17   A    
C4    O14   A    
C31   C40   S    
Cr6   O10   S    
C48   O26   A    
C59   N4    S    
C22   C24   A    
Cr1   O17   S    
Cr5   O7    S    
C19   H33   S    
C33   N2    S    
C29   C30   A    
C33   C35   A    
C23   C48   S    
C27   C29   A    
C54   C55   A    
C35   C36   A    
C35   C50   S    
C49   O3    A    
C58   H10   S    
C51   O8    A    
Cr6   O11   S    
C12   C59   A    
Cr3   O22   S    
C15   C17   A    
C32   C38   A    
C7    C8    A    
C40   O12   A    
C2    C23   A    
C2    H18   S    
Cr4   O6    S    
C60   H3    S    
C19   C20   A    
C28   C46   S    
C34   H1    S    
C21   H2    S    
Cr5   O8    S    
C16   O1    A    
