data_mof_unit_34502.cif
_audit_creation_date              2012-12-10T17:28:36-0500
_audit_creation_method            fapswitch 2.2
_symmetry_space_group_name_H-M    P1
_symmetry_Int_Tables_number       1
_space_group_crystal_system       triclinic
_cell_length_a                    10.594246
_cell_length_b                    11.944221
_cell_length_c                    12.782566
_cell_angle_alpha                 94.491701
_cell_angle_beta                  89.544932
_cell_angle_gamma                 86.167496
_cell_volume                      1608.79095268

loop_
_atom_site_label
_atom_site_type_symbol
_atom_type_description
_atom_site_fract_x
_atom_site_fract_y
_atom_site_fract_z
_atom_type_partial_charge
C1    C     C_R   0.503673 0.523356 0.700018 0.928174
C2    C     C_R   0.584170 0.486841 0.126047 -0.079228
C3    C     C_R   0.438278 0.494865 0.979411 0.071238
C4    C     C_R   0.561722 0.505135 0.020588 0.071238
C5    C     C_R   0.355508 0.956766 0.429201 0.447537
C6    C     C_R   0.644492 0.043234 0.570801 0.447549
C7    C     C_R   0.373260 0.838882 0.434256 -0.127243
C8    C     C_R   0.626740 0.161118 0.565745 -0.127257
C9    C     C_R   0.566366 0.856835 0.524557 -0.013297
C10   C     C_R   0.433634 0.143165 0.475443 -0.013298
C11   C     C_R   0.553675 0.974912 0.523778 -0.092045
C12   C     C_R   0.496326 0.476644 0.299981 0.928175
C13   C     C_R   0.446325 0.025088 0.476223 -0.092048
C14   C     C_R   0.739901 0.497629 0.483847 0.918087
C15   C     C_R   0.260099 0.502371 0.516153 0.918088
C16   C     C_R   0.906585 0.286397 0.451061 -0.151299
C17   C     C_R   0.093415 0.713603 0.548936 -0.151302
C18   C     C_R   0.970042 0.189316 0.483515 -0.137563
C19   C     C_R   0.029958 0.810684 0.516481 -0.137546
C20   C     C_R   0.075908 0.198151 0.546375 -0.116670
C21   C     C_R   0.924092 0.801849 0.453622 -0.116658
C22   C     C_R   0.124060 0.302980 0.569256 -0.109032
C23   C     C_R   0.483220 0.459968 0.188764 -0.166413
C24   C     C_R   0.875939 0.697020 0.430742 -0.109034
C25   C     C_R   0.066426 0.400911 0.529048 0.079985
C26   C     C_R   0.933573 0.599089 0.470950 0.079985
C27   C     C_R   0.948859 0.394195 0.481263 0.085579
C28   C     C_R   0.051141 0.605805 0.518735 0.085578
C29   C     C_R   0.123696 0.504672 0.533251 -0.228716
C30   C     C_R   0.876303 0.495327 0.466748 -0.228716
C31   C     C_3   0.208817 0.949560 0.294819 -0.289628
C32   C     C_3   0.791207 0.050457 0.705168 -0.289630
C33   C     C_2   0.711005 0.498692 0.173645 0.872684
C34   C     C_R   0.516780 0.540032 0.811236 -0.166413
C35   C     C_2   0.288994 0.501307 0.826355 0.872684
C36   C     C_2   0.254109 0.415455 0.213129 0.901020
C37   C     C_2   0.745891 0.584545 0.786871 0.901022
C38   C     C_R   0.659808 0.534396 0.955872 -0.196709
C39   C     C_R   0.340192 0.465604 0.044128 -0.196709
C40   C     C_R   0.638252 0.553954 0.851938 -0.069135
C41   C     C_R   0.361748 0.446045 0.148062 -0.069134
C42   C     C_R   0.415829 0.513158 0.873953 -0.079227
H1    H     H_    0.877618 0.876450 0.424435 0.159570
H2    H     H_    0.245305 0.458377 0.015011 0.208111
H3    H     H_    0.353877 0.184161 0.438086 0.212776
H4    H     H_    0.646123 0.815839 0.561914 0.212778
H5    H     H_    0.696623 0.216143 0.596678 0.159857
H6    H     H_    0.303376 0.783858 0.403323 0.159859
H7    H     H_    0.151578 0.878846 0.313124 0.171522
H8    H     H_    0.290372 0.919279 0.242134 0.172398
H9    H     H_    0.147045 0.008030 0.251333 0.210276
H10   H     H_    0.709664 0.080768 0.757857 0.172394
H11   H     H_    0.848462 0.121153 0.686837 0.171520
H12   H     H_    0.122382 0.123550 0.575562 0.159575
H13   H     H_    0.852971 0.991989 0.748664 0.210277
H14   H     H_    0.858128 0.424584 0.246928 0.357681
H15   H     H_    0.141872 0.575414 0.753070 0.357681
H16   H     H_    0.192258 0.319240 0.323139 0.346445
H17   H     H_    0.807741 0.680760 0.676861 0.346446
H18   H     H_    0.824862 0.276465 0.401781 0.187362
H19   H     H_    0.175138 0.723536 0.598216 0.187361
H20   H     H_    0.935210 0.107579 0.462075 0.162909
H21   H     H_    0.064790 0.892421 0.537921 0.162910
H22   H     H_    0.205922 0.306861 0.619145 0.186199
H23   H     H_    0.794077 0.693139 0.380854 0.186199
H24   H     H_    0.754694 0.541623 0.984989 0.208111
N1    N     N_R   0.523130 0.207800 0.519340 -0.133040
N2    N     N_R   0.476870 0.792200 0.480660 -0.133043
O1    O     O_R   0.506170 0.421700 0.658830 -0.629917
O2    O     O_3   0.752896 0.991676 0.611964 -0.635871
O3    O     O_2   0.760115 0.588607 0.175411 -0.626343
O4    O     O_R   0.771799 0.407248 0.218825 -0.808350
O5    O     O_2   0.239886 0.411391 0.824589 -0.626344
O6    O     O_R   0.228200 0.592750 0.781174 -0.808349
O7    O     O_2   0.147569 0.457861 0.200300 -0.621816
O8    O     O_R   0.273394 0.335047 0.286102 -0.781771
O9    O     O_2   0.852430 0.542138 0.799700 -0.621816
O10   O     O_R   0.726606 0.664954 0.713898 -0.781766
O11   O     O_R   0.493830 0.578300 0.341170 -0.629918
O12   O     O_R   0.491330 0.609310 0.646410 -0.557944
O13   O     O_R   0.508670 0.390690 0.353590 -0.557944
O14   O     O_R   0.690650 0.406190 0.506220 -0.629651
O15   O     O_R   0.309350 0.593810 0.493780 -0.629651
O16   O     O_R   0.675800 0.593810 0.493800 -0.617320
O17   O     O_R   0.324200 0.406190 0.506200 -0.617318
O18   O     O_3   0.247101 0.008321 0.388040 -0.635879
Zn1   Zn    Zn3+2 0.509910 0.374730 0.508290 0.979581
Zn2   Zn    Zn3+2 0.490090 0.625270 0.491710 0.979581

loop_
_geom_bond_atom_site_label_1
_geom_bond_atom_site_label_2
_ccdc_geom_bond_type
C35   O6    S    
C34   C42   A    
C14   O16   A    
H16   O8    S    
C3    C42   A    
C10   N1    A    
C12   C23   S    
C34   C40   A    
C28   C29   A    
C19   C21   A    
C14   C30   S    
C37   C40   S    
O14   Zn1   S    
C12   O11   A    
C16   H18   S    
C35   C42   S    
C32   H10   S    
C36   O8    S    
C33   O4    S    
C17   H19   S    
C7    N2    A    
C21   H1    S    
C38   H24   S    
C19   H21   S    
H14   O4    S    
C22   C25   A    
C32   H13   S    
C5    C13   A    
O1    Zn1   S    
C15   O17   A    
C16   C27   A    
O15   Zn2   S    
C3    C39   A    
C9    H4    S    
C31   O18   S    
C27   C30   A    
C36   C41   S    
C31   H7    S    
H17   O10   S    
O11   Zn2   S    
C1    C34   S    
C15   C29   S    
O17   Zn1   S    
C25   C29   A    
C20   H12   S    
C6    C11   A    
C5    C7    A    
C18   H20   S    
C6    C8    A    
C37   O9    D    
C1    O1    A    
H15   O6    S    
C2    C4    A    
C36   O7    D    
C10   H3    S    
C9    C11   A    
O13   Zn1   S    
C24   H23   S    
C5    O18   S    
C2    C33   S    
C20   C22   A    
C26   C30   A    
N2    Zn2   S    
C14   O14   A    
C31   H8    S    
C3    C4    A    
C32   H11   S    
C6    O2    S    
C35   O5    D    
C17   C28   A    
N1    Zn1   S    
O16   Zn2   S    
C31   H9    S    
C10   C13   A    
C32   O2    S    
C39   H2    S    
C25   C27   A    
C37   O10   S    
C26   C28   A    
C23   C41   A    
C7    H6    S    
C9    N2    A    
O12   Zn2   S    
C38   C40   A    
C11   C13   A    
C24   C26   A    
C15   O15   A    
C17   C19   A    
C12   O13   A    
C18   C20   A    
C8    H5    S    
C33   O3    D    
C22   H22   S    
C39   C41   A    
C8    N1    A    
C16   C18   A    
C21   C24   A    
C2    C23   A    
C1    O12   A    
C4    C38   A    
