data_mof_unit_57319.cif
_audit_creation_date              2012-12-10T20:25:43-0500
_audit_creation_method            fapswitch 2.2
_symmetry_space_group_name_H-M    P1
_symmetry_Int_Tables_number       1
_space_group_crystal_system       triclinic
_cell_length_a                    8.598828
_cell_length_b                    10.718896
_cell_length_c                    9.862824
_cell_angle_alpha                 89.970037
_cell_angle_beta                  97.255356
_cell_angle_gamma                 91.131563
_cell_volume                      901.599609785

loop_
_atom_site_label
_atom_site_type_symbol
_atom_type_description
_atom_site_fract_x
_atom_site_fract_y
_atom_site_fract_z
_atom_type_partial_charge
C1    C     C_R   0.488953 0.260155 0.498183 0.921353
C2    C     C_R   0.404865 0.418448 0.918071 0.187714
C3    C     C_3   0.230321 0.415788 0.892638 -0.506938
C4    C     C_R   0.202490 0.506710 0.465838 0.851622
C5    C     C_3   0.229211 0.419914 0.045673 -0.453947
C6    C     C_R   0.498533 0.740452 0.499079 1.020075
C7    C     C_R   0.798394 0.503923 0.534299 1.007033
C8    C     C_2   0.044122 0.539323 0.452223 0.332535
C9    C     C_2   0.962117 0.496805 0.549306 -0.502463
C10   C     C_R   0.422515 0.061175 0.602718 -0.007104
C11   C     C_R   0.456622 0.128912 0.489644 -0.266729
C12   C     C_R   0.487905 0.937828 0.368602 0.419950
C13   C     C_R   0.455639 0.065254 0.364242 0.370039
C14   C     C_3   0.295946 0.097990 0.166696 -0.208193
C15   C     C_3   0.665290 0.932879 0.210946 -0.075713
C16   C     C_R   0.474842 0.871999 0.491552 -0.308806
C17   C     C_R   0.422274 0.934085 0.600841 0.049863
C18   C     C_3   0.466703 0.926478 0.752140 0.354023
C19   C     C_3   0.472994 0.069310 0.753011 -0.504822
C20   C     C_R   0.404096 0.419106 0.061089 0.229732
C21   C     C_R   0.594482 0.579103 0.082048 0.000376
C22   C     C_R   0.596607 0.577919 0.938594 -0.048081
H1    H     H_    0.672481 0.642788 0.892721 0.153572
H2    H     H_    0.664568 0.646969 0.143925 0.222944
H3    H     H_    0.097518 0.809275 0.237039 0.363390
H4    H     H_    0.291842 0.138440 0.062871 0.188701
H5    H     H_    0.199821 0.138290 0.217314 0.131758
H6    H     H_    0.275956 0.995732 0.153051 0.218560
H7    H     H_    0.725211 0.862161 0.155451 0.179963
H8    H     H_    0.751041 0.967586 0.297639 0.131568
H9    H     H_    0.633910 0.008820 0.136714 0.188206
H10   H     H_    0.293014 0.765467 0.025055 0.385735
H11   H     H_    0.182186 0.501325 0.840811 0.261260
H12   H     H_    0.183397 0.326359 0.845469 0.198937
H13   H     H_    0.184063 0.509031 0.081147 0.263204
H14   H     H_    0.176553 0.335149 0.087057 0.196916
H15   H     H_    0.014250 0.439691 0.633576 0.136113
H16   H     H_    0.582064 0.882621 0.782090 0.072767
H17   H     H_    0.384651 0.114942 0.808276 0.234788
H18   H     H_    0.594244 0.108051 0.777108 0.176916
N1    N     N_R   0.498950 0.499140 0.142680 -0.130278
N2    N     N_R   0.498950 0.499180 0.857030 -0.106632
O1    O     O_R   0.500020 0.316790 0.614690 -0.629981
O2    O     O_2   0.849850 0.727437 0.368487 -0.341352
O3    O     O_3   0.135502 0.752878 0.313160 -0.559756
O4    O     O_3   0.443146 0.128034 0.240804 -0.602626
O5    O     O_3   0.529020 0.877317 0.253946 -0.556771
O6    O     O_2   0.179261 0.950430 0.837251 -0.328625
O7    O     O_2   0.244382 0.745009 0.755127 -0.281506
O8    O     O_3   0.377905 0.817210 0.993116 -0.556811
O9    O     O_R   0.500000 0.316760 0.385350 -0.573846
O10   O     O_R   0.271760 0.500010 0.587850 -0.624764
O11   O     O_R   0.271740 0.499970 0.358500 -0.598655
O12   O     O_R   0.500000 0.683240 0.614650 -0.617706
O13   O     O_R   0.499980 0.683210 0.385310 -0.532366
O14   O     O_R   0.728260 0.500030 0.641500 -0.633162
O15   O     O_R   0.728240 0.499990 0.412150 -0.571079
O16   O     O_2   0.937898 0.590318 0.193328 -0.373904
S1    S     S_3+6 0.983981 0.654315 0.328147 0.000754
S2    S     S_3+6 0.308933 0.858974 0.833131 0.011033
Zn1   Zn    Zn3+2 0.500010 0.500020 0.653130 0.989575
Zn2   Zn    Zn3+2 0.499990 0.499980 0.346870 1.051642

loop_
_geom_bond_atom_site_label_1
_geom_bond_atom_site_label_2
_ccdc_geom_bond_type
C8    C9    D    
O13   Zn2   S    
C15   H9    S    
O12   Zn1   S    
C14   H5    S    
C11   C13   A    
O11   Zn2   S    
C6    O13   A    
C1    C11   S    
C15   O5    S    
C10   C19   S    
C4    C8    S    
O6    S2    D    
O8    S2    S    
C3    C5    S    
C9    H15   S    
C17   C18   S    
C18   H16   S    
O7    S2    D    
O15   Zn2   S    
C14   O4    S    
C5    C20   S    
C21   C22   A    
C14   H4    S    
C1    O9    A    
N2    Zn1   S    
H10   O8    S    
C22   N2    A    
O9    Zn2   S    
C19   H17   S    
N1    Zn2   S    
C4    O10   A    
C12   O5    S    
C21   N1    A    
C7    O14   A    
C18   S2    S    
C6    O12   A    
C15   H7    S    
C2    C3    S    
O10   Zn1   S    
C8    S1    S    
C13   O4    S    
C4    O11   A    
C7    O15   A    
C10   C11   A    
C3    H11   S    
O2    S1    D    
C2    C20   A    
C5    H14   S    
H3    O3    S    
C12   C13   A    
O1    Zn1   S    
C15   H8    S    
C18   C19   S    
C19   H18   S    
C21   H2    S    
C7    C9    S    
O14   Zn1   S    
O3    S1    S    
C10   C17   A    
C3    H12   S    
C14   H6    S    
O16   S1    D    
C22   H1    S    
C6    C16   S    
C5    H13   S    
C1    O1    A    
C12   C16   A    
C20   N1    A    
C16   C17   A    
C2    N2    A    
