data_mof_unit_44213.cif
_audit_creation_date              2012-12-11T14:07:28-0500
_audit_creation_method            fapswitch 2.2
_symmetry_space_group_name_H-M    P1
_symmetry_Int_Tables_number       1
_space_group_crystal_system       triclinic
_cell_length_a                    20.196542
_cell_length_b                    17.081287
_cell_length_c                    15.91265
_cell_angle_alpha                 90.741708
_cell_angle_beta                  53.130749
_cell_angle_gamma                 89.87606
_cell_volume                      4391.00494943

loop_
_atom_site_label
_atom_site_type_symbol
_atom_type_description
_atom_site_fract_x
_atom_site_fract_y
_atom_site_fract_z
_atom_type_partial_charge
C1    C     C_R   0.344859 0.179412 0.042448 0.593899
C2    C     C_R   0.345476 0.821716 0.034389 0.555862
C3    C     C_R   0.844689 0.679250 0.042553 0.592850
C4    C     C_R   0.845492 0.321730 0.034395 0.555032
C5    C     C_R   0.629374 0.894334 0.106876 -0.235724
C6    C     C_R   0.656992 0.092409 0.070622 -0.228574
C7    C     C_R   0.128701 0.394392 0.107607 -0.234505
C8    C     C_R   0.157379 0.592188 0.070067 -0.228618
C9    C     C_R   0.691939 0.160777 0.013312 -0.053301
C10   C     C_R   0.647038 0.816013 0.075352 -0.012924
C11   C     C_R   0.192548 0.660411 0.012398 -0.053000
C12   C     C_R   0.145654 0.315917 0.077140 -0.013920
C13   C     C_R   0.683147 0.854852 0.677041 0.183004
C14   C     C_R   0.623316 0.178480 0.693554 0.232450
C15   C     C_R   0.182414 0.354319 0.677170 0.187905
C16   C     C_R   0.124469 0.677878 0.693009 0.234028
C17   C     C_3   0.289016 0.179925 0.487961 0.401221
C18   C     C_3   0.227578 0.858425 0.524427 0.380321
C19   C     C_3   0.788956 0.680064 0.487882 0.399959
C20   C     C_3   0.727420 0.358745 0.524385 0.381810
C21   C     C_3   0.230114 0.222641 0.593264 -0.569254
C22   C     C_3   0.171267 0.810124 0.624165 -0.627993
C23   C     C_3   0.730236 0.723015 0.593087 -0.570436
C24   C     C_3   0.670339 0.310738 0.624426 -0.627797
C25   C     C_3   0.400151 0.287369 0.424353 0.389495
C26   C     C_3   0.323333 0.740082 0.429950 0.308652
C27   C     C_3   0.900914 0.786347 0.424167 0.392527
C28   C     C_3   0.822669 0.239753 0.430175 0.304595
C29   C     C_3   0.796209 0.800008 0.385348 0.370595
C30   C     C_3   0.694848 0.265108 0.430536 0.316714
C31   C     C_3   0.295289 0.299179 0.385616 0.373106
C32   C     C_3   0.195315 0.764699 0.430506 0.315681
C33   C     C_3   0.350127 0.238299 0.395080 -0.221872
C34   C     C_3   0.270165 0.802240 0.423460 -0.184419
C35   C     C_3   0.850428 0.738209 0.394999 -0.221816
C36   C     C_3   0.769858 0.302329 0.423534 -0.185438
C37   C     C_3   0.746736 0.812146 0.576504 -0.126172
C38   C     C_3   0.675125 0.224224 0.596867 -0.111902
C39   C     C_3   0.246086 0.311803 0.576682 -0.128235
C40   C     C_3   0.176111 0.723616 0.596312 -0.114403
C41   C     C_3   0.839448 0.826132 0.537658 0.908926
C42   C     C_3   0.767481 0.193445 0.534738 0.919847
C43   C     C_3   0.338578 0.326337 0.538154 0.913007
C44   C     C_3   0.268547 0.692965 0.533752 0.920120
C45   C     C_R   0.370702 0.813757 0.221911 0.789460
C46   C     C_R   0.408024 0.201034 0.202957 0.620524
C47   C     C_R   0.870803 0.313709 0.221950 0.787777
C48   C     C_R   0.907808 0.701031 0.203042 0.619560
C49   C     C_3   0.731385 0.836260 0.494328 0.262296
C50   C     C_3   0.641898 0.214690 0.530845 0.289439
C51   C     C_3   0.230405 0.335462 0.494527 0.261178
C52   C     C_3   0.142562 0.714239 0.530682 0.290810
C53   C     C_2   0.247521 0.711006 0.015665 -0.141649
C54   C     C_2   0.192056 0.264609 0.098580 -0.190097
C55   C     C_2   0.746779 0.211364 0.016809 -0.141349
C56   C     C_2   0.693747 0.764446 0.094768 -0.201117
C57   C     C_2   0.744735 0.288861 0.004654 -0.159483
C58   C     C_2   0.714362 0.690816 0.056185 -0.139380
C59   C     C_2   0.245209 0.788520 0.003868 -0.159563
C60   C     C_2   0.213197 0.190591 0.058368 -0.124359
C61   C     C_R   0.348593 0.898080 0.920823 -0.243234
C62   C     C_R   0.330169 0.089595 0.953696 -0.230806
C63   C     C_R   0.848528 0.398119 0.920926 -0.243271
C64   C     C_R   0.830393 0.589448 0.953313 -0.229506
C65   C     C_R   0.420982 0.112286 0.290788 -0.182685
C66   C     C_R   0.367765 0.914682 0.314179 -0.280837
C67   C     C_R   0.920958 0.612220 0.290783 -0.182374
C68   C     C_R   0.867788 0.414652 0.314210 -0.281187
C69   C     C_R   0.290853 0.153380 0.023464 -0.048710
C70   C     C_R   0.313315 0.833275 0.981137 -0.029253
C71   C     C_R   0.791060 0.653068 0.023017 -0.046435
C72   C     C_R   0.813223 0.333355 0.981303 -0.030189
C73   C     C_R   0.328120 0.845395 0.323660 -0.040316
C74   C     C_R   0.403503 0.190838 0.293430 -0.068204
C75   C     C_R   0.828209 0.345327 0.323677 -0.040363
C76   C     C_R   0.903438 0.690718 0.293405 -0.066518
C77   C     C_R   0.654112 0.181328 0.967378 0.566286
C78   C     C_R   0.624337 0.799067 0.010477 0.572083
C79   C     C_R   0.154454 0.681070 0.966807 0.566067
C80   C     C_R   0.123571 0.298797 0.011553 0.567813
C81   C     C_R   0.645831 0.825281 0.776629 -0.195696
C82   C     C_R   0.606577 0.196279 0.789785 -0.110398
C83   C     C_R   0.145308 0.324892 0.776792 -0.197412
C84   C     C_R   0.107003 0.696055 0.789513 -0.109430
C85   C     C_R   0.599135 0.103287 0.695680 -0.126702
C86   C     C_R   0.636152 0.918493 0.687035 -0.074748
C87   C     C_R   0.099964 0.602855 0.695298 -0.129241
C88   C     C_R   0.135662 0.418097 0.687044 -0.074668
H1    H     H_    0.236759 0.200479 0.652611 0.210287
H2    H     H_    0.192394 0.815828 0.674104 0.229827
H3    H     H_    0.736656 0.700603 0.652510 0.210252
H4    H     H_    0.690930 0.316492 0.674988 0.229826
H5    H     H_    0.337047 0.924195 0.869171 0.129383
H6    H     H_    0.307386 0.056270 0.917962 0.134716
H7    H     H_    0.836895 0.424288 0.869382 0.129310
H8    H     H_    0.807953 0.556320 0.917021 0.134374
H9    H     H_    0.667692 0.775532 0.791184 0.193029
H10   H     H_    0.606465 0.253283 0.819534 0.142423
H11   H     H_    0.166913 0.275066 0.791685 0.190747
H12   H     H_    0.106581 0.753175 0.819194 0.142030
N1    N     N_R   0.408680 0.130160 0.995800 -0.103975
N2    N     N_R   0.408680 0.869840 0.995800 -0.116161
N3    N     N_R   0.908680 0.630160 0.995800 -0.104316
N4    N     N_R   0.908680 0.369840 0.995800 -0.115826
N5    N     N_R   0.421680 0.867580 0.153120 -0.154405
N6    N     N_R   0.421680 0.132420 0.153120 -0.122687
N7    N     N_R   0.921680 0.367580 0.153120 -0.153883
N8    N     N_R   0.921680 0.632420 0.153120 -0.122425
N9    N     N_R   0.403730 0.921770 0.935950 -0.056496
N10   N     N_R   0.403730 0.078230 0.935950 -0.063015
N11   N     N_R   0.903730 0.421770 0.935950 -0.056544
N12   N     N_R   0.903730 0.578230 0.935950 -0.063127
N13   N     N_R   0.426630 0.075970 0.212960 -0.080675
N14   N     N_R   0.426630 0.924030 0.212960 -0.083212
N15   N     N_R   0.926630 0.575970 0.212960 -0.080640
N16   N     N_R   0.926630 0.424030 0.212960 -0.083119
N17   N     N_R   0.591320 0.134600 0.004200 -0.104836
N18   N     N_R   0.591320 0.865400 0.004200 -0.103906
N19   N     N_R   0.091320 0.634600 0.004200 -0.104704
N20   N     N_R   0.091320 0.365400 0.004200 -0.103467
N21   N     N_R   0.578320 0.867660 0.846880 -0.055346
N22   N     N_R   0.578320 0.132340 0.846880 -0.056466
N23   N     N_R   0.078320 0.367660 0.846880 -0.055362
N24   N     N_R   0.078320 0.632340 0.846880 -0.056383
N25   N     N_R   0.573370 0.074390 0.787040 -0.060485
N26   N     N_R   0.573370 0.925610 0.787040 -0.044316
N27   N     N_R   0.073370 0.574390 0.787040 -0.059799
N28   N     N_R   0.073370 0.425610 0.787040 -0.044511
N29   N     N_R   0.596270 0.927870 0.064040 -0.049873
N30   N     N_R   0.596270 0.072130 0.064040 -0.061291
N31   N     N_R   0.096270 0.427870 0.064040 -0.049709
N32   N     N_R   0.096270 0.572130 0.064040 -0.061267
Ni1   Ni    Ni4+2 0.500000 0.131190 0.000000 0.230292
Ni2   Ni    Ni4+2 0.500000 0.868810 0.000000 0.177613
Ni3   Ni    Ni4+2 1.000000 0.631190 0.000000 0.230318
Ni4   Ni    Ni4+2 1.000000 0.368810 0.000000 0.178278
Ni5   Ni    Ni4+2 0.488650 0.000000 0.862740 0.193881
Ni6   Ni    Ni4+2 0.988650 0.500000 0.862740 0.193999
Ni7   Ni    Ni4+2 0.511350 0.000000 0.137260 0.167479
Ni8   Ni    Ni4+2 0.011350 0.500000 0.137260 0.167517
O1    O     O_3   0.345814 0.253041 0.076951 -0.611221
C89   C     C_3   0.395441 0.301463 0.988656 -0.181384
H13   H     H_    0.373160 0.303044 0.939085 0.126381
H14   H     H_    0.461561 0.282556 0.940714 0.126811
H15   H     H_    0.391656 0.362066 0.017103 0.155696
O2    O     O_3   0.291330 0.804906 0.139634 -0.572006
C90   C     C_3   0.237804 0.870437 0.198482 -0.172676
H16   H     H_    0.219769 0.905541 0.156368 0.099064
H17   H     H_    0.264045 0.909944 0.227961 0.108895
H18   H     H_    0.180169 0.845614 0.268622 0.173206
O3    O     O_3   0.845240 0.753134 0.077079 -0.612436
C91   C     C_3   0.895429 0.800976 0.988914 -0.181471
H19   H     H_    0.873629 0.802473 0.939166 0.127124
H20   H     H_    0.961044 0.781614 0.941516 0.127677
H21   H     H_    0.892136 0.861670 0.016941 0.156638
O4    O     O_3   0.791273 0.305117 0.139965 -0.570167
C92   C     C_3   0.737106 0.370918 0.199193 -0.165411
H22   H     H_    0.721382 0.407481 0.155591 0.097703
H23   H     H_    0.761738 0.409820 0.231772 0.107360
H24   H     H_    0.678313 0.345516 0.267878 0.170590
H25   H     H_    0.248267 0.158549 0.467233 0.095174
H26   H     H_    0.189092 0.902045 0.518888 0.057316
H27   H     H_    0.748140 0.658997 0.467069 0.094937
H28   H     H_    0.689369 0.402760 0.518351 0.056155
H29   H     H_    0.664871 0.709550 0.626178 0.211438
H30   H     H_    0.605626 0.333737 0.670416 0.200452
H31   H     H_    0.164824 0.208700 0.626491 0.211351
H32   H     H_    0.106523 0.832954 0.670796 0.200634
H33   H     H_    0.441736 0.248077 0.427431 0.021718
H34   H     H_    0.369216 0.777702 0.426433 0.080102
H35   H     H_    0.941749 0.746492 0.428034 0.020670
H36   H     H_    0.869333 0.277164 0.425630 0.080078
O5    O     O_3   0.851511 0.786990 0.607192 -0.712021
C93   C     C_3   0.829802 0.830231 0.697201 -0.258916
H37   H     H_    0.886610 0.850112 0.686104 0.161657
H38   H     H_    0.799638 0.790737 0.764652 0.217892
H39   H     H_    0.788618 0.881599 0.718304 0.172122
O6    O     O_3   0.790857 0.199683 0.604885 -0.668079
C94   C     C_3   0.869225 0.231072 0.565145 -0.464094
H40   H     H_    0.865516 0.295996 0.567723 0.212797
H41   H     H_    0.920069 0.207919 0.486945 0.151131
H42   H     H_    0.886585 0.213543 0.616350 0.182537
O7    O     O_3   0.351251 0.286906 0.606849 -0.713178
C95   C     C_3   0.329132 0.328919 0.697453 -0.264602
H43   H     H_    0.385535 0.348394 0.687012 0.164339
H44   H     H_    0.299408 0.288730 0.763403 0.218412
H45   H     H_    0.287787 0.380259 0.719552 0.174220
O8    O     O_3   0.291847 0.698550 0.604037 -0.667971
C96   C     C_3   0.370219 0.730195 0.564538 -0.461795
H46   H     H_    0.366286 0.795174 0.567678 0.210097
H47   H     H_    0.421214 0.707301 0.486212 0.152133
H48   H     H_    0.387587 0.712505 0.615701 0.182491
O9    O     O_3   0.849787 0.857334 0.309393 -0.525722
C97   C     C_3   0.811392 0.925723 0.303286 -0.136314
H49   H     H_    0.814703 0.975333 0.348127 0.152133
H50   H     H_    0.747724 0.916372 0.328363 0.077574
H51   H     H_    0.848224 0.943556 0.219669 0.145813
O10   O     O_3   0.714038 0.232240 0.335034 -0.559412
C98   C     C_3   0.716482 0.149387 0.325723 0.009630
H52   H     H_    0.652578 0.125851 0.368669 0.029803
H53   H     H_    0.751597 0.120996 0.351268 0.166287
H54   H     H_    0.748948 0.133505 0.241438 0.155085
O11   O     O_3   0.348170 0.355975 0.309290 -0.523916
C99   C     C_3   0.308877 0.424371 0.302519 -0.132027
H55   H     H_    0.312045 0.475267 0.347237 0.148369
H56   H     H_    0.245073 0.414409 0.327373 0.075121
H57   H     H_    0.345205 0.441587 0.218588 0.145169
O12   O     O_3   0.214500 0.731937 0.334968 -0.559820
C100  C     C_3   0.216641 0.649058 0.325653 0.007879
H58   H     H_    0.152523 0.625747 0.368658 0.030421
H59   H     H_    0.251655 0.620375 0.351324 0.165024
H60   H     H_    0.249156 0.633288 0.241299 0.155343
H61   H     H_    0.764102 0.769100 0.357056 0.077563
H62   H     H_    0.654659 0.316084 0.444676 0.078806
H63   H     H_    0.263321 0.267628 0.357859 0.077139
H64   H     H_    0.154920 0.815466 0.444875 0.078518
O13   O     O_3   0.650643 0.810872 0.532218 -0.615885
C101  C     C_3   0.614559 0.855998 0.495420 -0.253639
H65   H     H_    0.638407 0.834726 0.413835 0.137288
H66   H     H_    0.624175 0.921250 0.497971 0.107493
H67   H     H_    0.545342 0.845704 0.548866 0.166560
O14   O     O_3   0.557505 0.239223 0.593361 -0.618576
C102  C     C_3   0.512911 0.198846 0.564541 -0.255258
H68   H     H_    0.520003 0.134778 0.561560 0.102126
H69   H     H_    0.529017 0.220039 0.489899 0.157888
H70   H     H_    0.447594 0.209915 0.625343 0.215183
O15   O     O_3   0.149779 0.309192 0.532853 -0.615521
C103  C     C_3   0.112479 0.354045 0.497296 -0.256280
H71   H     H_    0.135876 0.333466 0.415828 0.136712
H72   H     H_    0.121017 0.418919 0.501031 0.109402
H73   H     H_    0.043573 0.343007 0.550840 0.166351
O16   O     O_3   0.058176 0.738817 0.593591 -0.618918
C104  C     C_3   0.013295 0.698844 0.564874 -0.253471
H74   H     H_    0.020418 0.634672 0.561437 0.101974
H75   H     H_    0.029093 0.720330 0.490346 0.156822
H76   H     H_    0.948028 0.710051 0.626128 0.215470
H77   H     H_    0.736833 0.899967 0.487782 0.062936
H78   H     H_    0.648089 0.151887 0.511436 0.065932
H79   H     H_    0.235397 0.399221 0.487400 0.062703
H80   H     H_    0.148661 0.651539 0.511095 0.065324
O17   O     O_3   0.447561 0.346170 0.348134 -0.545092
C105  C     C_3   0.533748 0.332244 0.290033 -0.251966
H81   H     H_    0.552895 0.272252 0.254945 0.142071
H82   H     H_    0.552529 0.341433 0.341388 0.111825
H83   H     H_    0.566340 0.375444 0.227021 0.149202
O18   O     O_3   0.363287 0.687197 0.342646 -0.557019
C106  C     C_3   0.446855 0.672923 0.303626 -0.199135
H84   H     H_    0.450634 0.635543 0.358032 0.122797
H85   H     H_    0.483312 0.727613 0.285508 0.099310
H86   H     H_    0.476986 0.638881 0.229022 0.152847
O19   O     O_3   0.949555 0.844384 0.346961 -0.544520
C107  C     C_3   0.035545 0.829450 0.289793 -0.251936
H87   H     H_    0.054103 0.769202 0.255341 0.142612
H88   H     H_    0.053882 0.838454 0.341614 0.113396
H89   H     H_    0.068990 0.872246 0.226290 0.149292
O20   O     O_3   0.861891 0.186005 0.343440 -0.559067
C108  C     C_3   0.944848 0.169852 0.305050 -0.193477
H90   H     H_    0.947150 0.133343 0.361187 0.122825
H91   H     H_    0.982883 0.224004 0.285069 0.098251
H92   H     H_    0.974271 0.133956 0.231359 0.151176
O21   O     O_3   0.363887 0.737552 0.197569 -0.517229
C109  C     C_3   0.437703 0.709803 0.107092 -0.202604
H93   H     H_    0.488346 0.721720 0.113075 0.095290
H94   H     H_    0.449042 0.735978 0.036586 0.106408
H95   H     H_    0.433285 0.645545 0.101470 0.146747
O22   O     O_3   0.419334 0.271606 0.154326 -0.558212
C110  C     C_3   0.499353 0.301839 0.110161 -0.037610
H96   H     H_    0.538093 0.265933 0.123278 0.071578
H97   H     H_    0.493438 0.361472 0.143219 0.178289
H98   H     H_    0.531757 0.309141 0.024310 0.136014
O23   O     O_3   0.863685 0.237608 0.197450 -0.517216
C111  C     C_3   0.937856 0.209798 0.107498 -0.205224
H99   H     H_    0.987991 0.221761 0.114478 0.096030
H100  H     H_    0.949856 0.236057 0.036620 0.106893
H101  H     H_    0.933559 0.145495 0.101727 0.146409
O24   O     O_3   0.919663 0.771423 0.154107 -0.560483
C112  C     C_3   0.999626 0.801511 0.110446 -0.037776
H102  H     H_    0.038262 0.765356 0.123499 0.072625
H103  H     H_    0.993801 0.861038 0.143705 0.179665
H104  H     H_    0.032296 0.809071 0.024720 0.135395
O25   O     O_3   0.854370 0.908273 0.533221 -0.673529
C113  C     C_3   0.930683 0.927884 0.513939 -0.235464
H105  H     H_    0.967924 0.878132 0.509392 0.156739
H106  H     H_    0.918081 0.967644 0.576709 0.128611
H107  H     H_    0.968095 0.960216 0.440959 0.171033
O26   O     O_3   0.765045 0.113258 0.508753 -0.701710
C114  C     C_3   0.793398 0.060007 0.545722 -0.059510
H108  H     H_    0.773860 0.001988 0.537497 0.169877
H109  H     H_    0.764293 0.068493 0.631163 0.161509
H110  H     H_    0.861684 0.058114 0.497091 0.161105
O27   O     O_3   0.352610 0.408452 0.535231 -0.673794
C115  C     C_3   0.429328 0.428381 0.515134 -0.233977
H111  H     H_    0.466898 0.378648 0.509767 0.157288
H112  H     H_    0.417171 0.468019 0.578088 0.128855
H113  H     H_    0.466420 0.461082 0.442155 0.169162
O28   O     O_3   0.266825 0.613145 0.506444 -0.702998
C116  C     C_3   0.293725 0.558947 0.543244 -0.061526
H114  H     H_    0.272014 0.502428 0.537166 0.167219
H115  H     H_    0.266328 0.567077 0.627978 0.162770
H116  H     H_    0.361153 0.554865 0.492787 0.168122
H117  H     H_    0.294276 0.683924 0.019762 0.140261
H118  H     H_    0.218065 0.294716 0.135230 0.190273
H119  H     H_    0.793459 0.184199 0.020992 0.140658
H120  H     H_    0.719096 0.792298 0.129801 0.198490
H121  H     H_    0.697084 0.318594 0.005289 0.171733
H122  H     H_    0.681254 0.659771 0.034625 0.172208
H123  H     H_    0.197461 0.818181 0.004646 0.171557
H124  H     H_    0.178743 0.158294 0.036989 0.164819
H125  H     H_    0.443820 0.085329 0.329592 0.179319
H126  H     H_    0.358555 0.954493 0.373307 0.238138
H127  H     H_    0.943693 0.585203 0.329665 0.178951
H128  H     H_    0.858469 0.454512 0.373356 0.237809
O29   O     O_3   0.668490 0.245623 0.907894 -0.688623
C117  C     C_3   0.748116 0.238453 0.812895 -0.292320
H129  H     H_    0.757065 0.180081 0.775613 0.202156
H130  H     H_    0.798103 0.246978 0.821459 0.149956
H131  H     H_    0.754565 0.285584 0.761504 0.210539
O30   O     O_3   0.671305 0.746914 0.926583 -0.636214
C118  C     C_3   0.624646 0.683124 0.931334 -0.452142
H132  H     H_    0.579080 0.701752 0.918443 0.153685
H133  H     H_    0.594571 0.649104 0.004158 0.136826
H134  H     H_    0.667729 0.641726 0.865934 0.192674
O31   O     O_3   0.168946 0.745281 0.907133 -0.688544
C119  C     C_3   0.248537 0.737888 0.812090 -0.291059
H135  H     H_    0.257384 0.679358 0.775111 0.202376
H136  H     H_    0.298566 0.746620 0.820587 0.150067
H137  H     H_    0.254998 0.784799 0.760391 0.209968
O32   O     O_3   0.170893 0.246321 0.927983 -0.634912
C120  C     C_3   0.124188 0.182336 0.932064 -0.442949
H138  H     H_    0.078778 0.200873 0.918496 0.150793
H139  H     H_    0.093106 0.148274 0.005091 0.133714
H140  H     H_    0.167511 0.140642 0.866958 0.190327
H141  H     H_    0.595540 0.073408 0.638733 0.096309
H142  H     H_    0.643129 0.954784 0.627552 0.082461
H143  H     H_    0.096536 0.572998 0.638230 0.095843
H144  H     H_    0.142368 0.454146 0.627497 0.080155
H145  H     H_    0.634130 0.922628 0.164233 0.122904
H146  H     H_    0.669589 0.064890 0.120542 0.128781
H147  H     H_    0.133198 0.422842 0.165160 0.121639
H148  H     H_    0.170137 0.564643 0.119826 0.128609
O33   O     O_3   0.321719 0.108937 0.497516 -0.623169
C121  C     C_3   0.375682 0.115044 0.526532 -0.252455
H149  H     H_    0.347839 0.144640 0.603512 0.179505
H150  H     H_    0.437839 0.135804 0.462515 0.117655
H151  H     H_    0.391376 0.055006 0.535176 0.142353
O34   O     O_3   0.284498 0.897905 0.533929 -0.625588
C122  C     C_3   0.243368 0.960068 0.608915 -0.185270
H152  H     H_    0.186913 0.942130 0.685857 0.095703
H153  H     H_    0.224694 0.006953 0.579396 0.188120
H154  H     H_    0.284313 0.982579 0.627454 0.165759
O35   O     O_3   0.821434 0.608908 0.497557 -0.623421
C123  C     C_3   0.875325 0.614599 0.526781 -0.250984
H155  H     H_    0.847756 0.644935 0.603369 0.179804
H156  H     H_    0.938153 0.634262 0.462296 0.116300
H157  H     H_    0.890050 0.554320 0.536566 0.141843
O36   O     O_3   0.784549 0.397788 0.534087 -0.625247
C124  C     C_3   0.743614 0.460220 0.608840 -0.184556
H158  H     H_    0.686990 0.442577 0.685840 0.095478
H159  H     H_    0.725143 0.507156 0.579078 0.188773
H160  H     H_    0.784568 0.482578 0.627475 0.164568

loop_
_geom_bond_atom_site_label_1
_geom_bond_atom_site_label_2
_ccdc_geom_bond_type
C97   H50   S    
C92   H22   S    
C116  H115  S    
C102  H68   S    
N17   Ni1   S    
C54   H118  S    
C102  H70   S    
C68   C75   A    
C113  H105  S    
C124  H158  S    
C64   N12   A    
C97   H51   S    
O23   C111  S    
C16   C84   A    
C27   O19   S    
C32   C52   S    
N31   Ni8   S    
C8    H148  S    
N6    Ni1   S    
O27   C115  S    
C111  H99   S    
C105  H82   S    
C114  H109  S    
C22   H32   S    
C98   H52   S    
C82   H10   S    
C103  H71   S    
C105  H83   S    
O31   C119  S    
C84   H12   S    
N12   Ni6   S    
C90   H18   S    
C79   O31   S    
C49   H77   S    
C121  H149  S    
C27   C35   S    
C117  H129  S    
C23   C37   S    
C17   C21   S    
C81   N21   A    
N3    N12   A    
C32   C34   S    
C19   C23   S    
O7    C95   S    
N7    Ni4   S    
C14   C38   S    
C29   H61   S    
O15   C103  S    
C123  H155  S    
N19   Ni3   S    
C9    C77   A    
C93   H39   S    
C15   C39   S    
C42   O26   S    
C11   C79   A    
C68   N16   A    
N24   N27   A    
O28   C116  S    
C92   H24   S    
C55   C57   D    
C89   H14   S    
C1    N1    A    
O2    C90   S    
C106  H86   S    
C3    N3    A    
C50   O14   S    
N24   Ni3   S    
C65   N13   A    
C121  H151  S    
C39   C43   S    
N1    Ni1   S    
C29   C35   S    
C30   C36   S    
C115  H112  S    
N18   N29   A    
C65   H125  S    
O24   C112  S    
C42   O6    S    
C111  H101  S    
C29   O9    S    
C4    N4    A    
C43   O7    S    
C61   H5    S    
C63   N11   A    
C34   C73   S    
C26   H34   S    
O9    C97   S    
C44   O28   S    
N2    N9    A    
C19   C35   S    
C82   N22   A    
C103  H73   S    
C110  H97   S    
C107  H87   S    
C39   C51   S    
C118  H133  S    
C13   C81   A    
C86   N26   A    
C5    H145  S    
C48   C76   A    
C90   H16   S    
C20   O36   S    
C6    N30   A    
C87   H143  S    
C25   C43   S    
C6    C9    A    
C59   H123  S    
O6    C94   S    
C10   C78   A    
C26   C44   S    
C29   C49   S    
N8    N15   A    
C78   N18   A    
C119  H137  S    
O21   C109  S    
C110  H98   S    
C31   H63   S    
C2    N2    A    
C123  H157  S    
C95   H43   S    
C108  H90   S    
C96   H47   S    
N28   Ni6   S    
C93   H37   S    
C23   H29   S    
C101  H66   S    
C28   H36   S    
C43   O27   S    
C98   H54   S    
N13   Ni7   S    
C32   O12   S    
C104  H74   S    
N18   Ni2   S    
C112  H102  S    
C120  H139  S    
C24   H4    S    
C45   N5    A    
C7    C12   A    
C35   C76   S    
N6    N13   A    
C64   H8    S    
N8    Ni3   S    
C119  H135  S    
O13   C101  S    
C65   C74   A    
C118  H132  S    
C79   N19   A    
C92   H23   S    
C6    H146  S    
C36   C75   S    
C18   C34   S    
C45   O21   S    
N29   Ni7   S    
C100  H58   S    
C19   H27   S    
N15   Ni8   S    
C17   H25   S    
C107  H89   S    
C17   O33   S    
C48   O24   S    
C30   O10   S    
C44   O8    S    
C101  H67   S    
C41   O5    S    
O18   C106  S    
N4    Ni4   S    
C18   C22   S    
C31   C51   S    
O32   C120  S    
C110  H96   S    
C102  H69   S    
C109  H93   S    
C25   O17   S    
C113  H106  S    
C95   H45   S    
C108  H92   S    
N22   N25   A    
C85   H141  S    
C122  H154  S    
C60   C69   S    
C46   N6    A    
C116  H116  S    
C56   C58   D    
C37   C41   S    
C104  H76   S    
N7    N16   A    
C52   H80   S    
C32   H64   S    
C47   O23   S    
C40   C44   S    
C99   H55   S    
C113  H107  S    
C119  H136  S    
C112  H104  S    
C25   C33   S    
C15   C88   A    
C61   C70   A    
C16   C40   S    
N26   Ni5   S    
N20   N31   A    
C109  H95   S    
C103  H72   S    
C66   H126  S    
C101  H65   S    
O19   C107  S    
C21   H1    S    
C90   H17   S    
C121  H150  S    
C58   C71   S    
C117  H130  S    
C20   H28   S    
C63   H7    S    
C100  H60   S    
C116  H114  S    
C64   C71   A    
C24   H30   S    
O35   C123  S    
O12   C100  S    
C123  H156  S    
O3    C91   S    
N27   Ni6   S    
N21   Ni2   S    
C7    N31   A    
C94   H42   S    
C117  H131  S    
C5    N29   A    
C97   H49   S    
C30   C50   S    
C124  H159  S    
C83   H11   S    
C89   H15   S    
C17   C33   S    
N30   Ni7   S    
C122  H153  S    
C106  H85   S    
C80   O32   S    
C122  H152  S    
C15   C83   A    
N25   Ni5   S    
O5    C93   S    
C1    C69   A    
C62   C69   A    
N20   Ni4   S    
C3    C71   A    
C30   H62   S    
C37   C49   S    
C114  H108  S    
C91   H21   S    
C46   O22   S    
C105  H81   S    
C22   H2    S    
C114  H110  S    
C4    O4    S    
C62   H6    S    
C51   O15   S    
C84   N24   A    
C14   C82   A    
C4    C72   A    
C107  H88   S    
C115  H111  S    
C66   N14   A    
N10   Ni5   S    
C124  H160  S    
N32   Ni8   S    
C77   N17   A    
C21   H31   S    
N1    N10   A    
C99   H56   S    
C18   H26   S    
C55   H119  S    
O29   C117  S    
C48   N8    A    
C56   H120  S    
O16   C104  S    
C95   H44   S    
C57   C72   S    
C96   H46   S    
C93   H38   S    
C1    O1    S    
C59   C70   S    
C53   H117  S    
C94   H40   S    
C20   C36   S    
C33   C74   S    
C5    C10   A    
C63   C72   A    
C28   C36   S    
C88   N28   A    
C49   O13   S    
C98   H53   S    
C89   H13   S    
C68   H128  S    
C51   H79   S    
C83   N23   A    
C2    C70   A    
C12   C54   S    
N11   Ni6   S    
N5    Ni2   S    
O11   C99   S    
C80   N20   A    
C120  H138  S    
C85   N25   A    
C61   N9    A    
C87   N27   A    
C53   C59   D    
C54   C60   D    
O33   C121  S    
C81   H9    S    
C45   C73   A    
O4    C92   S    
C38   C42   S    
C41   O25   S    
O26   C114  S    
O17   C105  S    
C19   O35   S    
N9    Ni5   S    
C67   N15   A    
N3    Ni3   S    
C26   C34   S    
C20   C24   S    
C13   C86   A    
C8    N32   A    
C24   C38   S    
C99   H57   S    
O10   C98   S    
C9    C55   S    
C10   C56   S    
C31   O11   S    
C11   C53   S    
C118  H134  S    
N5    N14   A    
C50   H78   S    
C52   O16   S    
C109  H94   S    
O25   C113  S    
C40   C52   S    
C66   C73   A    
O8    C96   S    
C108  H91   S    
C96   H48   S    
C7    H147  S    
N2    Ni2   S    
N22   Ni1   S    
O30   C118  S    
C60   H124  S    
C27   C41   S    
C21   C39   S    
C22   C40   S    
O20   C108  S    
C31   C33   S    
N19   N32   A    
N14   Ni7   S    
C91   H19   S    
C57   H121  S    
N17   N30   A    
C104  H75   S    
C88   H144  S    
C111  H100  S    
C91   H20   S    
C47   N7    A    
C112  H103  S    
C120  H140  S    
C23   H3    S    
C16   C87   A    
C27   H35   S    
C46   C74   A    
C25   H33   S    
C26   O18   S    
C13   C37   S    
C115  H113  S    
C28   O20   S    
C14   C85   A    
C47   C75   A    
N4    N11   A    
C106  H84   S    
C38   C50   S    
C2    O2    S    
C77   O29   S    
C3    O3    S    
C78   O30   S    
N23   Ni4   S    
C86   H142  S    
N21   N26   A    
C58   H122  S    
O1    C89   S    
O34   C122  S    
C67   H127  S    
C8    C11   A    
C12   C80   A    
C28   C42   S    
O36   C124  S    
C100  H59   S    
C62   N10   A    
O14   C102  S    
O22   C110  S    
C18   O34   S    
N23   N28   A    
C67   C76   A    
C94   H41   S    
N16   Ni8   S    
