data_mof_unit_41492.cif
_audit_creation_date              2013-03-05T16:10:40-0500
_audit_creation_method            fapswitch 2.2
_symmetry_space_group_name_H-M    P1
_symmetry_Int_Tables_number       1
_space_group_crystal_system       triclinic
_cell_length_a                    9.947984
_cell_length_b                    10.616085
_cell_length_c                    15.401288
_cell_angle_alpha                 90.993905
_cell_angle_beta                  68.223001
_cell_angle_gamma                 89.926602
_cell_volume                      1510.15364128

loop_
_atom_site_label
_atom_site_type_symbol
_atom_site_description
_atom_site_fract_x
_atom_site_fract_y
_atom_site_fract_z
_atom_type_partial_charge
O1    O     O_R   0.385370 0.683250 0.500010 -0.576940
O2    O     O_R   0.614630 0.316750 0.499990 -0.580644
O3    O     O_R   0.614700 0.683220 0.500000 -0.620663
O4    O     O_R   0.385300 0.316780 0.500000 -0.606066
C1    C     C_R   0.500817 0.739414 0.498833 0.828131
C2    C     C_R   0.498413 0.260840 0.502900 0.863059
O5    O     O_R   0.319830 0.500020 0.632250 -0.514987
O6    O     O_R   0.680170 0.499980 0.367750 -0.518751
O7    O     O_R   0.549160 0.499990 0.632240 -0.680555
O8    O     O_R   0.450840 0.500010 0.367760 -0.620895
C3    C     C_R   0.408918 0.494049 0.675475 0.832882
C4    C     C_R   0.589979 0.511136 0.324266 0.891289
Zn1   Zn    Zn3+2 0.346870 0.500020 0.500000 1.058915
Zn2   Zn    Zn3+2 0.653130 0.499980 0.500000 1.037837
C5    C     C_R   0.351709 0.469044 0.775597 -0.222036
C6    C     C_R   0.644029 0.533972 0.222412 -0.280770
C7    C     C_R   0.228546 0.330047 0.904028 -0.241182
C8    C     C_R   0.839464 0.548727 0.069772 -0.201408
C9    C     C_R   0.255624 0.368046 0.812610 0.306557
C10   C     C_R   0.793743 0.545380 0.167608 0.300797
C11   C     C_R   0.418591 0.528696 0.830358 -0.132140
C12   C     C_R   0.543921 0.539420 0.177095 -0.135343
C13   C     C_R   0.419965 0.467111 0.910140 0.119280
C14   C     C_R   0.594156 0.510070 0.081194 0.077808
C15   C     C_R   0.309578 0.378998 0.954573 -0.009249
C16   C     C_R   0.739800 0.534809 0.025037 0.063798
C17   C     C_R   0.529513 0.488440 0.945896 0.126537
C18   C     C_R   0.499908 0.463347 0.039577 0.055820
C19   C     C_R   0.380637 0.387819 0.088955 -0.076015
C20   C     C_R   0.670434 0.525694 0.889289 -0.199664
C21   C     C_R   0.288889 0.339645 0.046118 -0.035807
C22   C     C_R   0.777802 0.544926 0.926929 -0.033721
H1    H     H_    0.151444 0.255528 0.931352 0.171732
H2    H     H_    0.953592 0.559821 0.030317 0.224301
H3    H     H_    0.362881 0.362057 0.160026 0.217797
H4    H     H_    0.698798 0.535494 0.814644 0.124436
C23   C     C_R   0.483335 0.936809 0.424320 -0.011086
C24   C     C_R   0.520226 0.064059 0.577285 -0.001078
C25   C     C_R   0.478172 0.066524 0.429932 -0.111073
C26   C     C_R   0.521524 0.933972 0.572733 -0.047557
H5    H     H_    0.465165 0.120175 0.374184 0.198952
H6    H     H_    0.535448 0.880064 0.628026 0.167276
C27   C     C_R   0.497425 0.128452 0.504851 -0.118541
C28   C     C_R   0.502343 0.872104 0.497679 -0.097275
C29   C     C_R   0.951102 0.402586 0.459449 0.318822
C30   C     C_R   0.050020 0.598938 0.538660 0.323723
C31   C     C_R   0.094415 0.402487 0.459467 -0.135270
C32   C     C_R   0.905352 0.597938 0.540387 -0.135757
N1    N     N_R   0.142780 0.500030 0.500020 -0.163655
N2    N     N_R   0.857220 0.499970 0.499980 -0.171475
C33   C     C_2   0.169714 0.254398 0.100438 0.577303
H7    H     H_    0.077491 0.237892 0.080662 0.057346
O9    O     O_2   0.171891 0.202524 0.170093 -0.472877
C34   C     C_2   0.922532 0.582457 0.860558 0.499165
H8    H     H_    0.954116 0.556224 0.787384 0.128268
O10   O     O_2   0.003561 0.648580 0.884337 -0.522830
C35   C     C_2   0.398677 0.604176 0.221899 0.543133
H9    H     H_    0.356617 0.635282 0.294108 0.098386
O11   O     O_2   0.326853 0.633732 0.175954 -0.472474
C36   C     C_2   0.465952 0.662224 0.810682 0.492274
H10   H     H_    0.466128 0.706309 0.747702 0.046649
O12   O     O_2   0.494704 0.727504 0.867435 -0.489185
N3    N     N_R   0.898739 0.567846 0.209575 0.247514
O13   O     O_R   0.879275 0.661135 0.269060 -0.328147
O14   O     O_R   0.026476 0.516020 0.173144 -0.356891
N4    N     N_R   0.190961 0.298209 0.757613 0.189326
O15   O     O_R   0.105003 0.354338 0.724091 -0.396450
O16   O     O_R   0.192844 0.175671 0.758071 -0.361969
C37   C     C_2   0.478328 0.871127 0.339803 0.530353
H11   H     H_    0.512512 0.773751 0.325665 -0.014848
O17   O     O_2   0.438615 0.925717 0.284220 -0.504330
C38   C     C_2   0.538311 0.130279 0.658230 0.550722
H12   H     H_    0.528320 0.231827 0.666028 0.030575
O18   O     O_2   0.563847 0.071704 0.718013 -0.508084
N5    N     N_R   0.906192 0.301340 0.414256 0.224004
O19   O     O_R   0.893731 0.319070 0.334282 -0.308407
O20   O     O_R   0.895973 0.187879 0.446602 -0.368046
N6    N     N_R   0.098484 0.704017 0.578233 0.239779
O21   O     O_R   0.127960 0.810073 0.534172 -0.303067
O22   O     O_R   0.117120 0.693442 0.656938 -0.363118
C39   C     C_2   0.191258 0.296899 0.412269 0.622766
H13   H     H_    0.167262 0.202646 0.439674 0.106451
O23   O     O_2   0.294451 0.312935 0.339835 -0.567293
C40   C     C_2   0.803837 0.699425 0.591311 0.554125
H14   H     H_    0.695726 0.676702 0.636887 0.042097
O24   O     O_2   0.838940 0.809941 0.582183 -0.472363

loop_
_geom_bond_atom_site_label_1
_geom_bond_atom_site_label_2
_geom_bond_distance
_ccdc_geom_bond_type
C15   C21   1.417775 A    
N4    O16   1.301162 A    
N3    O14   1.300284 A    
C16   C22   1.421060 A    
C23   C37   1.483157 S    
C8    C16   1.408257 A    
N5    O19   1.299661 A    
C12   C35   1.509190 S    
C39   H13   1.084817 S    
C31   N1    1.376849 A    
O5    C3    1.292947 A    
C30   N1    1.369877 A    
O1    C1    1.288989 A    
C18   C19   1.408235 A    
C40   O24   1.220064 D    
N6    O22   1.299109 A    
C35   O11   1.221461 D    
C9    N4    1.436885 S    
C36   O12   1.221094 D    
O4    Zn1   1.982021 S    
C37   O17   1.221599 D    
C3    C5    1.461367 S    
C4    C6    1.482005 S    
O6    Zn2   1.953067 S    
C13   C17   1.408461 A    
C20   C22   1.405163 A    
C6    C10   1.420043 A    
C26   H6    1.084493 S    
N4    O15   1.299900 A    
C17   C20   1.410064 A    
O2    C2    1.286527 A    
C7    H1    1.079284 S    
C22   C34   1.483299 S    
C39   O23   1.218458 D    
C30   C32   1.429564 A    
C29   C31   1.425772 A    
C24   C38   1.488974 S    
C33   H7    1.082145 S    
C40   H14   1.074232 S    
C11   C36   1.494623 S    
C38   O18   1.221470 D    
C21   C33   1.489135 S    
C30   N6    1.429728 S    
N6    O21   1.301474 A    
C25   C27   1.392201 A    
C32   C40   1.475109 S    
C36   H10   1.083678 S    
C33   O9    1.221595 D    
C5    C9    1.416956 A    
O7    Zn2   1.911740 S    
C8    H2    1.078450 S    
O5    Zn1   1.953065 S    
O6    C4    1.309903 A    
N5    O20   1.301125 A    
O3    Zn2   1.982021 S    
O8    C4    1.301440 A    
Zn1   N1    2.030170 S    
O4    C2    1.287379 A    
C1    C28   1.409100 S    
C2    C27   1.406258 S    
O7    C3    1.306188 A    
C12   C14   1.401537 A    
O1    Zn1   1.983022 S    
C34   H8    1.082828 S    
C6    C12   1.413944 A    
C14   C18   1.404260 A    
C14   C16   1.412549 A    
C38   H12   1.082985 S    
O3    C1    1.285860 A    
O8    Zn1   1.911742 S    
C34   O10   1.219913 D    
C19   H3    1.082209 S    
C20   H4    1.084260 S    
C29   N5    1.430156 S    
C7    C15   1.406594 A    
C10   N3    1.435906 S    
C11   C13   1.406326 A    
C24   C27   1.406102 A    
C23   C25   1.377968 A    
C24   C26   1.381369 A    
C35   H9    1.078214 S    
Zn2   N2    2.030170 S    
C5    C11   1.397835 A    
C29   N2    1.368677 A    
C23   C28   1.403289 A    
C32   N2    1.377729 A    
C7    C9    1.398641 A    
C8    C10   1.404264 A    
C31   C39   1.470492 S    
C37   H11   1.080763 S    
O2    Zn2   1.983022 S    
N3    O13   1.301565 A    
C26   C28   1.393421 A    
C13   C15   1.420013 A    
C25   H5    1.085145 S    
C19   C21   1.402187 A    
C17   C18   1.391988 A    
