data_mof_unit_26673.cif
_audit_creation_date              2012-12-11T14:03:37-0500
_audit_creation_method            fapswitch 2.2
_symmetry_space_group_name_H-M    P1
_symmetry_Int_Tables_number       1
_space_group_crystal_system       triclinic
_cell_length_a                    6.930148
_cell_length_b                    11.397626
_cell_length_c                    18.654203
_cell_angle_alpha                 90.0
_cell_angle_beta                  92.583303
_cell_angle_gamma                 90.000379
_cell_volume                      1471.94652472

loop_
_atom_site_label
_atom_site_type_symbol
_atom_type_description
_atom_site_fract_x
_atom_site_fract_y
_atom_site_fract_z
_atom_type_partial_charge
O1    O     O_R   0.330540 0.606360 0.598870 -0.514019
O2    O     O_R   0.669460 0.106360 0.401130 -0.514003
O3    O     O_R   0.026770 0.620470 0.750430 -0.541024
O4    O     O_R   0.973230 0.120470 0.249570 -0.541019
O5    O     O_R   0.856460 0.393640 0.750930 -0.537296
O6    O     O_R   0.143540 0.893640 0.249070 -0.537291
C1    C     C_R   0.198312 0.648575 0.774489 0.685654
C2    C     C_R   0.801690 0.148573 0.225509 0.685651
O7    O     O_R   0.000920 0.620350 0.599420 -0.559864
O8    O     O_R   0.999080 0.120350 0.400580 -0.559859
O9    O     O_R   0.830430 0.393520 0.598850 -0.555105
O10   O     O_R   0.169570 0.893520 0.401150 -0.555128
C3    C     C_R   0.167646 0.648932 0.575073 0.810605
C4    C     C_R   0.832354 0.148930 0.424928 0.810640
O11   O     O_R   0.356570 0.606480 0.750960 -0.540343
O12   O     O_R   0.643430 0.106480 0.249040 -0.540359
O13   O     O_3   0.176990 0.425580 0.674890 -0.375952
O14   O     O_3   0.823010 0.925580 0.325110 -0.375976
V1    V     V_3+5 0.902170 0.513810 0.674910 1.396534
V2    V     V_3+5 0.097830 0.013810 0.325090 1.396548
O15   O     O_R   0.500800 0.379530 0.599380 -0.544127
O16   O     O_R   0.499200 0.879530 0.400620 -0.544107
C5    C     C_R   0.667757 0.346417 0.577397 0.654110
C6    C     C_R   0.332241 0.846420 0.422604 0.654187
O17   O     O_R   0.526650 0.379650 0.750390 -0.546949
O18   O     O_R   0.473350 0.879650 0.249610 -0.546951
C7    C     C_R   0.698188 0.351032 0.774134 0.699059
C8    C     C_R   0.301810 0.851032 0.225866 0.699058
V3    V     V_3+5 0.402160 0.486190 0.674900 1.424291
V4    V     V_3+5 0.597840 0.986190 0.325100 1.424313
O19   O     O_3   0.677210 0.574420 0.674910 -0.368765
O20   O     O_3   0.322790 0.074420 0.325090 -0.368756
C9    C     C_R   0.693980 0.070984 0.879701 -0.155997
C10   C     C_R   0.305520 0.570962 0.120307 -0.155994
H1    H     H_    0.667552 0.114923 0.767852 0.106730
H2    H     H_    0.331916 0.614898 0.232158 0.106747
H3    H     H_    0.705067 0.940171 0.997175 0.138689
H4    H     H_    0.294171 0.440133 0.002838 0.138688
H5    H     H_    0.676792 0.977921 0.869225 0.131447
H6    H     H_    0.322455 0.477885 0.130788 0.131426
C11   C     C_R   0.712273 0.268600 0.834060 -0.034833
C12   C     C_R   0.287701 0.768604 0.165939 -0.034809
C13   C     C_R   0.807248 0.351131 0.180581 -0.184009
C14   C     C_R   0.193015 0.851143 0.819411 -0.184028
C15   C     C_R   0.802313 0.432881 0.125323 -0.117610
C16   C     C_R   0.198054 0.932899 0.874667 -0.117622
C17   C     C_R   0.779598 0.396602 0.054117 -0.166433
C18   C     C_R   0.220672 0.896617 0.945876 -0.166467
C19   C     C_R   0.760634 0.276069 0.036252 0.067867
C20   C     C_R   0.239413 0.776073 0.963746 0.067869
C21   C     C_R   0.763137 0.192744 0.093362 0.066676
C22   C     C_R   0.236752 0.692738 0.906639 0.066684
C23   C     C_R   0.739572 0.235420 0.963791 0.067191
C24   C     C_R   0.260390 0.735422 0.036208 0.067195
C25   C     C_R   0.718422 0.113072 0.950281 0.137501
C26   C     C_R   0.281229 0.613057 0.049724 0.137488
C27   C     C_R   0.720845 0.033486 0.007154 -0.211956
C28   C     C_R   0.278634 0.533460 0.992854 -0.211942
C29   C     C_R   0.743514 0.072394 0.077510 -0.210732
C30   C     C_R   0.256095 0.572373 0.922496 -0.210728
C31   C     C_R   0.737976 0.311812 0.904002 -0.221953
C32   C     C_R   0.262183 0.811827 0.095993 -0.221955
C33   C     C_R   0.689334 0.148485 0.821963 -0.193966
C34   C     C_R   0.310301 0.648471 0.178043 -0.194002
C35   C     C_R   0.787300 0.231557 0.165412 -0.075273
C36   C     C_R   0.212721 0.731557 0.834586 -0.075253
H7    H     H_    0.753448 0.405465 0.909651 0.104211
H8    H     H_    0.246977 0.905494 0.090339 0.104195
H9    H     H_    0.827071 0.381196 0.235546 0.105172
H10   H     H_    0.173303 0.881212 0.764444 0.105185
H11   H     H_    0.777505 0.465390 0.014548 0.122910
H12   H     H_    0.222862 0.965411 0.985442 0.122908
H13   H     H_    0.817225 0.525359 0.137717 0.135801
H14   H     H_    0.183320 0.025386 0.862270 0.135787
H15   H     H_    0.744986 0.006843 0.119527 0.130317
H16   H     H_    0.254485 0.506814 0.880482 0.130292
C37   C     C_2   0.821883 0.242913 0.479339 -0.409219
C38   C     C_2   0.178114 0.742920 0.520664 -0.409230
H17   H     H_    0.928601 0.312726 0.478622 0.095098
H18   H     H_    0.071401 0.812735 0.521385 0.095099
C39   C     C_2   0.676288 0.246810 0.525432 0.237773
C40   C     C_2   0.323704 0.746815 0.474570 0.237743
O21   O     O_3   0.575597 0.142376 0.535516 -0.576153
C41   C     C_3   0.375076 0.156731 0.542704 0.121533
H19   H     H_    0.301296 0.094341 0.504823 0.142867
H20   H     H_    0.318185 0.244805 0.527076 0.111811
C42   C     C_3   0.324081 0.122279 0.618991 -0.335512
H21   H     H_    0.381779 0.033117 0.631237 0.188032
H22   H     H_    0.392360 0.184327 0.658376 0.203684
C43   C     C_3   0.106473 0.121191 0.627676 -0.804280
H23   H     H_    0.046618 0.210118 0.618031 0.253103
H24   H     H_    0.075325 0.094166 0.683176 0.218527
H25   H     H_    0.035193 0.058405 0.589384 0.224118
O22   O     O_3   0.424372 0.642379 0.464471 -0.576158
C44   C     C_3   0.624919 0.656737 0.457336 0.121520
H26   H     H_    0.698644 0.594386 0.495255 0.142863
H27   H     H_    0.681779 0.744831 0.472946 0.111809
C45   C     C_3   0.676066 0.622231 0.381069 -0.335426
H28   H     H_    0.618515 0.533019 0.368863 0.187993
H29   H     H_    0.607723 0.684189 0.341643 0.203647
C46   C     C_3   0.893711 0.621260 0.372417 -0.804207
H30   H     H_    0.953384 0.710263 0.381949 0.253144
H31   H     H_    0.924955 0.594074 0.316953 0.218473
H32   H     H_    0.965079 0.558652 0.410800 0.224178

loop_
_geom_bond_atom_site_label_1
_geom_bond_atom_site_label_2
_ccdc_geom_bond_type
C9    C25   A    
C42   H21   S    
C10   C26   A    
C46   H30   S    
C40   O22   S    
C29   H15   S    
O13   V3    S    
C14   C36   A    
C44   H26   S    
C41   C42   S    
C11   C31   A    
O4    C2    A    
V1    O19   S    
C44   C45   S    
C17   C19   A    
O9    V1    S    
C9    H5    S    
C10   H6    S    
C41   H20   S    
O3    C1    A    
C38   H18   S    
C27   C29   A    
C28   C30   A    
C15   H13   S    
C21   C35   A    
C15   C17   A    
C8    C12   S    
C31   H7    S    
O7    C3    A    
C22   C30   A    
O5    C7    A    
C23   C31   A    
O7    V1    S    
O6    C8    A    
O8    V2    S    
C7    C11   S    
C19   C21   A    
C20   C22   A    
O3    V1    S    
O14   V4    S    
C6    C40   S    
C5    C39   S    
C12   C32   A    
C9    C33   A    
C37   H17   S    
C2    C35   S    
C2    O12   A    
H4    C28   S    
C18   H12   S    
O1    V3    S    
C39   O21   S    
C14   C16   A    
O11   V3    S    
C16   C18   A    
C23   C25   A    
O17   V3    S    
C24   C26   A    
C41   H19   S    
O8    C4    A    
C4    C37   S    
C1    O11   A    
C24   C32   A    
O15   V3    S    
C30   H16   S    
C38   C40   D    
C43   H24   S    
O21   C41   S    
C37   C39   D    
C13   C35   A    
O10   V2    S    
C10   C34   A    
C20   C24   A    
C14   H10   S    
C18   C20   A    
C13   C15   A    
C17   H11   S    
O18   V4    S    
C46   H32   S    
C45   H29   S    
C25   C27   A    
O16   C6    A    
O1    C3    A    
C11   C33   A    
C12   C34   A    
C16   H14   S    
C22   C36   A    
C43   H25   S    
V2    O20   S    
C3    C38   S    
O16   V4    S    
C44   H27   S    
O5    V1    S    
O17   C7    A    
C45   C46   S    
O6    V2    S    
O10   C6    A    
O18   C8    A    
C32   H8    S    
O2    V4    S    
O15   C5    A    
V3    O19   S    
H2    C34   S    
C1    C36   S    
V4    O20   S    
C43   H23   S    
C19   C23   A    
O9    C5    A    
O13   V1    S    
C26   C28   A    
O14   V2    S    
O22   C44   S    
O2    C4    A    
O4    V2    S    
C21   C29   A    
C46   H31   S    
C45   H28   S    
C42   C43   S    
C42   H22   S    
H1    C33   S    
C13   H9    S    
O12   V4    S    
H3    C27   S    
