data_mof_unit_6341.cif
_audit_creation_date              2012-12-11T15:59:42-0500
_audit_creation_method            fapswitch 2.2
_symmetry_space_group_name_H-M    P1
_symmetry_Int_Tables_number       1
_space_group_crystal_system       triclinic
_cell_length_a                    10.78881
_cell_length_b                    10.673482
_cell_length_c                    16.949493
_cell_angle_alpha                 99.011706
_cell_angle_beta                  99.487816
_cell_angle_gamma                 60.857308
_cell_volume                      1674.78666098

loop_
_atom_site_label
_atom_site_type_symbol
_atom_type_description
_atom_site_fract_x
_atom_site_fract_y
_atom_site_fract_z
_atom_type_partial_charge
C1    C     C_R   0.356431 0.768697 0.397491 0.551715
C2    C     C_R   0.886559 0.318059 0.345533 -0.015769
C3    C     C_R   0.360354 0.804140 0.154236 -0.006018
C4    C     C_R   0.369035 0.345984 0.357825 0.564112
C5    C     C_R   0.452663 0.837608 0.212541 0.005633
C6    C     C_R   0.431042 0.856338 0.294363 -0.005013
C7    C     C_R   0.287026 0.732199 0.256619 -0.145142
C8    C     C_R   0.291172 0.735529 0.176269 -0.036356
C9    C     C_R   0.563250 0.855675 0.191188 -0.076070
C10   C     C_R   0.639401 0.906912 0.248299 -0.131660
C11   C     C_R   0.606006 0.943791 0.327115 -0.086861
C12   C     C_R   0.933794 0.168599 0.218846 0.017680
C13   C     C_R   0.497989 0.925140 0.350213 0.006090
C14   C     C_R   0.347332 0.800738 0.316067 -0.009191
C15   C     C_R   0.353258 0.359142 0.841532 -0.012371
C16   C     C_R   0.786494 0.372763 0.408131 0.551984
C17   C     C_R   0.493054 0.282752 0.817821 0.013214
C18   C     C_R   0.511025 0.275384 0.736051 -0.002136
C19   C     C_R   0.266139 0.477187 0.719531 -0.049401
C20   C     C_R   0.245582 0.464179 0.795717 -0.156282
C21   C     C_R   0.612788 0.200562 0.871613 0.025900
C22   C     C_R   0.732480 0.083897 0.841471 -0.074271
C23   C     C_R   0.922810 0.182766 0.302761 -0.002059
C24   C     C_R   0.747653 0.066590 0.760433 -0.127781
C25   C     C_R   0.643348 0.165586 0.709388 -0.102466
C26   C     C_R   0.395198 0.375254 0.685293 -0.018914
C27   C     C_1   0.848201 0.327267 0.705023 -0.032480
C28   C     C_R   0.357831 0.769928 0.627070 0.556514
C29   C     C_1   0.895597 0.293150 0.772013 -0.035998
C30   C     C_1   0.338812 0.810923 0.709234 -0.027628
C31   C     C_1   0.312926 0.838555 0.777513 -0.030140
C32   C     C_R   0.960441 0.279957 0.100380 0.568658
C33   C     C_R   0.319054 0.299914 0.119911 0.571198
C34   C     C_R   0.921509 0.412992 0.316342 -0.034353
C35   C     C_R   0.299212 0.884187 0.082748 0.541585
C36   C     C_R   0.944733 0.273244 0.854649 0.569538
C37   C     C_R   0.312870 0.299999 0.899231 0.556098
C38   C     C_R   0.278834 0.884940 0.857418 0.548154
C39   C     C_R   0.410393 0.378222 0.600044 0.552281
C40   C     C_R   0.778594 0.377525 0.628708 0.551404
C41   C     C_1   0.342197 0.336221 0.274339 -0.047790
C42   C     C_1   0.331286 0.326317 0.203309 -0.038469
C43   C     C_R   0.940943 0.280964 0.185179 -0.010984
C44   C     C_1   0.928894 0.533699 0.365207 0.237504
C45   C     C_R   0.948448 0.393014 0.237161 -0.166698
C46   C     C_1   0.448991 0.990514 0.428038 0.225340
C47   C     C_1   0.144847 0.589620 0.677310 0.247290
C48   C     C_1   0.617572 0.238315 0.957560 0.235240
C49   C     C_1   0.981255 0.054968 0.427136 0.222141
C50   C     C_1   0.215056 0.678151 0.116859 0.196543
C51   C     C_R   0.937119 0.042858 0.174252 -0.073124
C52   C     C_R   0.947569 0.931117 0.212184 -0.163656
C53   C     C_R   0.958724 0.937867 0.295129 -0.135009
C54   C     C_R   0.948386 0.061721 0.341115 0.010246
Cr1   Cr    Cr6+3 0.608100 0.610860 0.522250 1.070667
Cr2   Cr    Cr6+3 0.288890 0.599990 0.488420 1.075580
Cr3   Cr    Cr6+3 0.603040 0.289190 0.489390 1.021359
Cr4   Cr    Cr6+3 0.053960 0.052250 0.967380 0.998542
Cr5   Cr    Cr6+3 0.059890 0.373160 0.992710 1.041620
Cr6   Cr    Cr6+3 0.373370 0.061690 0.991710 1.020609
H1    H     H_    0.720648 0.923158 0.230208 0.129618
H2    H     H_    0.970752 0.469545 0.215241 0.137259
H3    H     H_    0.950238 0.836310 0.176849 0.124835
H4    H     H_    0.594376 0.826652 0.130758 0.142872
H5    H     H_    0.663614 0.988631 0.369880 0.147255
H6    H     H_    0.975612 0.845726 0.323432 0.140417
H7    H     H_    0.234710 0.676192 0.272472 0.142524
H8    H     H_    0.140805 0.529031 0.816849 0.145237
H9    H     H_    0.818779 0.011948 0.881491 0.131375
H10   H     H_    0.844795 0.980711 0.737749 0.145958
H11   H     H_    0.672214 0.148482 0.649852 0.182235
H12   H     H_    0.930273 0.024445 0.110256 0.181889
N1    N     N_1   0.935073 0.630229 0.404086 -0.287497
N2    N     N_1   0.408842 0.042404 0.490210 -0.244156
N3    N     N_1   0.046992 0.679695 0.644122 -0.261875
N4    N     N_1   0.621244 0.268763 0.026201 -0.276964
N5    N     N_1   0.007974 0.049149 0.495897 -0.266396
N6    N     N_1   0.152356 0.636177 0.068076 -0.283030
O1    O     O_R   0.749810 0.499790 0.438040 -0.494616
O2    O     O_R   0.411730 0.181020 0.091530 -0.498509
O3    O     O_R   0.365010 0.944360 0.063320 -0.513931
O4    O     O_R   0.477660 0.726260 0.439290 -0.485531
O5    O     O_R   0.159380 0.906670 0.876210 -0.520547
O6    O     O_R   0.930820 0.177420 0.886730 -0.500051
O7    O     O_R   0.910360 0.395420 0.895720 -0.493726
O8    O     O_R   0.186010 0.361730 0.919870 -0.505806
O9    O     O_R   0.400000 0.173010 0.914630 -0.511692
O10   O     O_R   0.354140 0.936940 0.899340 -0.492401
O11   O     O_3   0.162410 0.162370 0.983930 -0.294496
O12   O     O_R   0.298970 0.468800 0.557390 -0.469687
O13   O     O_R   0.260150 0.743000 0.412270 -0.516795
O14   O     O_R   0.297740 0.466550 0.394720 -0.490522
O15   O     O_R   0.488080 0.253500 0.386430 -0.518115
O16   O     O_R   0.722670 0.303800 0.421940 -0.497369
O17   O     O_R   0.751130 0.502220 0.613520 -0.491688
O18   O     O_R   0.478890 0.728510 0.601960 -0.488743
O19   O     O_R   0.261470 0.745430 0.587750 -0.489234
O20   O     O_R   0.489400 0.255930 0.561910 -0.507036
O21   O     O_R   0.723890 0.306050 0.584610 -0.530568
O22   O     O_3   0.500010 0.500010 0.500020 -0.293260
O23   O     O_R   0.171100 0.914680 0.053100 -0.523750
O24   O     O_R   0.941680 0.184840 0.050710 -0.504767
O25   O     O_R   0.922080 0.403420 0.072610 -0.499665
O26   O     O_R   0.196880 0.369150 0.083850 -0.499403

loop_
_geom_bond_atom_site_label_1
_geom_bond_atom_site_label_2
_ccdc_geom_bond_type
C28   O19   A    
C38   O5    A    
C27   C29   T    
C9    H4    S    
C41   C42   T    
C48   N4    T    
C19   C20   A    
C18   C26   A    
C40   O21   A    
C35   O3    A    
C24   H10   S    
C7    C8    A    
C53   C54   A    
C29   C36   S    
Cr5   O26   S    
C12   C43   A    
C30   C31   T    
C19   C47   S    
C26   C39   S    
C4    C41   S    
C49   C54   S    
Cr3   O21   S    
C45   H2    S    
Cr5   O11   S    
C19   C26   A    
C15   C37   S    
Cr2   O13   S    
Cr1   O22   S    
Cr4   O24   S    
C2    C16   S    
C9    C10   A    
C22   H9    S    
C21   C48   S    
C2    C34   A    
Cr2   O12   S    
C1    O13   A    
Cr3   O15   S    
C21   C22   A    
C18   C25   A    
Cr2   O19   S    
C50   N6    T    
Cr6   O9    S    
C20   H8    S    
C7    C14   A    
Cr6   O10   S    
C15   C20   A    
C51   C52   A    
C37   O8    A    
C34   C44   S    
C24   C25   A    
Cr1   O17   S    
C3    C8    A    
Cr4   O23   S    
C39   O20   A    
C3    C5    A    
C1    O4    A    
Cr6   O11   S    
Cr3   O22   S    
C17   C21   A    
C38   O10   A    
Cr5   O7    S    
C5    C9    A    
Cr4   O6    S    
C6    C14   A    
Cr1   O1    S    
Cr6   O3    S    
C12   C23   A    
C3    C35   S    
C27   C40   S    
C17   C18   A    
C32   O25   A    
C34   C45   A    
Cr1   O4    S    
C53   H6    S    
C43   C45   A    
C25   H11   S    
Cr3   O16   S    
C32   O24   A    
C10   H1    S    
C51   H12   S    
C33   C42   S    
C40   O17   A    
C8    C50   S    
C46   N2    T    
C12   C51   A    
C52   C53   A    
C23   C54   A    
C15   C17   A    
Cr6   O2    S    
C39   O12   A    
C37   O9    A    
Cr1   O18   S    
C35   O23   A    
C52   H3    S    
C33   O2    A    
C36   O7    A    
C16   O16   A    
C31   C38   S    
C28   O18   A    
C16   O1    A    
Cr5   O25   S    
C28   C30   S    
Cr5   O8    S    
C47   N3    T    
Cr4   O5    S    
C6    C13   A    
C11   C13   A    
C5    C6    A    
C36   O6    A    
Cr3   O20   S    
C33   O26   A    
C32   C43   S    
C49   N5    T    
C22   C24   A    
C44   N1    T    
Cr4   O11   S    
C10   C11   A    
C7    H7    S    
C4    O15   A    
Cr2   O14   S    
C2    C23   A    
Cr2   O22   S    
C13   C46   S    
C1    C14   S    
C11   H5    S    
C4    O14   A    
