data_mof_unit_39375.cif
_audit_creation_date              2013-03-05T15:51:04-0500
_audit_creation_method            fapswitch 2.2
_symmetry_space_group_name_H-M    P1
_symmetry_Int_Tables_number       1
_space_group_crystal_system       triclinic
_cell_length_a                    19.215061
_cell_length_b                    11.050525
_cell_length_c                    18.788376
_cell_angle_alpha                 90.106332
_cell_angle_beta                  90.076452
_cell_angle_gamma                 90.037238
_cell_volume                      3989.44695448

loop_
_atom_site_label
_atom_site_type_symbol
_atom_site_description
_atom_site_fract_x
_atom_site_fract_y
_atom_site_fract_z
_atom_type_partial_charge
O1    O     O_R   0.784290 0.290360 0.830540 -0.450804
O2    O     O_R   0.215710 0.290360 0.169460 -0.470461
O3    O     O_R   0.284290 0.790360 0.830540 -0.450696
O4    O     O_R   0.715710 0.790360 0.169460 -0.462859
O5    O     O_R   0.762610 0.041070 0.825230 -0.483080
O6    O     O_R   0.237390 0.041070 0.174770 -0.519380
O7    O     O_R   0.262610 0.541070 0.825230 -0.482201
O8    O     O_R   0.737390 0.541070 0.174770 -0.511378
C1    C     C_R   0.725423 0.959084 0.854811 0.554172
C2    C     C_R   0.274695 0.959370 0.145061 0.550057
C3    C     C_R   0.223912 0.463200 0.856232 0.595294
C4    C     C_R   0.774231 0.458087 0.145539 0.555066
O9    O     O_R   0.667390 0.924160 0.829970 -0.522799
O10   O     O_R   0.332610 0.924160 0.170030 -0.508512
O11   O     O_R   0.167390 0.424160 0.829970 -0.513118
O12   O     O_R   0.832610 0.424160 0.170030 -0.515510
O13   O     O_R   0.553980 0.081420 0.821780 -0.500699
O14   O     O_R   0.446020 0.081420 0.178220 -0.496891
O15   O     O_R   0.053980 0.581420 0.821780 -0.499652
O16   O     O_R   0.946020 0.581420 0.178220 -0.495168
C5    C     C_R   0.531423 0.178007 0.851442 0.575812
C6    C     C_R   0.470604 0.177551 0.149857 0.546251
C7    C     C_R   0.029610 0.678024 0.850306 0.555063
C8    C     C_R   0.969321 0.677697 0.148931 0.561770
O17   O     O_R   0.543210 0.283170 0.826740 -0.508770
O18   O     O_R   0.456790 0.283170 0.173260 -0.508426
O19   O     O_R   0.043210 0.783170 0.826740 -0.503576
O20   O     O_R   0.956790 0.783170 0.173260 -0.504276
O21   O     O_R   0.678350 0.375000 0.822720 -0.514214
O22   O     O_R   0.321650 0.375000 0.177280 -0.502827
O23   O     O_R   0.178350 0.875000 0.822720 -0.505232
O24   O     O_R   0.821650 0.875000 0.177280 -0.506324
C9    C     C_R   0.738536 0.365162 0.852012 0.569501
C10   C     C_R   0.261798 0.364553 0.147872 0.576345
C11   C     C_R   0.238664 0.865665 0.851729 0.587692
C12   C     C_R   0.761396 0.865252 0.148126 0.578611
O25   O     O_R   0.785060 0.289300 0.670580 -0.528094
O26   O     O_R   0.214940 0.289300 0.329420 -0.528301
O27   O     O_R   0.285060 0.789300 0.670580 -0.538584
O28   O     O_R   0.714940 0.789300 0.329420 -0.535600
O29   O     O_R   0.763330 0.040090 0.676940 -0.513198
O30   O     O_R   0.236670 0.040090 0.323060 -0.515911
O31   O     O_R   0.263330 0.540090 0.676940 -0.500540
O32   O     O_R   0.736670 0.540090 0.323060 -0.505652
C13   C     C_R   0.728912 0.952901 0.648908 0.546484
C14   C     C_R   0.272068 0.956290 0.352484 0.557665
C15   C     C_R   0.209108 0.503836 0.640143 0.561335
C16   C     C_R   0.789437 0.499692 0.359960 0.563075
O33   O     O_R   0.668160 0.923110 0.670000 -0.489007
O34   O     O_R   0.331840 0.923110 0.330000 -0.479192
O35   O     O_R   0.168160 0.423110 0.670000 -0.478907
O36   O     O_R   0.831840 0.423110 0.330000 -0.487596
O37   O     O_R   0.554690 0.080440 0.673480 -0.508145
O38   O     O_R   0.445310 0.080440 0.326520 -0.499215
O39   O     O_R   0.054690 0.580440 0.673480 -0.505637
O40   O     O_R   0.945310 0.580440 0.326520 -0.508533
C17   C     C_R   0.529195 0.175457 0.645310 0.539827
C18   C     C_R   0.470510 0.176484 0.354909 0.529322
C19   C     C_R   0.027872 0.676203 0.646175 0.520464
C20   C     C_R   0.968903 0.674999 0.356087 0.530540
O41   O     O_R   0.543980 0.282110 0.666770 -0.486218
O42   O     O_R   0.456020 0.282110 0.333230 -0.513258
O43   O     O_R   0.043980 0.782110 0.666770 -0.517390
O44   O     O_R   0.956020 0.782110 0.333230 -0.491684
O45   O     O_R   0.679070 0.374030 0.674430 -0.439863
O46   O     O_R   0.320930 0.374030 0.325570 -0.456175
O47   O     O_R   0.179070 0.874030 0.674430 -0.455383
O48   O     O_R   0.820930 0.874030 0.325570 -0.435116
C21   C     C_R   0.740087 0.364584 0.647440 0.556250
C22   C     C_R   0.259381 0.366673 0.352385 0.552790
C23   C     C_R   0.238492 0.859923 0.645759 0.569738
C24   C     C_R   0.763885 0.854542 0.356671 0.557399
Cr1   Cr    Cr6+3 0.769260 0.163750 0.750730 1.073842
Cr2   Cr    Cr6+3 0.230740 0.163750 0.249270 1.028544
Cr3   Cr    Cr6+3 0.269260 0.663750 0.750730 1.058132
Cr4   Cr    Cr6+3 0.730740 0.663750 0.249270 1.036490
Cr5   Cr    Cr6+3 0.612640 0.009910 0.748780 1.050536
Cr6   Cr    Cr6+3 0.387360 0.009910 0.251220 1.060479
Cr7   Cr    Cr6+3 0.112640 0.509910 0.748780 1.061966
Cr8   Cr    Cr6+3 0.887360 0.509910 0.251220 1.049128
Cr9   Cr    Cr6+3 0.614190 0.322400 0.747710 1.090485
Cr10  Cr    Cr6+3 0.385810 0.322400 0.252290 1.080591
Cr11  Cr    Cr6+3 0.114190 0.822400 0.747710 1.079106
Cr12  Cr    Cr6+3 0.885810 0.822400 0.252290 1.085292
O49   O     O_3   0.665360 0.165350 0.749070 -0.288019
O50   O     O_3   0.334640 0.165350 0.250930 -0.281595
O51   O     O_3   0.165360 0.665350 0.749070 -0.311443
O52   O     O_3   0.834640 0.665350 0.250930 -0.302080
C25   C     C_2   0.502847 0.170514 0.923220 -0.052991
C26   C     C_2   0.504956 0.168326 0.080732 -0.098225
C27   C     C_2   0.995889 0.671374 0.919833 -0.082913
C28   C     C_2   0.999568 0.668542 0.077744 -0.085313
C29   C     C_2   0.495511 0.070140 0.039547 -0.156218
C30   C     C_2   0.510601 0.070584 0.962910 -0.157557
C31   C     C_2   0.984882 0.572623 0.036156 -0.165062
C32   C     C_2   0.999435 0.570999 0.959429 -0.151638
H1    H     H_    0.474135 0.987593 0.061719 0.148724
H2    H     H_    0.527228 0.986192 0.938801 0.143565
H3    H     H_    0.961740 0.492003 0.058748 0.146413
H4    H     H_    0.013662 0.485301 0.935409 0.150322
H5    H     H_    0.528947 0.249471 0.059275 0.136842
H6    H     H_    0.484582 0.253785 0.947283 0.145082
H7    H     H_    0.025044 0.747963 0.055840 0.137557
H8    H     H_    0.977269 0.755260 0.943120 0.102228
C33   C     C_R   0.759370 0.420678 0.072902 -0.038892
C34   C     C_R   0.234014 0.445478 0.931962 -0.006241
C35   C     C_R   0.260747 0.925329 0.071737 -0.036788
C36   C     C_R   0.739708 0.923855 0.927844 -0.028204
C37   C     C_R   0.695735 0.441478 0.039080 0.029919
C38   C     C_R   0.298219 0.467551 0.963604 0.021858
C39   C     C_R   0.196910 0.945766 0.038219 0.030823
C40   C     C_R   0.803250 0.946119 0.961588 0.001959
C41   C     C_R   0.690193 0.433986 0.965570 -0.053585
C42   C     C_R   0.306469 0.454180 0.036424 -0.068374
C43   C     C_R   0.191049 0.937800 0.964729 -0.058127
C44   C     C_R   0.809042 0.938072 0.035214 -0.073537
C45   C     C_R   0.813596 0.391219 0.956958 0.201315
C46   C     C_R   0.182397 0.423749 0.050007 0.210187
C47   C     C_R   0.314713 0.896995 0.955464 0.220525
C48   C     C_R   0.685688 0.893483 0.043810 0.204766
C49   C     C_R   0.816664 0.386635 0.030990 -0.169259
C50   C     C_R   0.175397 0.432152 0.975878 -0.167795
C51   C     C_R   0.318539 0.894814 0.029532 -0.150799
C52   C     C_R   0.682184 0.890982 0.969758 -0.165415
C53   C     C_3   0.647166 0.546581 0.043368 0.104258
C54   C     C_3   0.366263 0.407879 0.948048 0.090903
C55   C     C_3   0.149187 0.052234 0.042233 0.105903
C56   C     C_3   0.848975 0.055655 0.958743 0.127595
C57   C     C_3   0.641133 0.539001 0.962955 -0.194600
C58   C     C_3   0.375446 0.392577 0.027987 -0.243728
C59   C     C_3   0.142847 0.044022 0.961932 -0.186645
C60   C     C_3   0.855836 0.046284 0.039098 -0.245265
C61   C     C_R   0.749064 0.413297 0.923321 0.037429
C62   C     C_R   0.249774 0.423946 0.079932 0.054384
C63   C     C_R   0.249675 0.916228 0.922326 0.040296
C64   C     C_R   0.750436 0.914543 0.077286 0.050309
H9    H     H_    0.866305 0.366402 0.055346 0.131258
H10   H     H_    0.124287 0.424909 0.952479 0.126520
H11   H     H_    0.368787 0.878478 0.053664 0.132037
H12   H     H_    0.632176 0.872879 0.945451 0.128528
H13   H     H_    0.173784 0.137575 0.061349 0.158651
H14   H     H_    0.821449 0.138249 0.940634 0.196175
H15   H     H_    0.671116 0.632010 0.062993 0.171748
H16   H     H_    0.404691 0.470009 0.923243 0.169688
H17   H     H_    0.588631 0.511719 0.943721 0.179067
H18   H     H_    0.374544 0.296893 0.046149 0.140479
H19   H     H_    0.090064 0.017908 0.942942 0.199658
H20   H     H_    0.908930 0.022182 0.057934 0.185514
H21   H     H_    0.663773 0.618653 0.935226 0.103894
H22   H     H_    0.418874 0.447783 0.049891 0.164406
H23   H     H_    0.166032 0.122971 0.933932 0.105594
H24   H     H_    0.831562 0.123394 0.067932 0.118072
C65   C     C_R   0.503232 0.169219 0.424298 -0.045578
C66   C     C_R   0.502820 0.165952 0.573554 -0.046804
C67   C     C_R   0.989232 0.663375 0.429931 -0.046772
C68   C     C_R   0.990316 0.669345 0.578911 -0.044922
C69   C     C_R   0.508168 0.275853 0.463859 -0.036712
C70   C     C_R   0.506335 0.273170 0.536248 0.004508
C71   C     C_R   0.987301 0.770932 0.466223 0.003960
C72   C     C_R   0.986546 0.775001 0.538715 -0.042553
C73   C     C_R   0.503629 0.055596 0.535091 0.221414
C74   C     C_R   0.508685 0.057623 0.460456 0.222277
C75   C     C_R   0.978566 0.558078 0.544011 0.252267
C76   C     C_R   0.984151 0.553640 0.469208 0.255709
C77   C     C_3   0.463083 0.386182 0.463606 -0.175317
C78   C     C_3   0.459819 0.379525 0.543425 -0.230017
C79   C     C_3   0.037792 0.870579 0.457620 -0.224359
C80   C     C_3   0.035379 0.879463 0.537219 -0.163667
H25   H     H_    0.017265 0.949628 0.428445 0.234418
H26   H     H_    0.086679 0.857472 0.560431 0.177954
H27   H     H_    0.411008 0.370697 0.439650 0.183894
H28   H     H_    0.484475 0.456983 0.571091 0.229622
H29   H     H_    0.492889 0.465088 0.443292 0.228025
H30   H     H_    0.407336 0.354902 0.563806 0.126834
H31   H     H_    0.088292 0.836661 0.436841 0.114143
H32   H     H_    0.008315 0.960072 0.558835 0.244299
C81   C     C_R   0.778031 0.481336 0.436020 -0.053629
C82   C     C_R   0.217151 0.498592 0.561409 -0.048985
C83   C     C_R   0.251584 0.916056 0.423097 -0.033895
C84   C     C_R   0.753345 0.899813 0.582168 -0.031352
C85   C     C_R   0.826989 0.416661 0.474374 0.036487
C86   C     C_R   0.163680 0.452923 0.518995 -0.035014
C87   C     C_R   0.299055 0.846330 0.460374 0.045214
C88   C     C_R   0.707288 0.828632 0.543467 0.028083
C89   C     C_R   0.817128 0.391011 0.545500 0.002819
C90   C     C_R   0.175860 0.420325 0.448558 -0.035583
C91   C     C_R   0.293516 0.830231 0.532841 -0.054583
C92   C     C_R   0.713924 0.815150 0.470954 -0.066482
C93   C     C_R   0.710223 0.505880 0.545253 0.189047
C94   C     C_R   0.286607 0.519337 0.451803 0.175101
C95   C     C_R   0.199632 0.974672 0.536655 0.157356
C96   C     C_R   0.816422 0.942713 0.472008 0.182126
C97   C     C_R   0.720432 0.528950 0.472183 -0.146287
C98   C     C_R   0.276879 0.541327 0.525814 -0.144985
C99   C     C_R   0.199683 0.977289 0.461602 -0.183376
C100  C     C_R   0.811843 0.946477 0.547166 -0.156663
C101  C     C_3   0.849178 0.290807 0.458422 -0.149516
C102  C     C_3   0.123855 0.341019 0.532185 -0.171744
C103  C     C_3   0.374374 0.875509 0.467401 -0.126454
C104  C     C_3   0.631360 0.850500 0.535735 -0.138753
C105  C     C_3   0.841462 0.263643 0.536102 -0.203197
C106  C     C_3   0.138664 0.303469 0.456779 -0.213343
C107  C     C_3   0.368697 0.846826 0.544830 -0.207522
C108  C     C_3   0.638589 0.828296 0.457749 -0.212243
C109  C     C_R   0.757404 0.428870 0.581525 -0.008478
C110  C     C_R   0.239839 0.441211 0.415555 0.004110
C111  C     C_R   0.245524 0.895490 0.571926 -0.006502
C112  C     C_R   0.763664 0.878727 0.433203 -0.013208
H33   H     H_    0.681861 0.579172 0.442877 0.167436
H34   H     H_    0.316869 0.587649 0.555808 0.168535
H35   H     H_    0.163140 0.034164 0.433624 0.158815
H36   H     H_    0.848878 0.999752 0.577344 0.168917
H37   H     H_    0.903260 0.282900 0.438923 0.260639
H38   H     H_    0.068279 0.355749 0.542547 0.250892
H39   H     H_    0.382864 0.973534 0.457880 0.154580
H40   H     H_    0.620870 0.947043 0.547124 0.182647
H41   H     H_    0.809322 0.244171 0.425396 0.178601
H42   H     H_    0.151133 0.286207 0.572182 0.245824
H43   H     H_    0.408562 0.815394 0.436247 0.272899
H44   H     H_    0.598532 0.784089 0.564183 0.260653
H45   H     H_    0.799859 0.196102 0.546423 0.132818
H46   H     H_    0.175431 0.226765 0.454067 0.164131
H47   H     H_    0.395344 0.762049 0.561050 0.203026
H48   H     H_    0.612776 0.744282 0.438927 0.195712
H49   H     H_    0.891729 0.246376 0.563583 0.222619
H50   H     H_    0.091845 0.295062 0.422627 0.185775
H51   H     H_    0.376833 0.926114 0.580090 0.146406
H52   H     H_    0.630159 0.909552 0.424610 0.159890
N1    N     N_R   0.649604 0.553486 0.579570 0.076050
O53   O     O_R   0.654598 0.603561 0.642129 -0.337065
O54   O     O_R   0.591876 0.563886 0.543994 -0.410350
N2    N     N_R   0.343788 0.574680 0.415382 0.060650
O55   O     O_R   0.336424 0.611584 0.350068 -0.318391
O56   O     O_R   0.398201 0.608962 0.451073 -0.427360
N3    N     N_R   0.156457 0.056604 0.576117 0.048706
O57   O     O_R   0.177845 0.101582 0.636422 -0.333703
O58   O     O_R   0.099520 0.098032 0.548079 -0.416527
N4    N     N_R   0.870149 0.013721 0.438209 0.065110
O59   O     O_R   0.860060 0.063915 0.376515 -0.351932
O60   O     O_R   0.921592 0.054036 0.476424 -0.421953
O61   O     O_3   0.872866 0.372899 0.916555 -0.661964
H53   H     H_    0.912007 0.349434 0.948055 0.321499
O62   O     O_3   0.125083 0.405500 0.093057 -0.669061
H54   H     H_    0.083263 0.394607 0.062824 0.320157
O63   O     O_3   0.373731 0.879774 0.914518 -0.665448
H55   H     H_    0.413987 0.862333 0.945910 0.309631
O64   O     O_3   0.626577 0.874898 0.084408 -0.673089
H56   H     H_    0.586745 0.855221 0.052841 0.315347
O65   O     O_3   0.584678 0.515491 0.077061 -0.703747
H57   H     H_    0.594016 0.521407 0.128900 0.346589
O66   O     O_3   0.358867 0.298066 0.910418 -0.693601
H58   H     H_    0.325288 0.245479 0.936080 0.329919
O67   O     O_3   0.086527 0.023073 0.076195 -0.693489
H59   H     H_    0.095830 0.030542 0.127965 0.344201
O68   O     O_3   0.911746 0.035648 0.922007 -0.663174
H60   H     H_    0.932433 0.958574 0.938936 0.331702
O69   O     O_3   0.500516 0.944276 0.567963 -0.699262
H61   H     H_    0.481674 0.953295 0.616577 0.330764
O70   O     O_3   0.510325 0.948671 0.424771 -0.693271
H62   H     H_    0.530426 0.961624 0.376875 0.327970
O71   O     O_3   0.966326 0.452640 0.581046 -0.687600
H63   H     H_    0.949963 0.473883 0.629497 0.332931
O72   O     O_3   0.987291 0.441979 0.437065 -0.694581
H64   H     H_    0.015183 0.449639 0.393034 0.327155

loop_
_geom_bond_atom_site_label_1
_geom_bond_atom_site_label_2
_geom_bond_distance
_ccdc_geom_bond_type
C18   O42   1.267962 A    
Cr11  O51   1.995400 S    
O4    C12   1.271779 A    
C78   H28   1.106555 S    
C77   C78   1.503005 S    
O39   C19   1.284762 A    
C25   H6    1.083345 S    
C58   H18   1.111785 S    
C42   C58   1.498852 S    
C46   C62   1.410778 A    
C106  H46   1.104934 S    
C66   C73   1.416476 A    
O37   Cr5   1.962126 S    
C31   C32   1.468898 S    
C86   C102  1.475323 S    
C105  H45   1.110803 S    
C27   H8    1.085402 S    
C19   C68   1.456278 S    
C45   C61   1.412583 A    
C47   C51   1.393714 A    
C43   C63   1.400930 A    
C107  H51   1.108326 S    
C73   C74   1.405978 A    
O1    C9    1.272646 A    
O72   H64   0.990035 S    
C24   C112  1.462060 S    
C83   C99   1.405993 A    
C1    C36   1.452883 S    
C105  H49   1.111400 S    
C15   O35   1.315932 A    
C82   C98   1.410663 A    
O65   H57   0.992159 S    
C69   C70   1.360962 A    
C81   C97   1.401719 A    
C91   C111  1.382182 A    
C103  H39   1.110203 S    
C96   C100  1.415495 A    
C92   C112  1.383084 A    
C9    C61   1.454428 S    
O69   H61   0.987874 S    
C15   C82   1.488554 S    
O25   C21   1.276388 A    
C85   C89   1.379868 A    
C86   C90   1.391080 A    
C4    C33   1.453161 S    
C31   H3    1.083056 S    
C80   H26   1.104749 S    
C33   C49   1.405484 A    
O47   C23   1.272696 A    
O20   Cr12  2.063170 S    
C54   C58   1.521757 S    
C77   H29   1.111384 S    
O62   H54   0.990603 S    
C76   O72   1.374175 S    
C91   C107  1.473050 S    
O68   H60   0.992819 S    
O8    Cr4   1.951181 S    
C56   O68   1.407853 S    
O23   Cr11  1.958396 S    
C90   C106  1.483929 S    
C104  H44   1.106301 S    
O61   H53   0.991342 S    
C46   C50   1.402305 A    
C89   C105  1.493638 S    
C25   C30   1.341901 D    
O32   Cr4   1.951725 S    
C81   C85   1.384212 A    
C1    O9    1.267918 A    
O44   Cr12  2.080556 S    
O7    C3    1.278618 A    
C45   C49   1.393124 A    
C13   C84   1.461544 S    
C87   C103  1.488182 S    
C27   C32   1.338451 D    
C3    O11   1.267408 A    
C94   C110  1.418416 A    
O11   Cr7   2.081820 S    
C4    O12   1.269027 A    
O21   C9    1.284841 A    
C71   C79   1.476348 S    
C88   C104  1.485975 S    
C58   H22   1.111478 S    
N3    O57   1.302350 A    
C101  C105  1.498105 S    
C48   O64   1.384446 S    
C7    O19   1.271306 A    
C108  H52   1.105520 S    
O3    Cr3   2.068802 S    
C38   C42   1.385293 A    
C57   H17   1.112405 S    
C84   C100  1.401547 A    
C73   O69   1.378798 S    
O8    C4    1.282048 A    
C90   C110  1.396877 A    
C36   C40   1.396500 A    
O2    C10   1.273661 A    
C23   C111  1.448957 S    
O42   Cr10  2.080556 S    
C95   N3    1.434511 S    
C85   C101  1.485053 S    
O18   Cr10  2.063170 S    
C41   C61   1.401449 A    
O63   H55   0.991337 S    
C108  H48   1.109380 S    
C103  C107  1.493582 S    
N3    O58   1.297699 A    
C34   C50   1.404934 A    
C2    C35   1.451940 S    
C102  H42   1.098808 S    
Cr5   O49   1.993589 S    
C36   C52   1.405975 A    
C101  H41   1.110924 S    
C56   C60   1.519048 S    
Cr7   O51   1.993589 S    
C16   C81   1.460543 S    
C72   C80   1.487481 S    
O6    Cr2   1.951181 S    
O35   Cr7   2.061374 S    
O31   Cr3   1.948012 S    
O4    Cr4   2.072814 S    
O24   Cr12  1.960422 S    
N4    O60   1.299011 A    
O30   Cr2   1.951725 S    
C78   H30   1.112975 S    
O22   C10   1.280293 A    
O26   C22   1.281846 A    
C67   C71   1.369711 A    
O48   Cr12  1.943686 S    
C83   C87   1.384718 A    
C89   C109  1.397057 A    
O66   H58   0.993894 S    
C103  H43   1.102544 S    
C68   C75   1.410328 A    
C106  H50   1.108077 S    
C2    O10   1.268757 A    
C69   C77   1.496111 S    
C79   C80   1.499368 S    
O23   C11   1.284338 A    
O16   Cr8   1.945014 S    
C43   C59   1.496646 S    
C95   C99   1.410476 A    
C53   C57   1.517263 S    
O27   C23   1.276076 A    
Cr10  O50   1.994206 S    
C49   H9    1.081069 S    
C35   C51   1.406253 A    
C92   C108  1.475651 S    
C28   C31   1.345210 D    
C47   C63   1.411863 A    
Cr4   O52   1.996715 S    
O28   Cr4   2.068515 S    
C79   H25   1.104870 S    
C88   C92   1.376340 A    
C54   O66   1.410306 S    
C48   C64   1.412307 A    
Cr12  O52   1.994206 S    
O22   Cr10  1.960422 S    
O15   C7    1.282704 A    
O21   Cr9   1.958396 S    
C26   H5    1.086459 S    
O5    C1    1.281550 A    
N1    O53   1.301599 A    
C18   C65   1.449032 S    
C87   C91   1.377685 A    
C104  C108  1.491855 S    
C98   H34   1.080421 S    
O39   Cr7   1.962126 S    
C99   H35   1.079428 S    
C97   H33   1.077531 S    
C71   C72   1.362761 A    
C44   C60   1.497275 S    
C10   C62   1.454679 S    
C13   O33   1.276460 A    
O48   C24   1.261421 A    
Cr1   O49   1.996739 S    
C75   O71   1.378452 S    
C3    C34   1.449421 S    
N2    O56   1.297323 A    
C6    C26   1.461063 S    
C107  H47   1.110836 S    
C29   C30   1.469191 S    
C95   C111  1.408541 A    
O47   Cr11  1.944710 S    
Cr2   O50   1.996715 S    
C59   H19   1.112444 S    
C50   H10   1.078321 S    
C82   C86   1.393220 A    
C41   C57   1.496419 S    
C77   H27   1.109678 S    
C38   C54   1.493706 S    
C55   H13   1.113311 S    
C102  C106  1.503135 S    
Cr3   O51   1.996739 S    
O14   Cr6   1.945014 S    
C74   O70   1.377385 S    
C96   C112  1.433308 A    
O27   Cr3   2.071993 S    
O9    Cr5   2.081820 S    
O30   C14   1.275736 A    
C8    C28   1.462379 S    
C51   H11   1.081543 S    
C7    C27   1.460883 S    
C19   O43   1.269936 A    
O3    C11   1.272880 A    
O70   H62   0.990364 S    
C102  H38   1.097939 S    
C29   H1    1.084301 S    
C40   C44   1.390635 A    
C8    O20   1.274389 A    
C101  H37   1.105780 S    
C46   O62   1.382189 S    
C70   C78   1.483044 S    
C26   C29   1.343576 D    
C79   H31   1.111508 S    
C42   C62   1.403408 A    
C34   C38   1.389992 A    
O25   Cr1   2.071993 S    
C37   C53   1.492532 S    
C80   H32   1.108461 S    
C12   C64   1.454163 S    
C5    O17   1.272453 A    
N4    O59   1.300296 A    
O26   Cr2   2.068515 S    
O37   C17   1.274604 A    
O28   C24   1.289540 A    
O14   C6    1.279733 A    
C60   H20   1.112085 S    
C35   C39   1.396790 A    
C14   C83   1.454686 S    
C52   H12   1.081738 S    
O5    Cr1   1.954672 S    
C11   C63   1.453496 S    
C5    C25   1.459228 S    
O31   C15   1.311672 A    
O17   Cr9   2.063954 S    
O2    Cr2   2.072814 S    
O6    C2    1.280835 A    
O7    Cr3   1.954672 S    
O64   H56   0.991432 S    
O24   C12   1.284543 A    
C55   O67   1.401065 S    
C17   O41   1.276641 A    
C96   N4    1.444751 S    
C44   C64   1.401209 A    
C68   C72   1.393564 A    
C37   C41   1.387412 A    
C67   C76   1.424056 A    
C22   C110  1.491996 S    
C17   C66   1.443277 S    
C14   O34   1.277992 A    
C21   C109  1.467367 S    
O38   C18   1.281381 A    
O40   Cr8   1.959464 S    
O29   C13   1.280399 A    
C65   C74   1.412925 A    
C20   O44   1.284000 A    
O1    Cr1   2.068802 S    
C28   H7    1.086548 S    
C60   H24   1.112019 S    
C53   O65   1.401003 S    
C47   O63   1.384236 S    
C20   C67   1.446821 S    
O15   Cr7   1.943537 S    
N1    O54   1.299567 A    
O32   C16   1.306852 A    
O41   Cr9   2.078971 S    
O46   Cr10  1.943686 S    
C39   C55   1.494004 S    
O13   Cr5   1.943537 S    
Cr6   O50   1.994739 S    
O67   H59   0.992004 S    
C33   C37   1.396630 A    
C53   H15   1.112035 S    
O45   C21   1.282275 A    
C32   H4    1.083653 S    
O34   Cr6   2.063280 S    
C54   H16   1.111420 S    
N2    O55   1.301426 A    
C104  H40   1.106409 S    
O33   Cr5   2.061374 S    
C59   H23   1.112735 S    
C94   N2    1.432543 S    
O10   Cr6   2.078618 S    
C65   C69   1.395147 A    
C93   N1    1.432041 S    
C55   C59   1.516015 S    
C40   C56   1.496300 S    
C75   C76   1.410421 A    
C48   C52   1.393076 A    
C94   C98   1.423754 A    
O29   Cr1   1.948012 S    
O19   Cr11  2.063954 S    
C100  H36   1.082425 S    
C93   C97   1.410755 A    
C16   O36   1.302779 A    
O40   C20   1.265918 A    
O46   C22   1.288696 A    
Cr8   O52   1.994739 S    
C6    O18   1.274688 A    
O43   Cr11  2.078971 S    
O71   H63   0.991305 S    
C66   C70   1.379406 A    
C30   H2    1.084509 S    
O45   Cr9   1.944710 S    
C39   C43   1.387819 A    
C93   C109  1.418469 A    
O12   Cr8   2.078618 S    
C57   H21   1.112310 S    
O36   Cr8   2.063280 S    
C56   H14   1.108985 S    
O16   C8    1.279610 A    
Cr9   O49   1.995400 S    
C84   C88   1.387763 A    
C45   O61   1.384299 S    
O38   Cr6   1.959464 S    
O13   C5    1.279335 A    
