data_mof_unit_42133.cif
_audit_creation_date              2012-12-10T17:20:24-0500
_audit_creation_method            fapswitch 2.2
_symmetry_space_group_name_H-M    P1
_symmetry_Int_Tables_number       1
_space_group_crystal_system       triclinic
_cell_length_a                    11.692025
_cell_length_b                    10.766894
_cell_length_c                    9.65061
_cell_angle_alpha                 89.427785
_cell_angle_beta                  89.466617
_cell_angle_gamma                 92.561547
_cell_volume                      1213.55202799

loop_
_atom_site_label
_atom_site_type_symbol
_atom_type_description
_atom_site_fract_x
_atom_site_fract_y
_atom_site_fract_z
_atom_type_partial_charge
C1    C     C_R   0.501620 0.263126 0.500588 0.792026
C2    C     C_R   0.817687 0.075584 0.533889 -0.119839
C3    C     C_R   0.816368 0.946319 0.530366 -0.110241
C4    C     C_R   0.712872 0.877940 0.518202 -0.196545
C5    C     C_R   0.608148 0.938442 0.509792 0.040671
C6    C     C_R   0.609819 0.069625 0.512455 0.107370
C7    C     C_R   0.505541 0.129622 0.501670 -0.149358
C8    C     C_R   0.401923 0.062287 0.489172 -0.279492
C9    C     C_R   0.398586 0.933409 0.487992 0.365883
C10   C     C_R   0.501852 0.871340 0.498204 -0.216975
C11   C     C_R   0.652332 0.664472 0.140142 -0.119786
C12   C     C_R   0.284230 0.498283 0.500513 0.893208
C13   C     C_R   0.726868 0.745288 0.066803 -0.190527
C14   C     C_R   0.727216 0.745324 0.923951 -0.187176
C15   C     C_R   0.653064 0.664517 0.853481 -0.114336
C16   C     C_R   0.575510 0.580285 0.923660 0.170943
C17   C     C_R   0.575163 0.580419 0.072867 0.188516
C18   C     C_R   0.427889 0.424646 0.077524 -0.033896
C19   C     C_R   0.425573 0.424778 0.930286 0.252750
C20   C     C_R   0.498495 0.737005 0.499395 0.875946
C21   C     C_R   0.715744 0.500783 0.499493 0.762500
C22   C     C_1   0.162399 0.498137 0.501255 -0.087308
C23   C     C_1   0.059865 0.498758 0.500670 0.039645
C24   C     C_1   0.940036 0.499778 0.499422 0.011540
C25   C     C_1   0.837512 0.500477 0.498784 -0.172294
C26   C     C_R   0.715536 0.137147 0.524840 -0.152560
Cu1   Cu    Cu3+1 0.499990 0.499990 0.640660 0.961434
Cu2   Cu    Cu3+1 0.500010 0.500010 0.359340 0.963764
H1    H     H_    0.323281 0.111375 0.481072 0.175874
H2    H     H_    0.785222 0.808750 0.866911 0.164815
H3    H     H_    0.660002 0.672959 0.744173 0.190328
H4    H     H_    0.720023 0.237557 0.527543 0.125801
H5    H     H_    0.898171 0.128397 0.543285 0.152792
H6    H     H_    0.895844 0.898802 0.536893 0.181606
H7    H     H_    0.715847 0.777767 0.514923 0.102995
H8    H     H_    0.368890 0.364265 0.136896 0.144802
H9    H     H_    0.658653 0.672325 0.249334 0.191895
H10   H     H_    0.784654 0.808606 0.121563 0.166453
N1    N     N_R   0.501070 0.501210 0.147910 -0.216477
N2    N     N_R   0.501110 0.501290 0.852040 -0.196094
O1    O     O_R   0.499990 0.319640 0.618810 -0.583933
O2    O     O_R   0.500000 0.319660 0.381240 -0.576619
O3    O     O_R   0.337190 0.500000 0.618790 -0.568713
O4    O     O_R   0.337200 0.500030 0.381210 -0.552566
O5    O     O_R   0.500000 0.680340 0.618760 -0.579192
O6    O     O_R   0.500010 0.680360 0.381190 -0.584776
O7    O     O_R   0.662800 0.499970 0.618790 -0.595326
O8    O     O_R   0.662810 0.500000 0.381210 -0.590732
C27   C     C_3   0.333164 0.342363 0.866174 -0.761433
H11   H     H_    0.367766 0.276858 0.791653 0.252920
H12   H     H_    0.287410 0.282785 0.945410 0.182048
H13   H     H_    0.266668 0.399036 0.819700 0.242639
S1    S     S_3+6 0.263747 0.852403 0.475701 -0.006683
O9    O     O_2   0.244372 0.772774 0.603186 -0.275853
O10   O     O_2   0.168447 0.941118 0.464635 -0.313071
O11   O     O_3   0.262418 0.761031 0.335471 -0.513283
H14   H     H_    0.287494 0.816792 0.257660 0.343917

loop_
_geom_bond_atom_site_label_1
_geom_bond_atom_site_label_2
_ccdc_geom_bond_type
C8    C9    A    
C23   C24   S    
C26   H4    S    
C6    C7    A    
Cu1   O3    S    
C9    C10   A    
Cu1   O1    S    
C20   O5    A    
Cu2   N1    S    
Cu1   N2    S    
C18   N1    A    
C21   O8    A    
Cu1   O5    S    
C2    C3    A    
C4    H7    S    
C5    C10   A    
C2    C26   A    
C13   C14   A    
C24   C25   T    
C15   H3    S    
C11   C13   A    
Cu2   O6    S    
C13   H10   S    
C6    C26   A    
C14   H2    S    
C27   H13   S    
C8    H1    S    
C2    H5    S    
C1    O1    A    
Cu2   O8    S    
C16   N2    A    
C27   H11   S    
C12   O3    A    
S1    O10   D    
C5    C6    A    
C9    S1    S    
C19   N2    A    
C15   C16   A    
C12   C22   S    
C1    O2    A    
C7    C8    A    
O11   H14   S    
C12   O4    A    
C18   C19   A    
C17   N1    A    
S1    O11   S    
Cu1   O7    S    
Cu1   Cu2   S    
C11   H9    S    
C19   C27   S    
C14   C15   A    
C4    C5    A    
C21   C25   S    
Cu2   O2    S    
C3    H6    S    
C21   O7    A    
C1    C7    S    
C18   H8    S    
Cu2   O4    S    
C22   C23   T    
C20   O6    A    
C3    C4    A    
S1    O9    D    
C10   C20   S    
C16   C17   A    
C27   H12   S    
C11   C17   A    
