data_mof_unit_31230.cif
_audit_creation_date              2012-12-10T17:24:16-0500
_audit_creation_method            fapswitch 2.2
_symmetry_space_group_name_H-M    P1
_symmetry_Int_Tables_number       1
_space_group_crystal_system       triclinic
_cell_length_a                    19.329363
_cell_length_b                    10.796309
_cell_length_c                    9.712684
_cell_angle_alpha                 89.206712
_cell_angle_beta                  91.580164
_cell_angle_gamma                 95.889543
_cell_volume                      2015.30973893

loop_
_atom_site_label
_atom_site_type_symbol
_atom_type_description
_atom_site_fract_x
_atom_site_fract_y
_atom_site_fract_z
_atom_type_partial_charge
C1    C     C_R   0.503206 0.263343 0.502661 0.909244
C2    C     C_R   0.291729 0.524221 0.489270 -0.159077
C3    C     C_R   0.927575 0.460118 0.493839 0.544456
C4    C     C_R   0.068122 0.479153 0.485060 0.470026
C5    C     C_R   0.825070 0.534543 0.602059 0.378791
C6    C     C_R   0.753435 0.544699 0.604077 0.302360
C7    C     C_R   0.707900 0.482658 0.504643 -0.327946
C8    C     C_R   0.735213 0.404011 0.408736 0.313214
C9    C     C_R   0.807111 0.394681 0.406942 0.363385
C10   C     C_R   0.852039 0.461122 0.502417 -0.250746
C11   C     C_R   0.618373 0.132357 0.640301 -0.026635
C12   C     C_R   0.367993 0.509343 0.497504 0.894523
C13   C     C_R   0.684677 0.088623 0.629663 0.349867
C14   C     C_R   0.689475 0.969823 0.577052 0.443380
C15   C     C_R   0.628919 0.894060 0.543101 -0.231969
C16   C     C_R   0.564481 0.944179 0.533316 -0.038686
C17   C     C_R   0.562131 0.071269 0.560480 -0.028008
C18   C     C_R   0.502749 0.128458 0.511658 -0.165601
C19   C     C_R   0.442226 0.055168 0.466555 0.325164
C20   C     C_R   0.441587 0.926019 0.462351 0.319023
C21   C     C_R   0.502633 0.871049 0.495335 -0.159387
C22   C     C_R   0.568657 0.710881 0.135690 0.364854
C23   C     C_R   0.500342 0.736798 0.498695 0.843395
C24   C     C_R   0.578766 0.820369 0.056419 0.368216
C25   C     C_R   0.587847 0.809714 0.916644 -0.239855
C26   C     C_R   0.574113 0.694340 0.856067 -0.086514
C27   C     C_R   0.536644 0.595781 0.925535 0.058538
C28   C     C_R   0.536029 0.598850 0.073676 0.057845
C29   C     C_R   0.460066 0.410311 0.072121 0.154212
C30   C     C_R   0.462538 0.409313 0.924381 0.417220
C31   C     C_R   0.632248 0.496415 0.501717 0.912776
C32   C     C_R   0.254710 0.554229 0.606161 0.099962
C33   C     C_R   0.181867 0.534394 0.603176 -0.179723
C34   C     C_R   0.144729 0.495486 0.482949 -0.116489
C35   C     C_R   0.181017 0.484990 0.360739 0.370393
C36   C     C_R   0.253736 0.507603 0.362636 0.338817
Cu1   Cu    Cu3+1 0.500000 0.499990 0.640660 0.994762
Cu2   Cu    Cu3+1 0.500000 0.500010 0.359340 1.059768
H1    H     H_    0.633202 0.797866 0.518854 0.201467
H2    H     H_    0.609331 0.888697 0.856373 0.182813
H3    H     H_    0.592059 0.685179 0.754354 0.236532
H4    H     H_    0.153794 0.554752 0.693939 0.203583
N1    N     N_R   0.029581 0.517836 0.376910 -0.114891
N2    N     N_R   0.960570 0.508326 0.380997 -0.130838
N3    N     N_R   0.965838 0.421830 0.602608 -0.116107
N4    N     N_R   0.034956 0.431197 0.598280 -0.178293
N5    N     N_R   0.500660 0.501210 0.147910 -0.204933
N6    N     N_R   0.500680 0.501290 0.852040 -0.234093
O1    O     O_R   0.499990 0.319640 0.618810 -0.532212
O2    O     O_R   0.500000 0.319660 0.381240 -0.590257
O3    O     O_R   0.400140 0.499970 0.618820 -0.546836
O4    O     O_R   0.400150 0.500000 0.381250 -0.547073
O5    O     O_R   0.500000 0.680340 0.618760 -0.623023
O6    O     O_R   0.500010 0.680360 0.381190 -0.538843
O7    O     O_R   0.599850 0.500000 0.618750 -0.603344
O8    O     O_R   0.599860 0.500030 0.381180 -0.487562
C37   C     C_3   0.289678 0.624127 0.727129 -0.345526
C38   C     C_3   0.294686 0.538891 0.851594 -0.673152
H5    H     H_    0.312530 0.449611 0.820156 0.281267
H6    H     H_    0.332638 0.584015 0.927850 0.271038
H7    H     H_    0.243053 0.519701 0.899258 0.289500
H8    H     H_    0.342038 0.668934 0.701378 0.231621
H9    H     H_    0.259419 0.702201 0.754084 0.236587
C39   C     C_3   0.601308 0.181585 0.780533 -0.392744
C40   C     C_3   0.642928 0.303517 0.823943 -0.504337
H10   H     H_    0.683799 0.284937 0.901985 0.291567
H11   H     H_    0.668686 0.351509 0.735548 0.255196
H12   H     H_    0.608548 0.365882 0.871575 0.230534
H13   H     H_    0.545037 0.189360 0.788940 0.255971
H14   H     H_    0.611561 0.109740 0.859286 0.235517
Cl1   Cl    Cl    0.761027 0.173792 0.695450 -0.481387
Cl2   Cl    Cl    0.770266 0.909902 0.562925 -0.328623
Cl3   Cl    Cl    0.364146 0.833130 0.414364 -0.515307
C41   C     C_3   0.414661 0.305878 0.144967 -0.302100
C42   C     C_3   0.339179 0.275313 0.092101 -0.608209
H15   H     H_    0.321120 0.352489 0.030076 0.272818
H16   H     H_    0.333858 0.188749 0.030732 0.285021
H17   H     H_    0.303410 0.257400 0.179536 0.277895
H18   H     H_    0.441599 0.219709 0.146569 0.233606
H19   H     H_    0.407149 0.332006 0.250036 0.279658
Cl4   Cl    Cl    0.637746 0.710708 0.255915 -0.494684
Cl5   Cl    Cl    0.600683 0.966656 0.133522 -0.489277
Cl6   Cl    Cl    0.415343 0.287575 0.831905 -0.615814
Cl7   Cl    Cl    0.137095 0.439185 0.204229 -0.440671
Cl8   Cl    Cl    0.293632 0.539381 0.203259 -0.566810
Cl9   Cl    Cl    0.881685 0.620377 0.721025 -0.347790
Cl10  Cl    Cl    0.723105 0.637528 0.732537 -0.502267
Cl11  Cl    Cl    0.679856 0.309370 0.295452 -0.453070
Cl12  Cl    Cl    0.840807 0.296163 0.286992 -0.341586
Cl13  Cl    Cl    0.364619 0.123920 0.428237 -0.544086

loop_
_geom_bond_atom_site_label_1
_geom_bond_atom_site_label_2
_ccdc_geom_bond_type
C27   N6    A    
C28   N5    A    
C16   C21   A    
C35   C36   A    
C42   H15   S    
C2    C12   S    
C37   H8    S    
C4    N4    A    
N3    N4    A    
C26   C27   A    
Cu1   Cu2   S    
C29   N5    A    
C33   H4    S    
C30   N6    A    
C18   C19   A    
C25   H2    S    
C5    C6    A    
Cu1   O3    S    
Cu2   O4    S    
C38   H6    S    
C15   C16   A    
C2    C32   A    
C34   C35   A    
C30   Cl6   S    
C24   Cl5   S    
C19   C20   A    
C8    C9    A    
C40   H11   S    
C23   O5    A    
C39   H14   S    
C31   O8    A    
C1    O2    A    
Cu1   O5    S    
C38   H7    S    
C41   H19   S    
C13   C14   A    
C32   C37   S    
C12   O4    A    
C37   H9    S    
C4    C34   S    
C3    N2    A    
C7    C31   S    
C41   C42   S    
C22   Cl4   S    
C7    C8    A    
C24   C25   A    
C11   C39   S    
C9    Cl12  S    
C16   C17   A    
C29   C41   S    
C13   Cl1   S    
C25   C26   A    
C3    N3    A    
C6    Cl10  S    
C8    Cl11  S    
N1    N2    A    
C29   C30   A    
Cu1   O1    S    
Cu2   O6    S    
C40   H12   S    
C17   C18   A    
C1    C18   S    
C39   H13   S    
Cu1   N6    S    
C42   H16   S    
C15   H1    S    
Cu2   N5    S    
C5    Cl9   S    
C41   H18   S    
C21   C23   S    
C22   C24   A    
C12   O3    A    
C23   O6    A    
C9    C10   A    
C2    C36   A    
C11   C17   A    
C14   Cl2   S    
C35   Cl7   S    
C6    C7    A    
Cu2   O2    S    
C4    N1    A    
C36   Cl8   S    
C32   C33   A    
C38   H5    S    
C5    C10   A    
C19   Cl13  S    
C39   C40   S    
C11   C13   A    
C37   C38   S    
C33   C34   A    
C20   Cl3   S    
C42   H17   S    
Cu1   O7    S    
Cu2   O8    S    
C20   C21   A    
C40   H10   S    
C27   C28   A    
C3    C10   S    
C14   C15   A    
C22   C28   A    
C31   O7    A    
C1    O1    A    
C26   H3    S    
