data_mof_unit_43224.cif
_audit_creation_date              2012-12-11T14:24:40-0500
_audit_creation_method            fapswitch 2.2
_symmetry_space_group_name_H-M    P1
_symmetry_Int_Tables_number       1
_space_group_crystal_system       triclinic
_cell_length_a                    19.036471
_cell_length_b                    11.029417
_cell_length_c                    18.814954
_cell_angle_alpha                 89.548416
_cell_angle_beta                  90.937923
_cell_angle_gamma                 91.290807
_cell_volume                      3948.76673231

loop_
_atom_site_label
_atom_site_type_symbol
_atom_type_description
_atom_site_fract_x
_atom_site_fract_y
_atom_site_fract_z
_atom_type_partial_charge
C1    C     C_R   0.729588 0.374294 0.145368 0.530149
C2    C     C_R   0.270343 0.373892 0.854805 0.547034
C3    C     C_R   0.229588 0.874293 0.145367 0.530147
C4    C     C_R   0.770343 0.873892 0.854805 0.547031
C5    C     C_3   0.492994 0.048835 0.024103 -0.098587
C6    C     C_3   0.546359 0.089608 0.967381 -0.120281
C7    C     C_3   0.992993 0.548835 0.024104 -0.098587
C8    C     C_3   0.046359 0.589607 0.967381 -0.120281
C9    C     C_R   0.754884 0.902181 0.929405 -0.007803
C10   C     C_R   0.244675 0.904142 0.070523 -0.005290
C11   C     C_R   0.254884 0.402181 0.929405 -0.007802
C12   C     C_R   0.744675 0.404143 0.070524 -0.005290
C13   C     C_R   0.697904 0.847932 0.967340 0.019184
C14   C     C_R   0.301804 0.854921 0.033405 0.023165
C15   C     C_R   0.197904 0.347931 0.967340 0.019187
C16   C     C_R   0.801805 0.354922 0.033405 0.023164
C17   C     C_R   0.700698 0.846805 0.042924 0.029102
C18   C     C_R   0.298290 0.850028 0.958016 0.021400
C19   C     C_R   0.200698 0.346805 0.042924 0.029102
C20   C     C_R   0.798291 0.350029 0.958016 0.021407
C21   C     C_R   0.809127 0.966047 0.040438 -0.157693
C22   C     C_R   0.189035 0.958251 0.958480 -0.156395
C23   C     C_R   0.309126 0.466049 0.040438 -0.157693
C24   C     C_R   0.689036 0.458253 0.958480 -0.156396
C25   C     C_R   0.809954 0.958856 0.967759 -0.148984
C26   C     C_R   0.188943 0.954155 0.031332 -0.157138
C27   C     C_R   0.309953 0.458857 0.967759 -0.148986
C28   C     C_R   0.688944 0.454157 0.031332 -0.157140
C29   C     C_R   0.639061 0.792204 0.933202 -0.093327
C30   C     C_R   0.361559 0.807914 0.068379 -0.096264
C31   C     C_R   0.139061 0.292202 0.933203 -0.093335
C32   C     C_R   0.861559 0.307915 0.068380 -0.096265
C33   C     C_R   0.091136 0.222295 0.971713 -0.132797
C34   C     C_R   0.909843 0.241306 0.031233 -0.144072
C35   C     C_R   0.591135 0.722296 0.971712 -0.132793
C36   C     C_R   0.409843 0.741306 0.031232 -0.144072
C37   C     C_R   0.598498 0.710993 0.044973 -0.137043
C38   C     C_R   0.401554 0.724829 0.958439 -0.127287
C39   C     C_R   0.098498 0.210992 0.044974 -0.137038
C40   C     C_R   0.901554 0.224829 0.958440 -0.127289
C41   C     C_R   0.652173 0.773557 0.080597 -0.081539
C42   C     C_R   0.346797 0.779437 0.921818 -0.077475
C43   C     C_R   0.152174 0.273556 0.080598 -0.081539
C44   C     C_R   0.846797 0.279438 0.921819 -0.077472
C45   C     C_R   0.533928 0.154836 0.143451 0.556882
C46   C     C_R   0.467361 0.155908 0.855724 0.538097
C47   C     C_R   0.033928 0.654836 0.143451 0.556884
C48   C     C_R   0.967361 0.655908 0.855724 0.538076
C49   C     C_R   0.753054 0.916810 0.078684 -0.007187
C50   C     C_R   0.245545 0.914283 0.921085 -0.011928
C51   C     C_R   0.253054 0.416811 0.078684 -0.007188
C52   C     C_R   0.745545 0.414285 0.921085 -0.011922
C53   C     C_R   0.501803 0.166682 0.578398 -0.025146
C54   C     C_R   0.539382 0.152079 0.435386 0.008811
C55   C     C_R   0.001833 0.666705 0.578414 -0.025152
C56   C     C_R   0.039396 0.652090 0.435394 0.008783
C57   C     C_R   0.546351 0.074686 0.557358 0.027068
C58   C     C_R   0.555666 0.055953 0.484035 0.017807
C59   C     C_R   0.046359 0.574682 0.557365 0.027069
C60   C     C_R   0.055667 0.555951 0.484040 0.017815
C61   C     C_R   0.499858 0.248477 0.458846 -0.139846
C62   C     C_R   0.476926 0.249430 0.528018 -0.183747
C63   C     C_R   0.999912 0.748530 0.458867 -0.139842
C64   C     C_R   0.976995 0.749506 0.528045 -0.183700
C65   C     C_R   0.574248 0.991793 0.607353 -0.082555
C66   C     C_R   0.575320 0.938662 0.463519 -0.127417
C67   C     C_R   0.074244 0.491772 0.607357 -0.082535
C68   C     C_R   0.075306 0.438655 0.463520 -0.127416
C69   C     C_R   0.091228 0.376762 0.586014 -0.100293
C70   C     C_R   0.087392 0.348971 0.514592 -0.151838
C71   C     C_R   0.591244 0.876786 0.586016 -0.100287
C72   C     C_R   0.587411 0.848985 0.514594 -0.151820
C73   C     C_R   0.790681 0.869458 0.563847 0.011617
C74   C     C_R   0.254988 0.952128 0.416558 0.002744
C75   C     C_R   0.290677 0.369448 0.563846 0.011589
C76   C     C_R   0.754982 0.452122 0.416563 0.002746
C77   C     C_R   0.833814 0.970534 0.538126 -0.003374
C78   C     C_R   0.202122 0.013091 0.452258 -0.005818
C79   C     C_R   0.333813 0.470516 0.538123 -0.003393
C80   C     C_R   0.702116 0.513087 0.452262 -0.005807
C81   C     C_R   0.815848 0.027146 0.473173 0.032214
C82   C     C_R   0.191109 0.986520 0.524455 0.020242
C83   C     C_R   0.315843 0.527140 0.473176 0.032217
C84   C     C_R   0.691104 0.486526 0.524461 0.020217
C85   C     C_R   0.731988 0.855002 0.452268 -0.154751
C86   C     C_R   0.313946 0.925712 0.528878 -0.157362
C87   C     C_R   0.231974 0.355008 0.452272 -0.154747
C88   C     C_R   0.813938 0.425698 0.528882 -0.157346
C89   C     C_R   0.742291 0.967274 0.149538 0.549481
C90   C     C_R   0.257271 0.967334 0.850364 0.522789
C91   C     C_R   0.242291 0.467274 0.149538 0.549479
C92   C     C_R   0.757272 0.467335 0.850364 0.522727
C93   C     C_R   0.746238 0.807376 0.518184 -0.166295
C94   C     C_R   0.314745 0.921842 0.454866 -0.137801
C95   C     C_R   0.246224 0.307378 0.518187 -0.166287
C96   C     C_R   0.814738 0.421832 0.454871 -0.137814
C97   C     C_R   0.894093 0.017904 0.576513 -0.113725
C98   C     C_R   0.152014 0.079618 0.414092 -0.117697
C99   C     C_R   0.394101 0.517863 0.576504 -0.113740
C100  C     C_R   0.652010 0.579615 0.414095 -0.117702
C101  C     C_R   0.920513 0.132777 0.566001 -0.181753
C102  C     C_R   0.082935 0.065769 0.432866 -0.164547
C103  C     C_R   0.420515 0.632744 0.566005 -0.181724
C104  C     C_R   0.582931 0.565767 0.432867 -0.164523
C105  C     C_R   0.904014 0.189811 0.504158 -0.129181
C106  C     C_R   0.066945 0.021191 0.499493 -0.113719
C107  C     C_R   0.404007 0.689800 0.504171 -0.129167
C108  C     C_R   0.566940 0.521193 0.499495 -0.113720
C109  C     C_R   0.859080 0.134150 0.453738 0.284324
C110  C     C_R   0.120341 0.997330 0.548913 0.277340
C111  C     C_R   0.359072 0.634148 0.453747 0.284325
C112  C     C_R   0.620335 0.497354 0.548922 0.277283
C113  C     C_R   0.758498 0.968893 0.432531 0.022208
C114  C     C_R   0.251421 0.950903 0.565109 -0.006794
C115  C     C_R   0.258492 0.468894 0.432533 0.022199
C116  C     C_R   0.751415 0.450898 0.565114 -0.006808
C117  C     C_R   0.733050 0.386555 0.351080 0.541798
C118  C     C_R   0.290967 0.332141 0.638619 0.564561
C119  C     C_R   0.233051 0.886557 0.351078 0.541802
C120  C     C_R   0.790967 0.832143 0.638619 0.564573
C121  C     C_R   0.561416 0.152112 0.361006 0.544961
C122  C     C_R   0.466950 0.157993 0.646929 0.510747
C123  C     C_R   0.061418 0.652113 0.361007 0.544967
C124  C     C_R   0.966959 0.657997 0.646935 0.510738
C125  C     C_R   0.733063 0.014874 0.364856 0.553642
C126  C     C_R   0.258245 0.976996 0.641084 0.536397
C127  C     C_R   0.233062 0.514876 0.364856 0.553649
C128  C     C_R   0.758242 0.476989 0.641087 0.536371
C129  C     C_3   0.508981 0.276840 0.974326 -0.121970
C130  C     C_3   0.455607 0.235834 0.031628 -0.134555
C131  C     C_3   0.008981 0.776840 0.974326 -0.121970
C132  C     C_3   0.955607 0.735834 0.031628 -0.134554
C133  C     C_3   0.566777 0.202245 0.012117 -0.118247
C134  C     C_3   0.435250 0.123014 0.986822 -0.099903
C135  C     C_3   0.066777 0.702244 0.012117 -0.118248
C136  C     C_3   0.935249 0.623015 0.986822 -0.099901
C137  C     C_3   0.512874 0.161439 0.068066 0.044712
C138  C     C_3   0.489169 0.163710 0.930716 0.053930
C139  C     C_3   0.012874 0.661439 0.068066 0.044712
C140  C     C_3   0.989169 0.663710 0.930716 0.053930
Cr1   Cr    Cr6+3 0.772820 0.169820 0.252640 1.001264
Cr2   Cr    Cr6+3 0.227180 0.169820 0.747360 1.010137
Cr3   Cr    Cr6+3 0.272820 0.669820 0.252640 1.001260
Cr4   Cr    Cr6+3 0.727180 0.669820 0.747360 1.010191
Cr5   Cr    Cr6+3 0.615040 0.323610 0.249150 0.996003
Cr6   Cr    Cr6+3 0.384960 0.323610 0.750850 0.977466
Cr7   Cr    Cr6+3 0.115040 0.823610 0.249150 0.996002
Cr8   Cr    Cr6+3 0.884960 0.823610 0.750850 0.977499
Cr9   Cr    Cr6+3 0.616720 0.011130 0.250660 0.981871
Cr10  Cr    Cr6+3 0.383280 0.011130 0.749340 0.998740
Cr11  Cr    Cr6+3 0.116720 0.511130 0.250660 0.981873
Cr12  Cr    Cr6+3 0.883280 0.511130 0.749340 0.998747
H1    H     H_    0.621551 0.232316 0.024314 0.130335
H2    H     H_    0.380742 0.090204 0.975059 0.131672
H3    H     H_    0.121551 0.732314 0.024314 0.130336
H4    H     H_    0.880741 0.590206 0.975059 0.131673
H5    H     H_    0.482040 0.318476 0.422525 0.142898
H6    H     H_    0.437979 0.312679 0.541712 0.119060
H7    H     H_    0.982112 0.818551 0.422552 0.142904
H8    H     H_    0.938075 0.812799 0.541745 0.119058
H9    H     H_    0.577063 0.011650 0.663614 0.125377
H10   H     H_    0.578500 0.910118 0.409347 0.159370
H11   H     H_    0.077063 0.511624 0.663618 0.125375
H12   H     H_    0.078485 0.410114 0.409348 0.159364
H13   H     H_    0.105391 0.308249 0.624774 0.157912
H14   H     H_    0.099121 0.259372 0.498657 0.132978
H15   H     H_    0.605409 0.808281 0.624778 0.157942
H16   H     H_    0.599145 0.759385 0.498662 0.132981
H17   H     H_    0.695838 0.805820 0.417886 0.131173
H18   H     H_    0.362466 0.909223 0.557716 0.159094
H19   H     H_    0.195820 0.305832 0.417891 0.131178
H20   H     H_    0.862458 0.409201 0.557719 0.159102
H21   H     H_    0.923460 0.967704 0.615902 0.163945
H22   H     H_    0.163581 0.117229 0.362015 0.133979
H23   H     H_    0.423469 0.467643 0.615883 0.163970
H24   H     H_    0.663577 0.617222 0.362017 0.133980
H25   H     H_    0.719099 0.725699 0.535489 0.137191
H26   H     H_    0.361436 0.897132 0.427352 0.162518
H27   H     H_    0.219080 0.225706 0.535494 0.137199
H28   H     H_    0.861428 0.397122 0.427356 0.162519
H29   H     H_    0.961555 0.169876 0.600592 0.141172
H30   H     H_    0.042943 0.090140 0.395672 0.093783
H31   H     H_    0.461561 0.669833 0.600595 0.141197
H32   H     H_    0.542939 0.590124 0.395668 0.093790
H33   H     H_    0.932268 0.273499 0.492428 0.115304
H34   H     H_    0.013325 0.010568 0.513780 0.125220
H35   H     H_    0.432259 0.773492 0.492447 0.115298
H36   H     H_    0.513319 0.510550 0.513775 0.125218
H37   H     H_    0.516246 0.370085 0.952593 0.103612
H38   H     H_    0.418499 0.294277 0.059587 0.114705
H39   H     H_    0.016246 0.870084 0.952593 0.103609
H40   H     H_    0.918499 0.794278 0.059587 0.114705
H41   H     H_    0.486976 0.955592 0.045776 0.143806
H42   H     H_    0.583789 0.031388 0.939708 0.119812
H43   H     H_    0.986975 0.455592 0.045776 0.143806
H44   H     H_    0.083789 0.531387 0.939709 0.119812
H45   H     H_    0.852201 0.014519 0.066572 0.146332
H46   H     H_    0.145319 0.000810 0.931464 0.144215
H47   H     H_    0.352200 0.514521 0.066572 0.146334
H48   H     H_    0.645320 0.500812 0.931465 0.144235
H49   H     H_    0.628305 0.802198 0.877065 0.136501
H50   H     H_    0.372590 0.822762 0.124100 0.127219
H51   H     H_    0.128305 0.302196 0.877066 0.136488
H52   H     H_    0.872590 0.322763 0.124101 0.127218
H53   H     H_    0.856123 0.995049 0.941797 0.147399
H54   H     H_    0.142319 0.985391 0.056663 0.152247
H55   H     H_    0.356121 0.495050 0.941796 0.147398
H56   H     H_    0.642320 0.485393 0.056663 0.152247
H57   H     H_    0.050089 0.172494 0.943935 0.095900
H58   H     H_    0.952472 0.199666 0.059762 0.100541
H59   H     H_    0.550088 0.672496 0.943934 0.095910
H60   H     H_    0.452472 0.699666 0.059761 0.100541
H61   H     H_    0.063812 0.151071 0.074448 0.092879
H62   H     H_    0.936425 0.167614 0.929963 0.093447
H63   H     H_    0.563812 0.651072 0.074448 0.092879
H64   H     H_    0.436425 0.667614 0.929961 0.093446
H65   H     H_    0.657359 0.758840 0.137311 0.126930
H66   H     H_    0.340964 0.761039 0.865628 0.129961
H67   H     H_    0.157360 0.258840 0.137311 0.126929
H68   H     H_    0.840964 0.261041 0.865629 0.129971
O1    O     O_R   0.788190 0.043000 0.172520 -0.534536
O2    O     O_R   0.211810 0.043000 0.827480 -0.532385
O3    O     O_R   0.288190 0.543000 0.172520 -0.534530
O4    O     O_R   0.711810 0.543000 0.827480 -0.532435
O5    O     O_R   0.556550 0.253260 0.323480 -0.495524
O6    O     O_R   0.443450 0.253260 0.676520 -0.558025
O7    O     O_R   0.056550 0.753260 0.323480 -0.495524
O8    O     O_R   0.943450 0.753260 0.676520 -0.558085
O9    O     O_R   0.545830 0.051610 0.330160 -0.542621
O10   O     O_R   0.454170 0.051610 0.669840 -0.517084
O11   O     O_R   0.045830 0.551610 0.330160 -0.542617
O12   O     O_R   0.954170 0.551610 0.669840 -0.517074
O13   O     O_R   0.681920 0.959720 0.327070 -0.545043
O14   O     O_R   0.318080 0.959720 0.672930 -0.516020
O15   O     O_R   0.181920 0.459720 0.327070 -0.545041
O16   O     O_R   0.818080 0.459720 0.672930 -0.515995
O17   O     O_3   0.668190 0.168190 0.250820 -0.274844
O18   O     O_3   0.331810 0.168190 0.749180 -0.266469
O19   O     O_3   0.168190 0.668190 0.250820 -0.274846
O20   O     O_3   0.831810 0.668190 0.749180 -0.266463
O21   O     O_R   0.766240 0.292300 0.176860 -0.522220
O22   O     O_R   0.233760 0.292300 0.823140 -0.506240
O23   O     O_R   0.266240 0.792300 0.176860 -0.522222
O24   O     O_R   0.733760 0.792300 0.823140 -0.506228
O25   O     O_R   0.670310 0.409160 0.168720 -0.531600
O26   O     O_R   0.329690 0.409160 0.831280 -0.523398
O27   O     O_R   0.170310 0.909160 0.168720 -0.531600
O28   O     O_R   0.829690 0.909160 0.831280 -0.523390
O29   O     O_R   0.556160 0.251900 0.173380 -0.497952
O30   O     O_R   0.443840 0.251900 0.826620 -0.511441
O31   O     O_R   0.056160 0.751900 0.173380 -0.497951
O32   O     O_R   0.943840 0.751900 0.826620 -0.511438
O33   O     O_R   0.545410 0.050140 0.168240 -0.521465
O34   O     O_R   0.454590 0.050140 0.831760 -0.515652
O35   O     O_R   0.045410 0.550140 0.168240 -0.521465
O36   O     O_R   0.954590 0.550140 0.831760 -0.515656
O37   O     O_R   0.681530 0.958350 0.176970 -0.503540
O38   O     O_R   0.318470 0.958350 0.823030 -0.504536
O39   O     O_R   0.181530 0.458350 0.176970 -0.503540
O40   O     O_R   0.818470 0.458350 0.823030 -0.504524
O41   O     O_R   0.788610 0.044480 0.334450 -0.464646
O42   O     O_R   0.211390 0.044480 0.665550 -0.462940
O43   O     O_R   0.288610 0.544480 0.334450 -0.464653
O44   O     O_R   0.711390 0.544480 0.665550 -0.463029
O45   O     O_R   0.766630 0.293670 0.326970 -0.456665
O46   O     O_R   0.233370 0.293670 0.673030 -0.504412
O47   O     O_R   0.266630 0.793670 0.326970 -0.456666
O48   O     O_R   0.733370 0.793670 0.673030 -0.504406
O49   O     O_R   0.670730 0.410640 0.330640 -0.529452
O50   O     O_R   0.329270 0.410640 0.669360 -0.531431
O51   O     O_R   0.170730 0.910640 0.330640 -0.529451
O52   O     O_R   0.829270 0.910640 0.669360 -0.531446
O53   O     O_3   0.858679 0.189952 0.388000 -0.520160
C141  C     C_3   0.924074 0.179101 0.354227 -0.006727
H69   H     H_    0.937199 0.081681 0.349398 0.126237
H70   H     H_    0.965770 0.231526 0.383200 0.099119
C142  C     C_3   0.921222 0.233551 0.279650 -0.325142
H71   H     H_    0.899529 0.326132 0.280773 0.158909
H72   H     H_    0.975112 0.239781 0.257941 0.055132
H73   H     H_    0.888968 0.174981 0.243797 0.176242
O54   O     O_3   0.101905 0.000197 0.619296 -0.556028
C143  C     C_3   0.086452 0.883294 0.644015 -0.013181
H74   H     H_    0.118344 0.811498 0.619329 0.116418
H75   H     H_    0.030963 0.871128 0.631998 0.165690
C144  C     C_3   0.095879 0.875964 0.724525 -0.323267
H76   H     H_    0.069813 0.952889 0.750292 0.154560
H77   H     H_    0.072286 0.789606 0.744590 0.103512
H78   H     H_    0.152461 0.876971 0.739305 0.161867
O55   O     O_3   0.358673 0.689956 0.388012 -0.520164
C145  C     C_3   0.424069 0.679107 0.354240 -0.006726
H79   H     H_    0.437190 0.581687 0.349404 0.126242
H80   H     H_    0.465766 0.731517 0.383220 0.099121
C146  C     C_3   0.421223 0.733578 0.279668 -0.325151
H81   H     H_    0.399535 0.826161 0.280799 0.158904
H82   H     H_    0.475114 0.739805 0.257962 0.055141
H83   H     H_    0.388967 0.675023 0.243809 0.176237
O56   O     O_3   0.601892 0.500225 0.619305 -0.555964
C147  C     C_3   0.586429 0.383318 0.644006 -0.013177
H84   H     H_    0.618458 0.311581 0.619451 0.116436
H85   H     H_    0.530986 0.371028 0.631818 0.165603
C148  C     C_3   0.595596 0.376068 0.724538 -0.323317
H86   H     H_    0.569043 0.452565 0.750196 0.154036
H87   H     H_    0.572348 0.289375 0.744505 0.103422
H88   H     H_    0.652114 0.377895 0.739534 0.162564

loop_
_geom_bond_atom_site_label_1
_geom_bond_atom_site_label_2
_ccdc_geom_bond_type
C128  O16   A    
C99   C103  A    
C133  C137  S    
C55   C59   A    
C145  C146  S    
Cr8   O52   S    
C73   C93   A    
C136  C140  S    
C75   C95   A    
C110  O54   S    
C148  H86   S    
C135  C139  S    
C143  H74   S    
C84   C112  A    
C103  H31   S    
C79   C99   A    
C5    C6    S    
Cr10  O34   S    
C123  O7    A    
C100  C104  A    
C121  O5    A    
C141  H69   S    
C94   H26   S    
C9    C13   A    
C46   O30   A    
C131  C140  S    
C92   O40   A    
C11   C15   A    
C50   C90   S    
C66   C72   A    
C12   C16   A    
Cr9   O17   S    
C87   C115  A    
C59   C60   A    
C8    C135  S    
C26   H54   S    
C68   H12   S    
C30   H50   S    
Cr8   O32   S    
C97   H21   S    
C102  H30   S    
C56   C123  S    
Cr3   O19   S    
C92   O4    A    
C106  H34   S    
Cr12  O36   S    
C48   C140  S    
C98   C102  A    
Cr5   O5    S    
C85   H17   S    
C32   C34   A    
C48   O32   A    
C78   C82   A    
C11   C27   A    
C16   C20   A    
C87   H19   S    
C96   H28   S    
C124  O12   A    
C36   H60   S    
C129  C133  S    
C28   H56   S    
C147  H84   S    
C90   O38   A    
C6    H42   S    
C148  H88   S    
C93   H25   S    
Cr8   O20   S    
Cr1   O41   S    
C108  H36   S    
C21   H45   S    
C42   H66   S    
C120  O52   A    
C117  O49   A    
C5    C137  S    
Cr10  O10   S    
Cr12  O16   S    
C54   C61   A    
C30   C36   A    
C146  H83   S    
C119  O51   A    
C29   C35   A    
C127  O15   A    
C111  O55   S    
Cr5   O25   S    
C8    C140  S    
C144  H77   S    
C1    O25   A    
C76   C96   A    
Cr4   O24   S    
C69   C70   A    
C24   H48   S    
C27   H55   S    
C65   H9    S    
C73   C77   A    
C103  C107  A    
C75   C79   A    
C130  H38   S    
Cr1   O1    S    
C88   C116  A    
Cr8   O8    S    
C63   H7    S    
C21   C49   A    
Cr11  O39   S    
C7    C8    S    
C132  C139  S    
Cr5   O29   S    
C53   C122  S    
C18   C42   A    
C89   O1    A    
C114  C126  S    
Cr9   O33   S    
Cr4   O20   S    
Cr3   O47   S    
C34   H58   S    
C59   C67   A    
C85   C93   A    
Cr11  O11   S    
Cr6   O18   S    
C129  H37   S    
Cr7   O51   S    
C77   C97   A    
C24   C28   A    
C132  H40   S    
C47   O31   A    
C84   C116  A    
C71   H15   S    
C142  H71   S    
C72   H16   S    
C1    C12   S    
C2    C11   S    
C20   C44   A    
C121  O9    A    
C39   H61   S    
C83   C115  A    
C10   C14   A    
C17   C49   A    
Cr7   O7    S    
Cr2   O22   S    
Cr9   O13   S    
C146  H81   S    
C132  C136  S    
Cr11  O15   S    
O55   C145  S    
C2    O22   A    
Cr9   O37   S    
C54   C121  S    
C74   C78   A    
Cr3   O23   S    
C47   C139  S    
C101  H29   S    
C129  C130  S    
C105  C109  A    
C40   H62   S    
C86   H18   S    
C107  C111  A    
Cr2   O46   S    
C41   H65   S    
C15   C31   A    
Cr7   O19   S    
C16   C32   A    
C143  H75   S    
C13   C17   A    
Cr9   O9    S    
C85   C113  A    
C71   C72   A    
C57   C58   A    
C46   O34   A    
C141  H70   S    
C37   C41   A    
C61   C62   A    
C126  O14   A    
C69   H13   S    
C91   O39   A    
C63   C64   A    
C67   H11   S    
C40   C44   A    
C99   H23   S    
C143  C144  S    
C142  H73   S    
C125  O41   A    
C4    C9    S    
C4    O24   A    
C117  O45   A    
Cr12  O12   S    
C24   C52   A    
C88   C96   A    
C120  O48   A    
C141  C142  S    
C74   C94   A    
C80   C84   A    
C9    C25   A    
C130  C134  S    
C15   C19   A    
Cr7   O31   S    
C3    O27   A    
C12   C28   A    
C13   C29   A    
C6    C133  S    
C54   C58   A    
C122  O6    A    
C66   H10   S    
C145  H79   S    
C21   C25   A    
C51   C91   S    
C44   H68   S    
C100  H24   S    
C62   H6    S    
C22   C50   A    
C73   C120  S    
Cr4   O48   S    
C75   C118  S    
C147  H85   S    
C25   H53   S    
C19   C43   A    
C148  H87   S    
C29   H49   S    
C76   C80   A    
C49   C89   S    
C53   C57   A    
Cr6   O6    S    
Cr1   O21   S    
C56   C60   A    
C147  C148  S    
C32   H52   S    
C47   O35   A    
C144  H76   S    
C61   H5    S    
Cr6   O50   S    
C64   H8    S    
C104  H32   S    
C81   C109  A    
C83   C111  A    
C52   C92   S    
Cr3   O43   S    
C7    H43   S    
C131  C132  S    
Cr4   O44   S    
C104  C108  A    
C18   C50   A    
C5    H41   S    
Cr2   O18   S    
C55   C124  S    
C22   H46   S    
C43   H67   S    
C57   C65   A    
C38   C42   A    
Cr11  O19   S    
Cr6   O26   S    
C76   C117  S    
C36   C38   A    
C2    O26   A    
Cr10  O14   S    
C79   C83   A    
C134  H2    S    
C136  H4    S    
C127  O43   A    
C8    H44   S    
C128  O44   A    
C108  C112  A    
C7    C136  S    
C123  O11   A    
C60   C68   A    
C20   C52   A    
C77   C81   A    
C22   C26   A    
C81   C113  A    
Cr2   O42   S    
C130  C137  S    
C37   H63   S    
C109  O53   S    
C88   H20   S    
C107  H35   S    
O56   C147  S    
C14   C18   A    
C135  H3    S    
C74   C119  S    
C33   C39   A    
Cr6   O30   S    
C133  H1    S    
C82   C110  A    
C35   C37   A    
C90   O2    A    
C144  H78   S    
C131  C135  S    
C70   H14   S    
Cr3   O3    S    
C98   H22   S    
C113  C125  S    
C23   H47   S    
Cr8   O28   S    
C115  C127  S    
C126  O42   A    
Cr5   O49   S    
C105  H33   S    
C35   H59   S    
C4    O28   A    
C86   C94   A    
C118  O46   A    
C33   H57   S    
C58   C66   A    
C129  C138  S    
Cr10  O18   S    
Cr5   O17   S    
C78   C98   A    
C31   C33   A    
C23   C27   A    
C48   O36   A    
C31   H51   S    
C46   C138  S    
C45   O29   A    
C10   C26   A    
Cr7   O27   S    
C80   C100  A    
C14   C30   A    
C124  O8    A    
C101  C105  A    
C5    C134  S    
C122  O10   A    
C89   O37   A    
C82   C114  A    
C39   C43   A    
O54   C143  S    
C65   C71   A    
C87   C95   A    
C67   C69   A    
Cr1   O45   S    
C6    C138  S    
C53   C62   A    
Cr12  O40   S    
C23   C51   A    
Cr12  O20   S    
C119  O47   A    
C55   C64   A    
C45   C137  S    
O53   C141  S    
C56   C63   A    
C3    O23   A    
C1    O21   A    
C95   H27   S    
C142  H72   S    
Cr11  O35   S    
C106  C110  A    
Cr1   O17   S    
C38   H64   S    
C134  C138  S    
C131  H39   S    
C112  O56   S    
C86   C114  A    
C146  H82   S    
C3    C10   S    
Cr10  O38   S    
C7    C139  S    
C102  C106  A    
C145  H80   S    
C17   C41   A    
Cr4   O4    S    
C125  O13   A    
C19   C51   A    
C68   C70   A    
C116  C128  S    
C34   C40   A    
C118  O50   A    
C91   O3    A    
Cr2   O2    S    
C97   C101  A    
C45   O33   A    
