data_mof_unit_25608.cif
_audit_creation_date              2013-03-05T16:01:15-0500
_audit_creation_method            fapswitch 2.2
_symmetry_space_group_name_H-M    P1
_symmetry_Int_Tables_number       1
_space_group_crystal_system       triclinic
_cell_length_a                    14.68832
_cell_length_b                    14.719166
_cell_length_c                    17.403587
_cell_angle_alpha                 105.248608
_cell_angle_beta                  72.94733
_cell_angle_gamma                 114.912968
_cell_volume                      3220.0153604

loop_
_atom_site_label
_atom_site_type_symbol
_atom_site_description
_atom_site_fract_x
_atom_site_fract_y
_atom_site_fract_z
_atom_type_partial_charge
O1    O     O_R   0.020090 0.662480 0.528530 -0.622801
O2    O     O_R   0.979910 0.337520 0.471470 -0.619800
O3    O     O_R   0.160710 0.620650 0.491980 -0.551674
O4    O     O_R   0.839290 0.379350 0.508020 -0.572809
C1    C     C_R   0.118491 0.687894 0.516401 0.883135
C2    C     C_R   0.881323 0.312007 0.485290 0.880960
O5    O     O_R   0.921540 0.523360 0.633990 -0.545249
O6    O     O_R   0.078460 0.476640 0.366010 -0.536329
O7    O     O_R   0.062170 0.481520 0.597440 -0.573859
O8    O     O_R   0.937830 0.518480 0.402560 -0.570827
C3    C     C_R   0.987854 0.500533 0.652176 0.961267
C4    C     C_R   0.012045 0.499284 0.347752 0.947038
Cu1   Cu    Cu3+1 0.916740 0.524770 0.521640 1.011790
Cu2   Cu    Cu3+1 0.083260 0.475230 0.478360 1.035344
C5    C     C_R   0.978971 0.496263 0.737353 -0.327621
C6    C     C_R   0.019835 0.501780 0.262315 -0.333283
C7    C     C_R   0.069340 0.536482 0.768341 0.295219
C8    C     C_R   0.928786 0.461340 0.232133 0.303417
C9    C     C_R   0.063214 0.521935 0.845492 -0.235457
C10   C     C_R   0.933922 0.474356 0.154705 -0.220977
C11   C     C_R   0.968105 0.480766 0.896694 -0.085536
C12   C     C_R   0.028563 0.514322 0.102679 -0.106360
C13   C     C_R   0.876415 0.451469 0.870264 0.347438
C14   C     C_R   0.120728 0.543042 0.128147 0.283214
C15   C     C_R   0.881905 0.447797 0.787078 0.275285
C16   C     C_R   0.116526 0.548228 0.211306 0.219164
C17   C     C_2   0.965437 0.463676 0.976701 -0.061158
C18   C     C_2   0.030545 0.531435 0.022937 -0.057835
H1    H     H_    0.087798 0.600821 0.001693 0.197351
H2    H     H_    0.908139 0.394349 0.998027 0.185745
H3    H     H_    0.863187 0.450902 0.134416 0.221007
H4    H     H_    0.133597 0.545358 0.866276 0.238608
C19   C     C_R   0.184943 0.795502 0.529212 -0.017549
C20   C     C_R   0.814015 0.204652 0.482947 -0.005065
C21   C     C_R   0.210352 0.973510 0.561385 -0.170304
C22   C     C_R   0.785628 0.029834 0.480454 -0.167978
C23   C     C_R   0.144917 0.872026 0.551119 -0.197167
C24   C     C_R   0.852685 0.129673 0.474883 -0.172033
C25   C     C_R   0.290274 0.821283 0.519540 -0.144012
C26   C     C_R   0.708319 0.178673 0.495295 -0.161440
C27   C     C_R   0.357483 0.922845 0.531955 0.079461
C28   C     C_R   0.638842 0.079845 0.505476 0.089542
C29   C     C_R   0.316247 0.999477 0.550880 0.155306
C30   C     C_R   0.679229 0.004416 0.495881 0.158025
C31   C     C_R   0.464751 0.950136 0.523097 0.073796
C32   C     C_R   0.530739 0.053852 0.523738 0.073482
C33   C     C_R   0.486392 0.128201 0.544355 -0.183753
C34   C     C_R   0.507966 0.877463 0.514954 -0.174982
C35   C     C_R   0.381042 0.101185 0.558477 -0.196903
C36   C     C_R   0.613182 0.904570 0.502222 -0.198359
H5    H     H_    0.350262 0.160491 0.574083 0.154521
H6    H     H_    0.643047 0.846604 0.496604 0.151072
H7    H     H_    0.682175 0.237180 0.496145 0.141923
H8    H     H_    0.318651 0.760618 0.499545 0.158117
H9    H     H_    0.934391 0.148326 0.465383 0.154063
H10   H     H_    0.063457 0.853593 0.559193 0.155973
H11   H     H_    0.178299 0.031798 0.576798 0.144472
H12   H     H_    0.816867 0.972667 0.473801 0.140280
H13   H     H_    0.530700 0.208570 0.552572 0.144721
H14   H     H_    0.462319 0.799094 0.520724 0.141497
N1    N     N_R   0.208390 0.438070 0.445820 -0.188088
N2    N     N_R   0.791610 0.561930 0.554180 -0.195032
C37   C     C_R   0.293901 0.326877 0.366921 -0.275662
C38   C     C_R   0.706146 0.673164 0.633145 -0.273784
C39   C     C_R   0.211217 0.357744 0.386526 0.121696
C40   C     C_R   0.788948 0.642428 0.613340 0.118156
C41   C     C_R   0.286427 0.491403 0.486849 0.051580
C42   C     C_R   0.713288 0.508307 0.513494 0.014765
C43   C     C_R   0.373580 0.464354 0.469396 -0.020045
C44   C     C_R   0.626007 0.535208 0.531165 -0.020156
C45   C     C_R   0.374730 0.379140 0.408532 0.139433
C46   C     C_R   0.625008 0.620581 0.591886 0.139018
C47   C     C_R   0.458145 0.517218 0.510356 0.069551
C48   C     C_R   0.541267 0.482151 0.490424 0.066526
C49   C     C_R   0.536611 0.395149 0.430695 -0.177956
C50   C     C_R   0.462659 0.604041 0.570265 -0.179026
C51   C     C_R   0.455643 0.345646 0.390232 -0.149963
C52   C     C_R   0.543896 0.653850 0.610430 -0.154339
H15   H     H_    0.455993 0.279580 0.344406 0.169033
H16   H     H_    0.543588 0.719970 0.656205 0.171370
H17   H     H_    0.722023 0.446557 0.466571 0.164473
H18   H     H_    0.277578 0.553063 0.533842 0.154614
H19   H     H_    0.852127 0.683816 0.644441 0.137299
H20   H     H_    0.148230 0.316557 0.355201 0.131379
H21   H     H_    0.294121 0.261736 0.320044 0.156270
H22   H     H_    0.706057 0.738432 0.679912 0.159654
H23   H     H_    0.594499 0.362714 0.413852 0.177602
H24   H     H_    0.404440 0.636089 0.587486 0.172955
N3    N     N_R   0.167976 0.591496 0.722112 0.135298
O9    O     O_R   0.177927 0.661680 0.684355 -0.398896
O10   O     O_R   0.250199 0.582772 0.727893 -0.349243
N4    N     N_R   0.830450 0.407676 0.279458 0.133274
O11   O     O_R   0.820474 0.337919 0.317690 -0.398275
O12   O     O_R   0.748288 0.416957 0.274182 -0.367531
S1    S     S_3+6 0.226824 0.626276 0.254285 0.084856
O13   O     O_2   0.274417 0.560485 0.267380 -0.206359
O14   O     O_2   0.306035 0.701496 0.201168 -0.181371
O15   O     O_3   0.191524 0.692596 0.344013 -0.556290
H25   H     H_    0.158998 0.732285 0.331432 0.327945
S2    S     S_3+6 0.772796 0.370304 0.742450 0.071147
O16   O     O_2   0.807056 0.314273 0.661277 -0.354833
O17   O     O_2   0.694159 0.292713 0.793752 -0.177837
O18   O     O_3   0.718718 0.444478 0.729834 -0.473916
H26   H     H_    0.677167 0.403068 0.688241 0.365367
S3    S     S_3+6 0.758508 0.430523 0.943683 0.080251
O19   O     O_2   0.684276 0.454204 0.915980 -0.165089
O20   O     O_2   0.712384 0.321599 0.956255 -0.248324
O21   O     O_3   0.780138 0.506025 0.032909 -0.537269
H27   H     H_    0.714813 0.481016 0.072623 0.389532
S4    S     S_3+6 0.237529 0.561209 0.053580 0.090007
O22   O     O_2   0.284981 0.669522 0.039425 -0.197735
O23   O     O_2   0.312088 0.537390 0.080741 -0.175816
O24   O     O_3   0.214480 0.485117 0.964874 -0.511411
H28   H     H_    0.181152 0.415420 0.978197 0.350086

loop_
_geom_bond_atom_site_label_1
_geom_bond_atom_site_label_2
_geom_bond_distance
_ccdc_geom_bond_type
C37   C39   1.392158 A    
C47   C48   1.437277 A    
S1    O13   1.502757 D    
C24   H9    1.083009 S    
S1    O15   1.676314 S    
C33   C35   1.386713 A    
C31   C32   1.421600 A    
O5    C3    1.293943 A    
S3    O20   1.503271 D    
C19   C25   1.397213 A    
O1    C1    1.296383 A    
C42   H17   1.075094 S    
C18   H1    1.086121 S    
C9    C11   1.397709 A    
C14   C16   1.413394 A    
O24   H28   0.990604 S    
C22   H12   1.083911 S    
C52   H16   1.084262 S    
C5    C15   1.426457 A    
C25   H8    1.075735 S    
C13   S3    1.785094 S    
O21   H27   0.990539 S    
C28   C32   1.422960 A    
O4    Cu1   1.942094 S    
C43   C45   1.415636 A    
S4    O22   1.502653 D    
N4    O11   1.301474 A    
C46   C52   1.395081 A    
C40   H19   1.081722 S    
C23   H10   1.083024 S    
C3    C5    1.465298 S    
Cu1   N2    2.017794 S    
C4    C6    1.466543 S    
C35   H5    1.084405 S    
C1    C19   1.466480 S    
C44   C48   1.438503 A    
C36   H6    1.084544 S    
C43   C47   1.438650 A    
N3    O10   1.301494 A    
C21   C29   1.402837 A    
C50   H24   1.076466 S    
C26   C28   1.402767 A    
C11   C17   1.465462 S    
C12   C18   1.464328 S    
Cu1   Cu2   2.686006 S    
C37   H21   1.083759 S    
C17   H2    1.086196 S    
C27   C29   1.418020 A    
O2    C2    1.296504 A    
C28   C30   1.418347 A    
C9    H4    1.082551 S    
C38   H22   1.083755 S    
C34   H14   1.077085 S    
C51   H15   1.084240 S    
C6    C16   1.426293 A    
S3    O21   1.682700 S    
C48   C49   1.411689 A    
N2    C40   1.356175 A    
C7    N3    1.439689 S    
O4    C2    1.298559 A    
C29   C35   1.390606 A    
C39   H20   1.081717 S    
Cu2   N1    2.017794 S    
S2    O18   1.682302 S    
C19   C23   1.400088 A    
C2    C20   1.466168 S    
C41   C43   1.423809 A    
C38   C40   1.392251 A    
O7    Cu2   1.986496 S    
C49   C51   1.390120 A    
N1    C41   1.366406 A    
C15   S2    1.787926 S    
O6    C4    1.294284 A    
N4    O12   1.301536 A    
C14   S4    1.785826 S    
O7    C3    1.297914 A    
S4    O24   1.682242 S    
C37   C45   1.402701 A    
O3    Cu2   1.942096 S    
O8    C4    1.298401 A    
C49   H23   1.076573 S    
C10   C12   1.396892 A    
C26   H7    1.076050 S    
C11   C13   1.407493 A    
C47   C50   1.411714 A    
C12   C14   1.406778 A    
C22   C30   1.403075 A    
O1    Cu1   1.952951 S    
C45   C51   1.394984 A    
S2    O17   1.501927 D    
C31   C34   1.416589 A    
C30   C36   1.390874 A    
C16   S1    1.787360 S    
C5    C7    1.411777 A    
C32   C33   1.416886 A    
O6    Cu2   1.982929 S    
C21   C23   1.392049 A    
C20   C24   1.400071 A    
C50   C52   1.390159 A    
O3    C1    1.298497 A    
O8    Cu1   1.986495 S    
S1    O14   1.502127 D    
S3    O19   1.503223 D    
N2    C42   1.366242 A    
C21   H11   1.083898 S    
C8    N4    1.439397 S    
C22   C24   1.392339 A    
C34   C36   1.386681 A    
S2    O16   1.499658 D    
C7    C9    1.385970 A    
C8    C10   1.386444 A    
C38   C46   1.402650 A    
O2    Cu2   1.952952 S    
S4    O23   1.503309 D    
C33   H13   1.077212 S    
N1    C39   1.356085 A    
O5    Cu1   1.982928 S    
C13   C15   1.413995 A    
C25   C27   1.402815 A    
C41   H18   1.075209 S    
C6    C8    1.412666 A    
O15   H25   0.990569 S    
O18   H26   0.990746 S    
C42   C44   1.423828 A    
C27   C31   1.422842 A    
C20   C26   1.396437 A    
C44   C46   1.415616 A    
N3    O9    1.301487 A    
C17   C18   1.335063 D    
C10   H3    1.082679 S    
