data_mof_unit_64505.cif
_audit_creation_date              2013-03-05T16:11:45-0500
_audit_creation_method            fapswitch 2.2
_symmetry_space_group_name_H-M    P1
_symmetry_Int_Tables_number       1
_space_group_crystal_system       triclinic
_cell_length_a                    44.083119
_cell_length_b                    30.382649
_cell_length_c                    31.972675
_cell_angle_alpha                 90.000087
_cell_angle_beta                  136.428763
_cell_angle_gamma                 89.999971
_cell_volume                      29515.9948846

loop_
_atom_site_label
_atom_site_type_symbol
_atom_site_description
_atom_site_fract_x
_atom_site_fract_y
_atom_site_fract_z
_atom_type_partial_charge
O1    O     O_R   0.564270 0.962770 0.064270 -0.583183
O2    O     O_R   0.435730 0.962770 0.935730 -0.583425
O3    O     O_R   0.064270 0.462770 0.064270 -0.582591
O4    O     O_R   0.935730 0.462770 0.935730 -0.583638
O5    O     O_R   0.564210 0.037160 0.064210 -0.590372
O6    O     O_R   0.435790 0.037160 0.935790 -0.590322
O7    O     O_R   0.064210 0.537160 0.064210 -0.590504
O8    O     O_R   0.935790 0.537160 0.935790 -0.590454
C1    C     C_R   0.585088 0.999980 0.085100 0.781297
C2    C     C_R   0.414912 0.999980 0.914900 0.781000
C3    C     C_R   0.085088 0.499980 0.085100 0.781618
C4    C     C_R   0.914912 0.499980 0.914900 0.780257
O9    O     O_R   0.500000 0.962770 0.060460 -0.557701
O10   O     O_R   0.500000 0.962770 0.939540 -0.557564
O11   O     O_R   0.000000 0.462770 0.060460 -0.557414
O12   O     O_R   0.000000 0.462770 0.939540 -0.557208
O13   O     O_R   0.499940 0.037170 0.060400 -0.587538
O14   O     O_R   0.500060 0.037170 0.939600 -0.587564
O15   O     O_R   0.999940 0.537170 0.060400 -0.587612
O16   O     O_R   0.000060 0.537170 0.939600 -0.587655
C5    C     C_R   0.499962 0.999968 0.080134 0.819054
C6    C     C_R   0.500037 0.999968 0.919865 0.818992
C7    C     C_R   0.999962 0.499968 0.080134 0.818854
C8    C     C_R   0.000037 0.499968 0.919865 0.818793
Cu1   Cu    Cu3+1 0.500000 0.955920 0.000000 1.005273
Cu2   Cu    Cu3+1 1.000000 0.455920 0.000000 1.006047
Cu3   Cu    Cu3+1 0.500000 0.044010 0.000000 0.952065
Cu4   Cu    Cu3+1 1.000000 0.544010 0.000000 0.951870
C9    C     C_3   0.539714 0.985701 0.303943 -0.208712
C10   C     C_3   0.460731 0.984519 0.696503 -0.208647
C11   C     C_3   0.038661 0.483071 0.302888 -0.207780
C12   C     C_3   0.963593 0.478649 0.699366 -0.207816
C13   C     C_3   0.531792 0.026653 0.267821 -0.214362
C14   C     C_3   0.467424 0.025690 0.731398 -0.214215
C15   C     C_3   0.033501 0.524462 0.269525 -0.214445
C16   C     C_3   0.963858 0.520358 0.727842 -0.214318
H1    H     H_    0.557724 0.049159 0.281862 0.153968
H2    H     H_    0.440830 0.047409 0.716696 0.154016
H3    H     H_    0.060884 0.545178 0.285013 0.153933
H4    H     H_    0.934234 0.537713 0.710118 0.153772
H5    H     H_    0.572002 0.973833 0.347893 0.158769
H6    H     H_    0.428812 0.971688 0.652922 0.158763
H7    H     H_    0.070082 0.469064 0.345970 0.159339
H8    H     H_    0.934033 0.461048 0.658146 0.159156
H9    H     H_    0.485948 0.074233 0.261822 0.139395
H10   H     H_    0.511821 0.074621 0.735950 0.139389
H11   H     H_    0.990954 0.575010 0.266823 0.139405
H12   H     H_    0.000168 0.575556 0.724313 0.139513
C17   C     C_1   0.499989 0.999937 0.125046 -0.138807
C18   C     C_1   0.500014 0.999936 0.874957 -0.138800
C19   C     C_1   0.999979 0.499936 0.125037 -0.138798
C20   C     C_1   0.000032 0.499936 0.874975 -0.138784
C21   C     C_1   0.500030 0.999878 0.374967 -0.168115
C22   C     C_1   0.499971 0.999877 0.625034 -0.168112
C23   C     C_1   0.000025 0.499877 0.374963 -0.168094
C24   C     C_1   0.999978 0.499877 0.625041 -0.168105
C25   C     C_3   0.507700 0.959468 0.244368 0.393281
C26   C     C_3   0.493517 0.959256 0.756847 0.393245
C27   C     C_3   0.004958 0.459043 0.241629 0.393183
C28   C     C_3   0.999888 0.458746 0.763210 0.393148
C29   C     C_3   0.500118 0.999431 0.208764 0.084744
C30   C     C_3   0.499899 0.999428 0.791253 0.084741
C31   C     C_3   0.000071 0.499425 0.208717 0.084781
C32   C     C_3   0.000001 0.499421 0.791355 0.084777
C33   C     C_3   0.468315 0.972163 0.232629 -0.207521
C34   C     C_3   0.532503 0.973125 0.768187 -0.207595
C35   C     C_3   0.966515 0.474353 0.230834 -0.208463
C36   C     C_3   0.036263 0.478466 0.771937 -0.208615
C37   C     C_3   0.500116 0.999518 0.291495 0.132910
C38   C     C_3   0.499896 0.999515 0.708517 0.132914
C39   C     C_3   0.000081 0.499513 0.291460 0.132966
C40   C     C_3   0.999971 0.499511 0.708592 0.132944
C41   C     C_3   0.460688 0.013171 0.196802 -0.214991
C42   C     C_3   0.538899 0.014342 0.802784 -0.215131
C43   C     C_3   0.961654 0.515779 0.197769 -0.215014
C44   C     C_3   0.036229 0.520176 0.800112 -0.215125
C45   C     C_3   0.492342 0.040498 0.256341 -0.130048
C46   C     C_3   0.506441 0.040710 0.742443 -0.130025
C47   C     C_3   0.995070 0.540922 0.259067 -0.130015
C48   C     C_3   0.000086 0.541220 0.736096 -0.129822
C49   C     C_1   0.500036 0.999776 0.162801 0.015286
C50   C     C_1   0.499972 0.999774 0.837207 0.015267
C51   C     C_1   0.000013 0.499773 0.162777 0.015215
C52   C     C_1   0.000021 0.499772 0.837256 0.015183
C53   C     C_1   0.500068 0.999758 0.337298 -0.028444
C54   C     C_1   0.499936 0.999756 0.662707 -0.028445
C55   C     C_1   0.000053 0.499756 0.337283 -0.028454
C56   C     C_1   0.999966 0.499755 0.662736 -0.028465
H13   H     H_    0.428314 0.024621 0.152609 0.152688
H14   H     H_    0.570916 0.026757 0.846621 0.152614
H15   H     H_    0.930119 0.529375 0.154416 0.152586
H16   H     H_    0.065949 0.537381 0.841650 0.152685
H17   H     H_    0.442616 0.949299 0.218662 0.158801
H18   H     H_    0.558875 0.951041 0.782824 0.158803
H19   H     H_    0.939341 0.453264 0.215396 0.158061
H20   H     H_    0.065724 0.460716 0.789655 0.158260
C57   C     C_R   0.702570 0.037560 0.189754 -0.166693
C58   C     C_R   0.297430 0.037560 0.810246 -0.166611
C59   C     C_R   0.202570 0.537549 0.189736 -0.166714
C60   C     C_R   0.797430 0.537551 0.810261 -0.167071
H21   H     H_    0.720005 0.066893 0.197351 0.132116
H22   H     H_    0.279995 0.066893 0.802650 0.132262
H23   H     H_    0.220007 0.566874 0.197315 0.132352
H24   H     H_    0.779993 0.566876 0.802680 0.132345
C61   C     C_R   0.656703 0.037673 0.144172 -0.181477
C62   C     C_R   0.343297 0.037673 0.855829 -0.181459
C63   C     C_R   0.156704 0.537664 0.144152 -0.180907
C64   C     C_R   0.843296 0.537665 0.855845 -0.181323
H25   H     H_    0.639482 0.067046 0.116940 0.151528
H26   H     H_    0.360518 0.067046 0.883060 0.151599
H27   H     H_    0.139483 0.567029 0.116901 0.151627
H28   H     H_    0.860517 0.567031 0.883094 0.151593
C65   C     C_R   0.633421 0.000012 0.133475 -0.028648
C66   C     C_R   0.366579 0.000012 0.866525 -0.028619
C67   C     C_R   0.133420 0.500011 0.133477 -0.028501
C68   C     C_R   0.866580 0.500011 0.866523 -0.028177
C69   C     C_R   0.656691 0.962377 0.169379 -0.171048
C70   C     C_R   0.343309 0.962377 0.830622 -0.171485
C71   C     C_R   0.156689 0.462385 0.169404 -0.170984
C72   C     C_R   0.843310 0.462384 0.830598 -0.172846
H29   H     H_    0.639460 0.932987 0.162133 0.158802
H30   H     H_    0.360539 0.932986 0.837869 0.158612
H31   H     H_    0.139457 0.433002 0.162175 0.158617
H32   H     H_    0.860542 0.433000 0.837830 0.157781
C73   C     C_R   0.702555 0.962535 0.215596 -0.164376
C74   C     C_R   0.297445 0.962534 0.784405 -0.164554
C75   C     C_R   0.202553 0.462542 0.215625 -0.163982
C76   C     C_R   0.797446 0.462542 0.784378 -0.164878
H33   H     H_    0.719979 0.933214 0.242874 0.135214
H34   H     H_    0.280021 0.933214 0.757127 0.135120
H35   H     H_    0.219976 0.433229 0.242922 0.135287
H36   H     H_    0.780023 0.433228 0.757082 0.134799
C77   C     C_R   0.725739 0.000056 0.225864 0.097942
C78   C     C_R   0.274261 0.000056 0.774137 0.097967
C79   C     C_R   0.225737 0.500054 0.225870 0.097854
C80   C     C_R   0.774262 0.500055 0.774130 0.098153
C81   C     C_R   0.797240 0.986826 0.333122 -0.164741
C82   C     C_R   0.202760 0.986825 0.666879 -0.164705
C83   C     C_R   0.297239 0.486866 0.333141 -0.165177
C84   C     C_R   0.702761 0.486865 0.666860 -0.165502
H37   H     H_    0.779789 0.976773 0.343648 0.134342
H38   H     H_    0.220212 0.976772 0.656353 0.134255
H39   H     H_    0.279789 0.476849 0.343679 0.134017
H40   H     H_    0.720211 0.476846 0.656322 0.133524
C85   C     C_R   0.843106 0.987132 0.379086 -0.179659
C86   C     C_R   0.156894 0.987131 0.620915 -0.179617
C87   C     C_R   0.343106 0.487173 0.379103 -0.181051
C88   C     C_R   0.656894 0.487172 0.620897 -0.181272
H41   H     H_    0.860322 0.976911 0.424310 0.152046
H42   H     H_    0.139678 0.976910 0.575691 0.152033
H43   H     H_    0.360322 0.476988 0.424339 0.151888
H44   H     H_    0.639678 0.476986 0.575662 0.151710
C89   C     C_R   0.866401 0.999995 0.366461 -0.031661
C90   C     C_R   0.133598 0.999996 0.633539 -0.031689
C91   C     C_R   0.366400 0.499991 0.366461 -0.032519
C92   C     C_R   0.633600 0.499992 0.633538 -0.032376
C93   C     C_R   0.843156 0.012901 0.307329 -0.183157
C94   C     C_R   0.156843 0.012901 0.692671 -0.183029
C95   C     C_R   0.343152 0.512849 0.307313 -0.181551
C96   C     C_R   0.656847 0.512851 0.692686 -0.181645
H45   H     H_    0.860409 0.023100 0.296550 0.150236
H46   H     H_    0.139590 0.023101 0.703449 0.150309
H47   H     H_    0.360403 0.523010 0.296518 0.151818
H48   H     H_    0.639597 0.523014 0.703481 0.151745
C97   C     C_R   0.797293 0.013268 0.261618 -0.165521
C98   C     C_R   0.202707 0.013268 0.738382 -0.165485
C99   C     C_R   0.297289 0.513217 0.261603 -0.164998
C100  C     C_R   0.702711 0.513219 0.738396 -0.165408
H49   H     H_    0.779885 0.023334 0.216250 0.131990
H50   H     H_    0.220115 0.023335 0.783750 0.132027
H51   H     H_    0.279880 0.523248 0.216223 0.132781
H52   H     H_    0.720120 0.523252 0.783775 0.132501
C101  C     C_R   0.774090 0.000059 0.274205 0.099688
C102  C     C_R   0.225910 0.000059 0.725795 0.099673
C103  C     C_R   0.274088 0.500055 0.274209 0.099503
C104  C     C_R   0.725911 0.500055 0.725790 0.099647
O17   O     O_R   0.537150 0.935610 0.537150 -0.587275
O18   O     O_R   0.462850 0.935610 0.462850 -0.587345
O19   O     O_R   0.037150 0.435610 0.537150 -0.587157
O20   O     O_R   0.962850 0.435610 0.462850 -0.587542
C105  C     C_R   0.500000 0.914754 0.500000 0.788422
C106  C     C_R   1.000000 0.414750 0.500000 0.788583
O21   O     O_R   0.537160 0.999880 0.476700 -0.577323
O22   O     O_R   0.462840 0.999880 0.523300 -0.577378
O23   O     O_R   0.037160 0.499880 0.476700 -0.575038
O24   O     O_R   0.962840 0.499880 0.523300 -0.575548
O25   O     O_R   0.462760 0.999960 0.402300 -0.578681
O26   O     O_R   0.537240 0.999960 0.597700 -0.578633
O27   O     O_R   0.962760 0.499960 0.402300 -0.580983
O28   O     O_R   0.037240 0.499960 0.597700 -0.580518
C107  C     C_R   0.499981 0.999946 0.419807 0.827271
C108  C     C_R   0.500019 0.999946 0.580193 0.827292
C109  C     C_R   0.999980 0.499947 0.419807 0.827366
C110  C     C_R   0.000020 0.499947 0.580193 0.827359
Cu5   Cu    Cu3+1 0.544020 0.999870 0.544020 0.960553
Cu6   Cu    Cu3+1 0.455980 0.999870 0.455980 0.960522
Cu7   Cu    Cu3+1 0.044020 0.499870 0.544020 0.961029
Cu8   Cu    Cu3+1 0.955980 0.499870 0.455980 0.959894
O29   O     O_R   0.537180 0.064140 0.537190 -0.588553
O30   O     O_R   0.462820 0.064140 0.462810 -0.588496
O31   O     O_R   0.037180 0.564140 0.537190 -0.588507
O32   O     O_R   0.962820 0.564140 0.462810 -0.588590
C111  C     C_R   0.500000 0.084999 0.500000 0.781005
C112  C     C_R   0.000000 0.584999 0.500000 0.780980
O33   O     O_R   0.999920 0.064220 0.534910 -0.587049
O34   O     O_R   0.000080 0.064220 0.465090 -0.587032
O35   O     O_R   0.499920 0.564220 0.534910 -0.587346
O36   O     O_R   0.500080 0.564220 0.465090 -0.587366
C113  C     C_R   0.000000 0.085183 0.500000 0.794344
C114  C     C_R   0.500000 0.585187 0.500000 0.794494
O37   O     O_R   0.935700 0.999950 0.470690 -0.585431
O38   O     O_R   0.064300 0.999950 0.529310 -0.585404
O39   O     O_R   0.435700 0.499950 0.470690 -0.587551
O40   O     O_R   0.564300 0.499950 0.529310 -0.587599
O41   O     O_R   0.935690 0.999950 0.400690 -0.589913
O42   O     O_R   0.064310 0.999950 0.599310 -0.589893
O43   O     O_R   0.435690 0.499950 0.400690 -0.587845
O44   O     O_R   0.564310 0.499950 0.599310 -0.587903
C115  C     C_R   0.914724 0.999957 0.414741 0.793633
C116  C     C_R   0.085276 0.999957 0.585259 0.793686
C117  C     C_R   0.414723 0.499955 0.414741 0.793874
C118  C     C_R   0.585276 0.499956 0.585259 0.793763
Cu9   Cu    Cu3+1 0.999970 0.999960 0.541410 0.948089
Cu10  Cu    Cu3+1 0.000030 0.999960 0.458590 0.948064
Cu11  Cu    Cu3+1 0.499970 0.499960 0.541410 0.947639
Cu12  Cu    Cu3+1 0.500030 0.499960 0.458590 0.947588
O45   O     O_R   0.000020 0.935690 0.535010 -0.587931
O46   O     O_R   0.999980 0.935690 0.464990 -0.587939
O47   O     O_R   0.500020 0.435690 0.535010 -0.587888
O48   O     O_R   0.499980 0.435690 0.464990 -0.587918
C119  C     C_R   1.000000 0.914712 0.500000 0.793318
C120  C     C_R   0.500000 0.414712 0.500000 0.793511
C121  C     C_R   0.462463 0.797301 0.475366 -0.161072
C122  C     C_R   0.537537 0.797301 0.524634 -0.160998
C123  C     C_R   0.962326 0.297284 0.449873 -0.161067
C124  C     C_R   0.037674 0.297285 0.550127 -0.160471
H53   H     H_    0.433120 0.779868 0.455851 0.133882
H54   H     H_    0.566879 0.779868 0.544149 0.133933
H55   H     H_    0.932875 0.279851 0.410956 0.132994
H56   H     H_    0.067125 0.279851 0.589045 0.133350
C125  C     C_R   0.462328 0.843163 0.474913 -0.173543
C126  C     C_R   0.537672 0.843163 0.525086 -0.173434
C127  C     C_R   0.962197 0.343146 0.450056 -0.173780
C128  C     C_R   0.037803 0.343146 0.549945 -0.172936
H57   H     H_    0.432930 0.860392 0.455493 0.153791
H58   H     H_    0.567070 0.860392 0.544506 0.153860
H59   H     H_    0.932686 0.360367 0.410924 0.153105
H60   H     H_    0.067313 0.360368 0.589076 0.153489
C129  C     C_R   0.500000 0.866433 0.500000 -0.029040
C130  C     C_R   1.000000 0.366421 0.500000 -0.028374
C131  C     C_R   0.500000 0.774133 0.500000 0.098091
C132  C     C_R   0.000000 0.274115 0.500000 0.099023
C133  C     C_R   0.013671 0.202605 0.549285 -0.162244
C134  C     C_R   0.986329 0.202605 0.450715 -0.162144
C135  C     C_R   0.513233 0.702627 0.477442 -0.162891
C136  C     C_R   0.486767 0.702627 0.522558 -0.162808
H61   H     H_    0.024087 0.220037 0.587542 0.137043
H62   H     H_    0.975913 0.220037 0.412459 0.136778
H63   H     H_    0.523301 0.720060 0.459536 0.137587
H64   H     H_    0.476699 0.720060 0.540464 0.137621
C137  C     C_R   0.013331 0.156744 0.549075 -0.180155
C138  C     C_R   0.986669 0.156744 0.450925 -0.180241
C139  C     C_R   0.512898 0.656765 0.476984 -0.180367
C140  C     C_R   0.487102 0.656765 0.523016 -0.180357
H65   H     H_    0.023898 0.139499 0.587528 0.151592
H66   H     H_    0.976102 0.139499 0.412472 0.151478
H67   H     H_    0.523117 0.639530 0.459175 0.153305
H68   H     H_    0.476883 0.639530 0.540826 0.153331
C141  C     C_R   0.000000 0.133486 0.500000 -0.032166
C142  C     C_R   0.500000 0.633500 0.500000 -0.034107
C143  C     C_R   0.000000 0.225776 0.500000 0.097282
C144  C     C_R   0.500000 0.725795 0.500000 0.096757
C145  C     C_R   0.462505 0.202498 0.449580 -0.167564
C146  C     C_R   0.537495 0.202498 0.550419 -0.167737
C147  C     C_R   0.962504 0.702498 0.449581 -0.167695
C148  C     C_R   0.037496 0.702498 0.550418 -0.167660
H69   H     H_    0.433190 0.219928 0.410421 0.132714
H70   H     H_    0.566810 0.219928 0.589579 0.132533
H71   H     H_    0.933189 0.719928 0.410422 0.132588
H72   H     H_    0.066811 0.719928 0.589577 0.132611
C149  C     C_R   0.462369 0.156626 0.449764 -0.181376
C150  C     C_R   0.537632 0.156626 0.550235 -0.181448
C151  C     C_R   0.962368 0.656626 0.449765 -0.181502
C152  C     C_R   0.037632 0.656626 0.550234 -0.181384
H73   H     H_    0.432999 0.139399 0.410401 0.152116
H74   H     H_    0.567001 0.139400 0.589598 0.152029
H75   H     H_    0.932998 0.639399 0.410403 0.152024
H76   H     H_    0.067002 0.639400 0.589597 0.152100
C153  C     C_R   0.500000 0.133343 0.500000 -0.027658
C154  C     C_R   0.000000 0.633343 0.500000 -0.027678
C155  C     C_R   0.500000 0.225681 0.500000 0.099277
C156  C     C_R   0.000000 0.725681 0.499999 0.099286
C157  C     C_R   0.013192 0.797228 0.548964 -0.166425
C158  C     C_R   0.986808 0.797228 0.451035 -0.166403
C159  C     C_R   0.513191 0.297228 0.548964 -0.166383
C160  C     C_R   0.486809 0.297228 0.451036 -0.166391
H77   H     H_    0.023229 0.779798 0.586966 0.131518
H78   H     H_    0.976771 0.779799 0.413033 0.131515
H79   H     H_    0.523228 0.279798 0.586966 0.131511
H80   H     H_    0.476772 0.279798 0.413034 0.131554
C161  C     C_R   0.012854 0.843099 0.548751 -0.181798
C162  C     C_R   0.987146 0.843100 0.451248 -0.181799
C163  C     C_R   0.512853 0.343099 0.548751 -0.181826
C164  C     C_R   0.487147 0.343099 0.451249 -0.181758
H81   H     H_    0.023038 0.860333 0.586954 0.151074
H82   H     H_    0.976961 0.860334 0.413045 0.151073
H83   H     H_    0.523037 0.360333 0.586953 0.151070
H84   H     H_    0.476963 0.360334 0.413046 0.151126
C165  C     C_R   1.000000 0.866377 0.500000 -0.031928
C166  C     C_R   0.500000 0.366377 0.500000 -0.031984
C167  C     C_R   1.000000 0.774045 0.500000 0.100120
C168  C     C_R   0.500000 0.274044 0.500000 0.100103
N1    N     N_R   0.516198 0.914643 0.238812 0.120511
O49   O     O_R   0.522090 0.883550 0.272075 -0.350534
O50   O     O_R   0.517961 0.905383 0.200903 -0.347906
N2    N     N_R   0.486366 0.914196 0.763749 0.120514
O51   O     O_R   0.481404 0.882942 0.731416 -0.350480
O52   O     O_R   0.484885 0.904887 0.801939 -0.347758
N3    N     N_R   0.010428 0.413749 0.233049 0.120502
O53   O     O_R   0.014225 0.382332 0.264219 -0.349846
O54   O     O_R   0.011560 0.404391 0.194510 -0.347532
N4    N     N_R   0.999778 0.413122 0.777143 0.120517
O55   O     O_R   0.999692 0.381478 0.749679 -0.350115
O56   O     O_R   0.999764 0.403694 0.816797 -0.347200

loop_
_geom_bond_atom_site_label_1
_geom_bond_atom_site_label_2
_geom_bond_distance
_ccdc_geom_bond_type
C59   H23   1.083286 S    
C26   C30   1.526598 S    
C112  C154  1.468825 S    
Cu9   Cu10  2.649891 S    
C146  C150  1.393754 A    
C139  H67   1.083081 S    
C18   C50   1.205615 T    
C125  H57   1.083062 S    
C90   C94   1.403892 A    
C15   H3    1.110084 S    
C88   H44   1.083068 S    
C9    C13   1.555469 S    
C60   H24   1.083285 S    
C160  H80   1.083278 S    
C11   C27   1.536179 S    
C20   C52   1.205601 T    
C121  H53   1.083294 S    
C32   C52   1.467003 S    
O40   C118  1.287680 A    
C86   H42   1.083071 S    
C139  C142  1.403838 A    
C148  H72   1.083285 S    
C82   C102  1.402109 A    
O35   C114  1.287386 A    
O4    C4    1.295465 A    
C3    C67   1.468553 S    
O43   Cu12  1.965529 S    
C57   C61   1.393655 A    
C152  C154  1.404006 A    
C127  C130  1.403971 A    
Cu10  O46   1.963556 S    
O20   C106  1.294546 A    
C9    C37   1.541104 S    
C97   H49   1.083285 S    
C98   C102  1.402059 A    
C125  C129  1.403903 A    
C16   C48   1.552810 S    
C99   H51   1.083286 S    
O16   Cu4   1.944205 S    
C58   H22   1.083285 S    
O33   Cu9   1.963251 S    
O13   C5    1.294123 A    
O7    Cu4   1.962063 S    
N2    O51   1.300217 A    
C164  C166  1.403927 A    
C81   C101  1.402108 A    
O4    Cu2   1.963878 S    
C86   C90   1.403879 A    
C161  H81   1.083067 S    
C36   C40   1.541123 S    
O37   Cu9   1.963905 S    
O9    C5    1.294027 A    
C36   H20   1.110125 S    
O48   C120  1.287553 A    
C123  C127  1.393423 A    
C100  C104  1.402048 A    
C135  C139  1.393449 A    
C136  C140  1.393446 A    
O8    Cu4   1.962063 S    
C19   C51   1.205605 T    
C59   C63   1.393654 A    
C133  C137  1.393432 A    
O17   Cu5   1.963516 S    
C126  C129  1.403904 A    
O3    Cu2   1.963872 S    
C25   C29   1.526603 S    
C71   H31   1.083061 S    
C87   C91   1.403893 A    
C162  H82   1.083066 S    
C27   C31   1.526604 S    
C58   C62   1.393655 A    
C28   C32   1.526599 S    
C42   H14   1.110085 S    
C138  C141  1.403754 A    
C34   C38   1.541117 S    
C95   C99   1.393582 A    
C96   C100  1.393585 A    
C75   H35   1.083285 S    
O20   Cu8   1.963516 S    
C41   H13   1.110077 S    
Cu5   Cu6   2.675061 S    
C73   H33   1.083287 S    
C74   C78   1.402039 A    
C13   C29   1.542277 S    
C41   C45   1.552794 S    
C21   C53   1.205618 T    
C145  C155  1.402095 A    
O23   Cu7   1.944503 S    
C16   C32   1.542272 S    
C77   C101  1.469136 S    
O46   C119  1.287556 A    
O28   Cu7   1.943789 S    
O45   C119  1.287557 A    
N3    O54   1.300254 A    
C37   C45   1.540383 S    
C57   C77   1.402067 A    
C113  C141  1.467570 S    
C5    C17   1.435117 S    
C11   H7    1.110128 S    
C12   C16   1.555464 S    
C61   C65   1.403959 A    
O47   C120  1.287560 A    
C147  C156  1.402096 A    
C89   C93   1.403893 A    
Cu9   O45   1.963555 S    
C24   C56   1.205621 T    
C34   C42   1.555431 S    
C134  C143  1.402061 A    
C92   C118  1.468285 S    
C70   H30   1.083059 S    
C27   C35   1.536167 S    
O5    Cu3   1.962063 S    
C83   H39   1.083298 S    
C158  C167  1.402128 A    
O34   Cu10  1.963251 S    
Cu8   O32   1.963725 S    
C147  C151  1.393754 A    
C137  C141  1.403759 A    
C43   H15   1.110080 S    
C11   C39   1.541107 S    
C35   H19   1.110136 S    
C123  C132  1.401951 A    
C124  C132  1.401949 A    
Cu5   O29   1.963725 S    
C135  C144  1.401990 A    
C151  C154  1.404004 A    
C12   H8    1.110125 S    
C60   C64   1.393654 A    
C10   C14   1.555461 S    
C91   C95   1.403896 A    
O13   Cu3   1.944209 S    
C92   C96   1.403896 A    
O3    C3    1.295466 A    
C93   C97   1.393590 A    
C22   C54   1.205634 T    
C148  C152  1.393754 A    
Cu12  O48   1.963556 S    
O18   Cu6   1.963516 S    
C68   C72   1.403983 A    
C87   H43   1.083072 S    
O5    C1    1.295565 A    
C159  C168  1.402125 A    
C78   C102  1.469136 S    
O8    C4    1.295565 A    
O15   Cu4   1.944209 S    
C122  C126  1.393452 A    
C65   C69   1.403984 A    
C98   H50   1.083286 S    
C67   C71   1.403981 A    
C24   C110  1.435238 S    
C91   C117  1.468285 S    
C35   C43   1.555443 S    
C26   N2    1.457082 S    
C37   C53   1.465990 S    
C159  C163  1.393747 A    
O38   Cu10  1.963902 S    
C160  C164  1.393747 A    
C61   H25   1.083057 S    
C140  C142  1.403840 A    
C9    H5    1.110126 S    
C83   C103  1.402104 A    
O14   C6    1.294126 A    
C63   H27   1.083055 S    
O24   C110  1.294245 A    
C30   C42   1.542267 S    
C44   C48   1.552798 S    
C131  C144  1.468658 S    
C15   C31   1.542274 S    
C132  C143  1.468676 S    
C36   C44   1.555441 S    
O37   C115  1.287682 A    
C10   H6    1.110131 S    
O26   C108  1.294113 A    
O36   Cu12  1.963251 S    
O10   C6    1.294030 A    
C106  C130  1.468348 S    
C40   C48   1.540385 S    
C29   C49   1.467000 S    
C13   C45   1.552808 S    
C31   C43   1.542265 S    
C82   C86   1.393675 A    
O17   C105  1.294479 A    
C136  H64   1.083299 S    
C162  C165  1.403928 A    
C15   C47   1.552808 S    
C99   C103  1.402048 A    
C23   C55   1.205624 T    
Cu7   Cu8   2.675061 S    
C89   C115  1.468255 S    
O39   Cu11  1.963905 S    
O27   C109  1.294087 A    
C164  H84   1.083068 S    
C134  C138  1.393432 A    
H9    C45   1.110062 S    
C157  C161  1.393747 A    
C60   C80   1.402065 A    
C4    C68   1.468556 S    
C71   C75   1.393622 A    
C8    C20   1.435116 S    
C120  C166  1.468542 S    
O25   Cu6   1.943789 S    
C25   N1    1.457085 S    
O41   Cu10  1.965529 S    
C80   C104  1.469118 S    
N4    O56   1.300254 A    
C12   C40   1.541112 S    
C126  H58   1.083068 S    
O32   C112  1.295326 A    
C96   H48   1.083084 S    
C81   C85   1.393672 A    
C75   C79   1.402030 A    
C76   C80   1.402028 A    
C74   H34   1.083285 S    
C14   C30   1.542271 S    
N2    O52   1.300253 A    
C122  H54   1.083292 S    
C17   C49   1.205603 T    
O39   C117  1.287678 A    
O26   Cu5   1.943789 S    
O21   Cu5   1.944503 S    
O22   C108  1.294223 A    
C27   N3    1.457081 S    
C2    C66   1.468565 S    
C6    C18   1.435098 S    
O19   C106  1.294545 A    
N4    O55   1.300233 A    
C30   C50   1.467006 S    
C146  H70   1.083286 S    
O29   C111  1.295324 A    
C39   C47   1.540387 S    
C10   C38   1.541099 S    
C149  H73   1.083061 S    
C151  H75   1.083060 S    
O42   C116  1.287521 A    
C152  H76   1.083060 S    
O1    C1    1.295471 A    
O43   C117  1.287544 A    
C82   H38   1.083293 S    
H10   C46   1.110065 S    
C29   C41   1.542262 S    
O22   Cu6   1.944503 S    
C145  H69   1.083287 S    
C64   H28   1.083056 S    
C31   C51   1.467002 S    
C122  C131  1.401964 A    
C147  H71   1.083287 S    
C137  H65   1.083145 S    
O41   C115  1.287526 A    
C59   C79   1.402067 A    
C21   C107  1.435238 S    
C22   C108  1.435216 S    
C39   C55   1.465987 S    
C9    C25   1.536185 S    
C127  H59   1.083063 S    
C11   C15   1.555467 S    
C12   C28   1.536175 S    
C90   C116  1.468255 S    
C93   H45   1.083088 S    
C121  C131  1.401966 A    
C13   H1    1.110084 S    
C81   H37   1.083298 S    
C123  H55   1.083302 S    
C84   H40   1.083294 S    
C25   C33   1.536169 S    
O6    C2    1.295565 A    
C159  H79   1.083277 S    
C72   C76   1.393622 A    
O38   C116  1.287682 A    
C111  C153  1.468822 S    
C145  C149  1.393754 A    
C64   C68   1.403955 A    
O42   Cu9   1.965529 S    
C1    C65   1.468562 S    
C156  C167  1.469405 S    
C124  C128  1.393423 A    
N1    O49   1.300242 A    
C133  C143  1.402059 A    
C33   C37   1.541126 S    
O2    Cu1   1.963878 S    
C35   C39   1.541123 S    
O10   Cu1   1.944243 S    
C157  H77   1.083278 S    
Cu11  O47   1.963555 S    
C158  C162  1.393747 A    
O18   C105  1.294486 A    
N1    O50   1.300256 A    
N3    O53   1.300235 A    
C157  C167  1.402124 A    
C128  H60   1.083063 S    
C100  H52   1.083286 S    
C28   C36   1.536166 S    
C42   C46   1.552793 S    
O24   Cu8   1.944503 S    
C88   C92   1.403894 A    
C85   H41   1.083071 S    
O27   Cu8   1.943789 S    
C38   C46   1.540387 S    
O15   C7    1.294123 A    
H11   C47   1.110057 S    
Cu6   O30   1.963725 S    
C84   C88   1.393678 A    
O7    C3    1.295564 A    
C136  C144  1.401998 A    
C83   C87   1.393678 A    
C128  C130  1.403973 A    
C62   C66   1.403958 A    
C134  H62   1.083342 S    
C97   C101  1.402061 A    
C33   C41   1.555447 S    
C69   H29   1.083058 S    
C119  C165  1.468542 S    
C26   C34   1.536164 S    
O16   C8    1.294123 A    
C160  C168  1.402126 A    
Cu7   O31   1.963725 S    
C146  C155  1.402095 A    
O44   Cu11  1.965529 S    
O25   C107  1.294099 A    
C84   C104  1.402101 A    
C34   H18   1.110141 S    
C85   C89   1.403882 A    
O11   C7    1.294027 A    
C161  C165  1.403924 A    
O12   C8    1.294027 A    
O1    Cu1   1.963872 S    
O9    Cu1   1.944239 S    
C76   H36   1.083285 S    
C40   C56   1.465985 S    
O35   Cu11  1.963251 S    
O44   C118  1.287536 A    
C135  H63   1.083302 S    
C16   H4    1.110077 S    
C94   H46   1.083094 S    
O11   Cu2   1.944239 S    
C163  H83   1.083067 S    
O19   Cu7   1.963516 S    
C124  H56   1.083305 S    
C79   C103  1.469121 S    
C133  H61   1.083341 S    
C150  C153  1.404008 A    
C7    C19   1.435114 S    
O6    Cu3   1.962063 S    
O33   C113  1.287317 A    
C140  H68   1.083085 S    
Cu11  Cu12  2.649891 S    
C32   C44   1.542270 S    
C38   C54   1.465997 S    
C63   C67   1.403955 A    
C66   C70   1.403982 A    
C44   H16   1.110076 S    
C163  C166  1.403926 A    
C121  C125  1.393452 A    
C23   C109  1.435232 S    
C150  H74   1.083060 S    
O31   C112  1.295324 A    
C95   H47   1.083085 S    
C43   C47   1.552796 S    
O2    C2    1.295471 A    
C62   H26   1.083056 S    
C73   C77   1.402037 A    
C155  C168  1.469408 S    
C14   H2    1.110090 S    
O14   Cu3   1.944205 S    
O23   C109  1.294239 A    
O12   Cu2   1.944243 S    
O21   C107  1.294224 A    
C138  H66   1.083146 S    
C114  C142  1.467877 S    
Cu1   Cu3   2.676408 S    
C58   C78   1.402066 A    
Cu2   Cu4   2.676408 S    
H12   C48   1.110055 S    
C28   N4    1.457082 S    
C158  H78   1.083278 S    
C105  C129  1.468120 S    
C14   C46   1.552805 S    
O34   C113  1.287316 A    
C69   C73   1.393621 A    
O30   C111  1.295326 A    
C10   C26   1.536173 S    
C33   H17   1.110137 S    
O40   Cu12  1.963902 S    
O28   C110  1.294078 A    
C148  C156  1.402096 A    
C94   C98   1.393587 A    
O36   C114  1.287385 A    
C70   C74   1.393618 A    
C57   H21   1.083284 S    
C72   H32   1.083057 S    
C149  C153  1.404005 A    
