data_mof_unit_51517.cif
_audit_creation_date              2012-12-10T18:48:41-0500
_audit_creation_method            fapswitch 2.2
_symmetry_space_group_name_H-M    P1
_symmetry_Int_Tables_number       1
_space_group_crystal_system       triclinic
_cell_length_a                    15.589517
_cell_length_b                    15.123977
_cell_length_c                    9.857452
_cell_angle_alpha                 89.643792
_cell_angle_beta                  89.998208
_cell_angle_gamma                 90.003617
_cell_volume                      2324.10071894

loop_
_atom_site_label
_atom_site_type_symbol
_atom_type_description
_atom_site_fract_x
_atom_site_fract_y
_atom_site_fract_z
_atom_type_partial_charge
C1    C     C_R   0.120039 0.379614 0.500547 1.030374
C2    C     C_R   0.000614 0.422830 0.929043 0.064671
C3    C     C_R   0.997679 0.422814 0.072234 0.084616
C4    C     C_R   0.997661 0.577168 0.927729 0.078933
C5    C     C_R   0.500695 0.077171 0.070936 0.065527
C6    C     C_R   0.500625 0.922821 0.929043 0.065845
C7    C     C_R   0.497523 0.922811 0.072239 0.085828
C8    C     C_R   0.497599 0.077170 0.927744 0.080117
C9    C     C_R   0.769567 0.294077 0.377781 0.310296
C10   C     C_R   0.212556 0.726970 0.620208 0.322558
C11   C     C_R   0.224635 0.715539 0.375211 0.300405
C12   C     C_R   0.879919 0.620001 0.499968 1.034328
C13   C     C_R   0.790375 0.269462 0.619270 0.306099
C14   C     C_R   0.224641 0.284498 0.624813 0.311586
C15   C     C_R   0.790440 0.730543 0.380496 0.260409
C16   C     C_R   0.769656 0.706082 0.622082 0.308635
C17   C     C_R   0.213007 0.273497 0.379655 0.253029
C18   C     C_R   0.269239 0.794559 0.378029 0.300993
C19   C     C_R   0.712256 0.227250 0.620111 0.325088
C20   C     C_R   0.724946 0.215061 0.375285 0.291452
C21   C     C_R   0.290662 0.769211 0.619201 0.306843
C22   C     C_R   0.725126 0.785143 0.624551 0.302690
C23   C     C_R   0.879934 0.379987 0.500009 1.053287
C24   C     C_R   0.291012 0.231081 0.380841 0.330583
C25   C     C_R   0.269221 0.205459 0.621920 0.293677
C26   C     C_R   0.712461 0.773031 0.379666 0.274545
C27   C     C_R   0.185772 0.687705 0.497984 -0.397245
C28   C     C_R   0.813252 0.314312 0.499141 -0.395284
C29   C     C_R   0.813266 0.685715 0.500714 -0.407850
C30   C     C_R   0.185985 0.312513 0.501969 -0.408714
C31   C     C_R   0.685764 0.187655 0.497997 -0.391068
C32   C     C_R   0.313246 0.814381 0.499220 -0.394000
C33   C     C_R   0.313336 0.185714 0.500779 -0.391535
C34   C     C_R   0.119972 0.620454 0.499445 1.040564
C35   C     C_R   0.685975 0.812574 0.501857 -0.409614
C36   C     C_R   0.620038 0.879638 0.500522 1.028703
C37   C     C_R   0.379959 0.120016 0.499976 1.062601
C38   C     C_R   0.379947 0.879996 0.500027 1.053171
C39   C     C_R   0.619966 0.120439 0.499454 1.054806
C40   C     C_R   0.000643 0.577182 0.070916 0.067446
H1    H     H_    0.002908 0.639041 0.123882 0.239488
H2    H     H_    0.015154 0.789431 0.783104 0.406458
H3    H     H_    0.232446 0.508986 0.184067 0.411437
H4    H     H_    0.995282 0.212831 0.771464 0.410155
H5    H     H_    0.230952 0.490776 0.816702 0.411072
H6    H     H_    0.964773 0.799643 0.366132 0.367364
H7    H     H_    0.760313 0.486958 0.778038 0.414540
H8    H     H_    0.044312 0.198419 0.351562 0.368563
H9    H     H_    0.258612 0.014505 0.224751 0.412742
H10   H     H_    0.514330 0.289161 0.782483 0.402319
H11   H     H_    0.733587 0.007591 0.186632 0.412428
H12   H     H_    0.002833 0.361042 0.875965 0.213006
H13   H     H_    0.496043 0.712982 0.770486 0.409968
H14   H     H_    0.732133 0.992553 0.813208 0.412768
H15   H     H_    0.496734 0.286684 0.230010 0.406127
H16   H     H_    0.260133 0.985641 0.775417 0.414842
H17   H     H_    0.542991 0.698389 0.353043 0.370291
H18   H     H_    0.993526 0.360936 0.126053 0.235597
H19   H     H_    0.993479 0.638975 0.873798 0.209279
H20   H     H_    0.503158 0.138968 0.123985 0.207954
H21   H     H_    0.503025 0.861025 0.875968 0.212049
H22   H     H_    0.493190 0.860937 0.126073 0.234775
H23   H     H_    0.493328 0.138981 0.873821 0.204208
H24   H     H_    0.758692 0.513381 0.222135 0.413726
N1    N     N_R   0.000000 0.500000 0.857200 -0.138176
N2    N     N_R   0.000000 0.500000 0.142800 -0.143451
N3    N     N_R   0.500000 1.000000 0.857200 -0.137241
N4    N     N_R   0.500000 1.000000 0.142800 -0.139589
O1    O     O_R   0.091610 0.408380 0.614620 -0.578620
O2    O     O_R   0.408390 0.091620 0.385380 -0.581467
O3    O     O_R   0.408390 0.091620 0.614620 -0.586001
O4    O     O_R   0.591610 0.908380 0.385380 -0.573278
O5    O     O_R   0.408390 0.908380 0.385380 -0.585088
O6    O     O_R   0.591610 0.091620 0.614620 -0.572805
O7    O     O_R   0.591610 0.091620 0.385380 -0.580326
O8    O     O_R   0.408390 0.908380 0.614620 -0.580259
O9    O     O_2   0.822723 0.361339 0.139798 -0.229774
O10   O     O_2   0.667885 0.353642 0.176282 -0.198315
O11   O     O_3   0.752596 0.474941 0.303275 -0.530265
O12   O     O_R   0.908390 0.591620 0.385380 -0.578735
O13   O     O_2   0.155330 0.663265 0.855253 -0.236627
O14   O     O_2   0.171978 0.823765 0.838915 -0.191222
O15   O     O_3   0.043337 0.753571 0.712136 -0.586236
O16   O     O_2   0.161743 0.666389 0.135704 -0.231126
O17   O     O_2   0.317711 0.671790 0.156108 -0.163332
O18   O     O_3   0.238695 0.540810 0.271032 -0.518688
O19   O     O_2   0.849943 0.319730 0.860085 -0.230585
O20   O     O_2   0.839617 0.160758 0.820434 -0.194040
O21   O     O_3   0.963086 0.245612 0.700635 -0.583570
O22   O     O_2   0.161433 0.333085 0.864418 -0.244610
O23   O     O_R   0.908390 0.591620 0.614620 -0.583340
O24   O     O_2   0.317418 0.328141 0.844320 -0.187384
O25   O     O_3   0.238235 0.459116 0.729793 -0.515376
O26   O     O_2   0.849007 0.678222 0.140558 -0.216839
O27   O     O_2   0.840007 0.837442 0.175865 -0.178343
O28   O     O_3   0.963338 0.753161 0.295819 -0.540976
O29   O     O_2   0.822834 0.639134 0.860192 -0.237128
O30   O     O_2   0.667991 0.646604 0.823699 -0.193457
O31   O     O_3   0.752790 0.525254 0.697039 -0.527065
O32   O     O_2   0.156555 0.338597 0.145397 -0.220405
O33   O     O_2   0.172365 0.178119 0.158185 -0.172709
O34   O     O_R   0.091610 0.408380 0.385380 -0.571921
O35   O     O_3   0.043792 0.247559 0.284666 -0.545689
O36   O     O_2   0.321339 0.862749 0.139964 -0.231840
O37   O     O_2   0.166638 0.855084 0.178426 -0.163190
O38   O     O_3   0.252192 0.975744 0.305475 -0.538157
O39   O     O_2   0.654859 0.164113 0.855424 -0.240409
O40   O     O_2   0.671139 0.324600 0.837923 -0.196268
O41   O     O_3   0.542800 0.253651 0.711382 -0.565214
O42   O     O_2   0.662715 0.164630 0.135898 -0.248433
O43   O     O_2   0.818627 0.170402 0.157236 -0.160450
O44   O     O_3   0.739476 0.039889 0.273242 -0.523748
O45   O     O_R   0.908390 0.408380 0.385380 -0.584715
O46   O     O_2   0.350483 0.818727 0.860313 -0.231658
O47   O     O_2   0.340516 0.659905 0.819163 -0.193524
O48   O     O_3   0.463598 0.745604 0.699769 -0.582374
O49   O     O_2   0.662758 0.835350 0.864001 -0.242639
O50   O     O_2   0.818686 0.829888 0.842705 -0.185841
O51   O     O_3   0.739357 0.960298 0.726810 -0.520891
O52   O     O_2   0.350869 0.181620 0.139734 -0.240071
O53   O     O_2   0.341448 0.340433 0.181252 -0.195733
O54   O     O_3   0.464118 0.254178 0.300659 -0.564130
O55   O     O_2   0.321810 0.137496 0.859857 -0.235881
O56   O     O_R   0.091610 0.591620 0.614620 -0.570826
O57   O     O_2   0.167057 0.144864 0.822183 -0.192812
O58   O     O_3   0.252475 0.024294 0.694848 -0.532447
O59   O     O_2   0.655584 0.837133 0.145046 -0.222364
O60   O     O_2   0.670475 0.676646 0.159883 -0.172499
O61   O     O_3   0.542699 0.747633 0.286321 -0.545682
O62   O     O_R   0.091610 0.591620 0.385380 -0.577653
O63   O     O_R   0.908390 0.408380 0.614620 -0.578536
O64   O     O_R   0.591610 0.908380 0.614620 -0.577915
S1    S     S_3+6 0.752818 0.371053 0.243115 0.143644
S2    S     S_3+6 0.645248 0.242558 0.762912 0.114080
S3    S     S_3+6 0.736593 0.147602 0.229569 0.138581
S4    S     S_3+6 0.361621 0.747980 0.755874 0.113018
S5    S     S_3+6 0.736632 0.852558 0.770363 0.134003
S6    S     S_3+6 0.362176 0.252215 0.244370 0.112659
S7    S     S_3+6 0.252251 0.127964 0.755879 0.136899
S8    S     S_3+6 0.645463 0.758254 0.236557 0.124493
S9    S     S_3+6 0.145805 0.742032 0.763359 0.114658
S10   S     S_3+6 0.235828 0.648744 0.228696 0.144824
S11   S     S_3+6 0.861046 0.248518 0.756391 0.112423
S12   S     S_3+6 0.235554 0.351091 0.771636 0.138752
S13   S     S_3+6 0.860828 0.750384 0.242484 0.121600
S14   S     S_3+6 0.752939 0.629216 0.756910 0.139230
S15   S     S_3+6 0.146623 0.259126 0.235757 0.123134
S16   S     S_3+6 0.251962 0.872112 0.244288 0.145876
Zn1   Zn    Zn3+2 0.000000 0.500000 0.653120 1.098370
Zn2   Zn    Zn3+2 1.000000 0.500000 0.346880 1.105318
Zn3   Zn    Zn3+2 0.500000 1.000000 0.653120 1.100054
Zn4   Zn    Zn3+2 0.500000 1.000000 0.346880 1.102788

loop_
_geom_bond_atom_site_label_1
_geom_bond_atom_site_label_2
_ccdc_geom_bond_type
C10   C27   A    
O56   Zn1   S    
C11   C18   A    
H11   O44   S    
C12   C29   S    
O29   S14   D    
O36   S16   D    
C12   O23   A    
C35   C36   S    
O27   S13   D    
C2    N1    A    
H5    O25   S    
O35   S15   S    
C38   O8    A    
O57   S7    D    
C19   S2    S    
O12   Zn2   S    
O28   S13   S    
C22   S5    S    
N4    Zn4   S    
C6    H21   S    
H17   O61   S    
C17   S15   S    
N2    Zn2   S    
O39   S2    D    
C26   S8    S    
O14   S9    D    
C4    N1    A    
O47   S4    D    
O32   S15   D    
O55   S7    D    
H7    O31   S    
C16   S14   S    
C39   O6    A    
C7    N4    A    
O43   S3    D    
O3    Zn3   S    
C4    C40   A    
O4    Zn4   S    
O62   Zn2   S    
C16   C22   A    
C13   C28   A    
C39   O7    A    
O50   S5    D    
C21   S4    S    
H13   O48   S    
O26   S13   D    
O13   S9    D    
H15   O54   S    
C19   C31   A    
C27   C34   S    
C40   N2    A    
C37   O2    A    
C17   C30   A    
O42   S3    D    
O9    S1    D    
C14   C30   A    
C5    N4    A    
O10   S1    D    
C15   C29   A    
C10   C21   A    
O11   S1    S    
C21   C32   A    
C14   S12   S    
O58   S7    S    
C17   C24   A    
C13   C19   A    
N3    Zn3   S    
O51   S5    S    
O2    Zn4   S    
O54   S6    S    
C15   S13   S    
C15   C26   A    
O30   S14   D    
O8    Zn3   S    
C24   S6    S    
C16   C29   A    
O21   S11   S    
O37   S16   D    
H10   O41   S    
C1    O1    A    
C10   S9    S    
O53   S6    D    
C7    H22   S    
O40   S2    D    
C22   C35   A    
C23   O45   A    
C9    C20   A    
C11   C27   A    
O7    Zn4   S    
O38   S16   S    
C23   O63   A    
C23   C28   S    
C6    C7    A    
O25   S12   S    
C2    H12   S    
O34   Zn2   S    
C40   H1    S    
O31   S14   S    
C32   C38   S    
C37   O3    A    
O5    Zn4   S    
H24   O11   S    
O6    Zn3   S    
O63   Zn1   S    
C3    N2    A    
C18   C32   A    
O59   S8    D    
O44   S3    S    
H16   O58   S    
O18   S10   S    
O15   S9    S    
C6    N3    A    
C34   O56   A    
O20   S11   D    
C5    H20   S    
C25   S7    S    
O41   S2    S    
H3    O18   S    
O45   Zn2   S    
O49   S5    D    
H2    O15   S    
O17   S10   D    
C5    C8    A    
H9    O38   S    
O48   S4    S    
C18   S16   S    
C24   C33   A    
O1    Zn1   S    
C36   O64   A    
C2    C3    A    
O60   S8    D    
H8    O35   S    
O33   S15   D    
O61   S8    S    
C20   S3    S    
C12   O12   A    
C4    H19   S    
C1    C30   S    
C31   C39   S    
O16   S10   D    
C13   S11   S    
C14   C25   A    
N1    Zn1   S    
O24   S12   D    
C11   S10   S    
C33   C37   S    
C8    H23   S    
C3    H18   S    
C26   C35   A    
H6    O28   S    
C34   O62   A    
C8    N3    A    
O23   Zn1   S    
O64   Zn3   S    
O46   S4    D    
O19   S11   D    
H14   O51   S    
O52   S6    D    
C1    O34   A    
C38   O5    A    
O22   S12   D    
H4    O21   S    
C36   O4    A    
C9    C28   A    
C25   C33   A    
C20   C31   A    
C9    S1    S    
