data_mof_unit_35512.cif
_audit_creation_date              2012-12-11T14:07:20-0500
_audit_creation_method            fapswitch 2.2
_symmetry_space_group_name_H-M    P1
_symmetry_Int_Tables_number       1
_space_group_crystal_system       triclinic
_cell_length_a                    19.947087
_cell_length_b                    16.936475
_cell_length_c                    15.470323
_cell_angle_alpha                 89.647671
_cell_angle_beta                  52.742708
_cell_angle_gamma                 89.190327
_cell_volume                      4159.38061931

loop_
_atom_site_label
_atom_site_type_symbol
_atom_type_description
_atom_site_fract_x
_atom_site_fract_y
_atom_site_fract_z
_atom_type_partial_charge
C1    C     C_R   0.339787 0.175860 0.050429 -0.177706
C2    C     C_R   0.373939 0.803307 0.999001 -0.109210
C3    C     C_R   0.836660 0.668893 0.060771 -0.113632
C4    C     C_R   0.872813 0.303701 0.000414 -0.107494
C5    C     C_R   0.653285 0.903093 0.077824 -0.159322
C6    C     C_R   0.642463 0.101282 0.092611 -0.153224
C7    C     C_R   0.130692 0.392972 0.107521 -0.134530
C8    C     C_R   0.144026 0.600150 0.090649 -0.153691
C9    C     C_R   0.666008 0.176976 0.049305 0.186530
C10   C     C_R   0.682210 0.829068 0.028221 0.178346
C11   C     C_R   0.168196 0.675645 0.046677 0.186676
C12   C     C_R   0.146522 0.312684 0.078251 0.142764
C13   C     C_R   0.692036 0.862139 0.677147 0.012300
C14   C     C_R   0.607686 0.186521 0.698806 0.019664
C15   C     C_R   0.194117 0.364024 0.678612 0.010424
C16   C     C_R   0.107241 0.686522 0.698975 0.015265
C17   C     C_3   0.370545 0.216793 0.475635 -0.440188
C18   C     C_3   0.180549 0.872268 0.513802 -0.435504
C19   C     C_3   0.873703 0.719902 0.472760 -0.443321
C20   C     C_3   0.681134 0.372567 0.514052 -0.437428
C21   C     C_3   0.317898 0.267870 0.579950 0.163482
C22   C     C_3   0.116530 0.823686 0.617593 0.164727
C23   C     C_3   0.818750 0.769864 0.577872 0.165635
C24   C     C_3   0.617271 0.324063 0.617960 0.169837
C25   C     C_3   0.361831 0.325543 0.371614 -0.414685
C26   C     C_3   0.301830 0.778379 0.453678 -0.394615
C27   C     C_3   0.860209 0.826147 0.370156 -0.415443
C28   C     C_3   0.802119 0.277982 0.452866 -0.398304
C29   C     C_3   0.753929 0.715879 0.457774 -0.393805
C30   C     C_3   0.703008 0.250856 0.406860 -0.421193
C31   C     C_3   0.251432 0.218927 0.459418 -0.395267
C32   C     C_3   0.203737 0.750166 0.406423 -0.420688
C33   C     C_3   0.345731 0.236431 0.399679 0.360291
C34   C     C_3   0.248883 0.816576 0.421477 0.355872
C35   C     C_3   0.847611 0.736819 0.397657 0.360273
C36   C     C_3   0.748903 0.316749 0.421436 0.357657
C37   C     C_3   0.752944 0.819170 0.575210 0.352625
C38   C     C_3   0.652984 0.237293 0.601256 0.345208
C39   C     C_3   0.253888 0.319971 0.576884 0.351425
C40   C     C_3   0.152687 0.737186 0.601330 0.347036
C41   C     C_3   0.800331 0.874779 0.474432 -0.384664
C42   C     C_3   0.745237 0.237516 0.561803 -0.401398
C43   C     C_3   0.303342 0.375040 0.475628 -0.389832
C44   C     C_3   0.244735 0.738037 0.562689 -0.401528
C45   C     C_R   0.351163 0.827906 0.218155 -0.124112
C46   C     C_R   0.398371 0.199925 0.208832 -0.151653
C47   C     C_R   0.851231 0.327851 0.218215 -0.132862
C48   C     C_R   0.901043 0.700384 0.207214 -0.161249
C49   C     C_3   0.698927 0.761656 0.563555 -0.481948
C50   C     C_3   0.652595 0.200095 0.509468 -0.488020
C51   C     C_3   0.198057 0.264819 0.565373 -0.477905
C52   C     C_3   0.153147 0.699506 0.509105 -0.487960
C53   C     C_2   0.222551 0.728550 0.047221 0.122139
C54   C     C_2   0.175925 0.251973 0.118362 0.123798
C55   C     C_2   0.720007 0.230297 0.050031 0.118511
C56   C     C_2   0.742957 0.778335 0.021717 0.121065
C57   C     C_2   0.784228 0.259142 0.951695 0.452492
C58   C     C_2   0.721578 0.701502 0.052397 0.441563
C59   C     C_2   0.286024 0.758390 0.949109 0.454096
C60   C     C_2   0.201928 0.179066 0.071360 0.465728
C61   C     C_R   0.358496 0.891879 0.907005 -0.210503
C62   C     C_R   0.328547 0.086624 0.955989 -0.101825
C63   C     C_R   0.857194 0.392529 0.908631 -0.198221
C64   C     C_R   0.829687 0.589369 0.953299 -0.146671
C65   C     C_R   0.407883 0.107561 0.303075 -0.153463
C66   C     C_R   0.357170 0.921383 0.314829 -0.145310
C67   C     C_R   0.909509 0.608015 0.301999 -0.153194
C68   C     C_R   0.857119 0.421533 0.314759 -0.148694
C69   C     C_R   0.285428 0.147788 0.030856 0.022245
C70   C     C_R   0.338526 0.816218 0.948170 0.003888
C71   C     C_R   0.786921 0.647873 0.032488 -0.049129
C72   C     C_R   0.836629 0.317066 0.950671 -0.002569
C73   C     C_R   0.308789 0.860290 0.320821 0.013289
C74   C     C_R   0.391084 0.186145 0.302376 0.014336
C75   C     C_R   0.808716 0.360442 0.320784 0.017854
C76   C     C_R   0.894441 0.686924 0.300195 0.019325
C77   C     C_R   0.631324 0.196983 0.998545 -0.088974
C78   C     C_R   0.642019 0.806752 0.985699 -0.102652
C79   C     C_R   0.132486 0.696435 0.997302 -0.086991
C80   C     C_R   0.122217 0.298841 0.012878 -0.169674
C81   C     C_R   0.649867 0.827524 0.779100 -0.146662
C82   C     C_R   0.602011 0.199130 0.791327 -0.130403
C83   C     C_R   0.151741 0.329849 0.781056 -0.149220
C84   C     C_R   0.101532 0.699217 0.791514 -0.129329
C85   C     C_R   0.589296 0.108205 0.699089 -0.158847
C86   C     C_R   0.641791 0.923052 0.684956 -0.135409
C87   C     C_R   0.089074 0.608172 0.699210 -0.160344
C88   C     C_R   0.143056 0.424002 0.685708 -0.132267
H1    H     H_    0.331494 0.225375 0.099156 0.132498
H2    H     H_    0.381202 0.747155 0.026323 0.092977
H3    H     H_    0.823792 0.714773 0.117127 0.102294
H4    H     H_    0.879879 0.247435 0.027694 0.090634
H5    H     H_    0.357664 0.153965 0.501192 0.128131
H6    H     H_    0.146789 0.904789 0.487586 0.141638
H7    H     H_    0.864244 0.656826 0.497121 0.126826
H8    H     H_    0.647172 0.405442 0.488388 0.140422
H9    H     H_    0.784757 0.727599 0.646709 0.104029
H10   H     H_    0.557789 0.320765 0.626388 0.128214
H11   H     H_    0.282366 0.226385 0.649576 0.109485
H12   H     H_    0.057372 0.819880 0.625305 0.128185
H13   H     H_    0.428796 0.339003 0.333591 0.174077
H14   H     H_    0.339499 0.822989 0.459247 0.156732
H15   H     H_    0.926573 0.842014 0.331966 0.175307
H16   H     H_    0.840179 0.322294 0.458163 0.157451
H17   H     H_    0.835551 0.920783 0.482220 0.163893
H18   H     H_    0.748993 0.268861 0.621062 0.178567
H19   H     H_    0.339931 0.419318 0.483468 0.169326
H20   H     H_    0.247955 0.769726 0.622232 0.177442
H21   H     H_    0.733925 0.730202 0.405988 0.165316
H22   H     H_    0.747923 0.210552 0.338551 0.157278
H23   H     H_    0.232151 0.235682 0.407485 0.171429
H24   H     H_    0.249193 0.709912 0.338352 0.158742
H25   H     H_    0.744067 0.651476 0.475768 0.159416
H26   H     H_    0.660505 0.277537 0.390324 0.174114
H27   H     H_    0.239229 0.154664 0.477140 0.159840
H28   H     H_    0.161476 0.776343 0.389171 0.174511
H29   H     H_    0.666039 0.719191 0.632471 0.161124
H30   H     H_    0.586943 0.194070 0.536578 0.155848
H31   H     H_    0.164144 0.222420 0.634307 0.161960
H32   H     H_    0.087706 0.693072 0.535599 0.154756
H33   H     H_    0.649375 0.794489 0.565140 0.175357
H34   H     H_    0.682227 0.140123 0.488043 0.174674
H35   H     H_    0.149263 0.299422 0.567241 0.176352
H36   H     H_    0.183059 0.639664 0.488057 0.175903
H37   H     H_    0.349443 0.342759 0.313027 0.153053
H38   H     H_    0.347162 0.734366 0.390984 0.163015
H39   H     H_    0.846782 0.841769 0.312149 0.150587
H40   H     H_    0.847111 0.233955 0.389899 0.160928
H41   H     H_    0.335339 0.776649 0.193934 0.089615
H42   H     H_    0.395642 0.256373 0.178205 0.088642
H43   H     H_    0.835694 0.276282 0.194189 0.088217
H44   H     H_    0.899741 0.756861 0.175430 0.088516
H45   H     H_    0.755146 0.906100 0.466249 0.145913
H46   H     H_    0.769187 0.176151 0.554451 0.161852
H47   H     H_    0.259436 0.408471 0.466953 0.147585
H48   H     H_    0.268928 0.676835 0.555689 0.164157
H49   H     H_    0.348150 0.920537 0.853583 0.113596
H50   H     H_    0.306373 0.051221 0.920348 0.123391
H51   H     H_    0.846214 0.421434 0.855908 0.112317
H52   H     H_    0.810434 0.560731 0.909421 0.098184
H53   H     H_    0.414592 0.076740 0.358788 0.090769
H54   H     H_    0.345587 0.956359 0.380882 0.093387
H55   H     H_    0.915662 0.577014 0.358102 0.089432
H56   H     H_    0.845550 0.456649 0.380705 0.093170
H57   H     H_    0.630627 0.253798 0.966720 0.077987
H58   H     H_    0.644603 0.749830 0.952594 0.117465
H59   H     H_    0.131888 0.753401 0.965742 0.082004
H60   H     H_    0.113822 0.243413 0.987327 0.160475
H61   H     H_    0.666743 0.773552 0.798871 0.084332
H62   H     H_    0.609966 0.253214 0.820137 0.102681
H63   H     H_    0.170586 0.278825 0.804050 0.103124
H64   H     H_    0.108975 0.753474 0.820532 0.103412
H65   H     H_    0.579871 0.079399 0.645131 0.090912
H66   H     H_    0.651524 0.959521 0.621009 0.089506
H67   H     H_    0.079721 0.579248 0.645246 0.090984
H68   H     H_    0.153124 0.460139 0.621299 0.089844
H69   H     H_    0.667746 0.932257 0.126574 0.104344
H70   H     H_    0.652825 0.073245 0.146639 0.100985
H71   H     H_    0.132598 0.420383 0.168935 0.109490
H72   H     H_    0.155377 0.571234 0.143289 0.103681
H73   H     H_    0.439416 0.225428 0.430789 0.171024
H74   H     H_    0.211295 0.917117 0.531061 0.173362
H75   H     H_    0.942040 0.731809 0.427754 0.171662
H76   H     H_    0.712372 0.417120 0.530914 0.172821
N1    N     N_R   0.408680 0.130160 0.995800 -0.036442
N2    N     N_R   0.408680 0.869840 0.995800 -0.035729
N3    N     N_R   0.908680 0.630160 0.995800 -0.034560
N4    N     N_R   0.908680 0.369840 0.995800 -0.035065
N5    N     N_R   0.421680 0.867580 0.153120 -0.037651
N6    N     N_R   0.421680 0.132420 0.153120 -0.034798
N7    N     N_R   0.921680 0.367580 0.153120 -0.039458
N8    N     N_R   0.921680 0.632420 0.153120 -0.036027
N9    N     N_R   0.403730 0.921770 0.935950 -0.033018
N10   N     N_R   0.403730 0.078230 0.935950 -0.044371
N11   N     N_R   0.903730 0.421770 0.935950 -0.030215
N12   N     N_R   0.903730 0.578230 0.935950 -0.032558
N13   N     N_R   0.426630 0.075970 0.212960 -0.031990
N14   N     N_R   0.426630 0.924030 0.212960 -0.035837
N15   N     N_R   0.926630 0.575970 0.212960 -0.031450
N16   N     N_R   0.926630 0.424030 0.212960 -0.036378
N17   N     N_R   0.591320 0.134600 0.004200 -0.048195
N18   N     N_R   0.591320 0.865400 0.004200 -0.051801
N19   N     N_R   0.091320 0.634600 0.004200 -0.048213
N20   N     N_R   0.091320 0.365400 0.004200 -0.048040
N21   N     N_R   0.578320 0.867660 0.846880 -0.036777
N22   N     N_R   0.578320 0.132340 0.846880 -0.034365
N23   N     N_R   0.078320 0.367660 0.846880 -0.037324
N24   N     N_R   0.078320 0.632340 0.846880 -0.034393
N25   N     N_R   0.573370 0.074390 0.787040 -0.031861
N26   N     N_R   0.573370 0.925610 0.787040 -0.036102
N27   N     N_R   0.073370 0.574390 0.787040 -0.031495
N28   N     N_R   0.073370 0.425610 0.787040 -0.036923
N29   N     N_R   0.596270 0.927870 0.064040 -0.043285
N30   N     N_R   0.596270 0.072130 0.064040 -0.041699
N31   N     N_R   0.096270 0.427870 0.064040 -0.040727
N32   N     N_R   0.096270 0.572130 0.064040 -0.042273
Ni1   Ni    Ni4+2 0.500000 0.131190 0.000000 0.209871
Ni2   Ni    Ni4+2 0.500000 0.868810 0.000000 0.214841
Ni3   Ni    Ni4+2 0.000000 0.631190 0.000000 0.210585
Ni4   Ni    Ni4+2 0.000000 0.368810 0.000000 0.205662
Ni5   Ni    Ni4+2 0.488650 0.000000 0.862740 0.206204
Ni6   Ni    Ni4+2 0.988650 0.500000 0.862740 0.208306
Ni7   Ni    Ni4+2 0.511350 1.000000 0.137260 0.211465
Ni8   Ni    Ni4+2 0.011350 0.500000 0.137260 0.207728
C89   C     C_3   0.374851 0.315626 0.595913 -1.034746
H77   H     H_    0.419154 0.352940 0.524179 0.262121
H78   H     H_    0.336477 0.353818 0.669096 0.260985
H79   H     H_    0.412684 0.274584 0.607622 0.250180
C90   C     C_3   0.091994 0.868676 0.719139 -1.076822
H80   H     H_    0.145330 0.870756 0.723672 0.263763
H81   H     H_    0.073679 0.930417 0.716575 0.266505
H82   H     H_    0.035979 0.841833 0.793556 0.261736
C91   C     C_3   0.873398 0.820233 0.595309 -1.038296
H83   H     H_    0.915915 0.859118 0.524702 0.262061
H84   H     H_    0.833311 0.857078 0.669617 0.261283
H85   H     H_    0.913026 0.780964 0.605907 0.249740
C92   C     C_3   0.593748 0.368880 0.719132 -1.081597
H86   H     H_    0.647412 0.370284 0.723063 0.263261
H87   H     H_    0.575970 0.430861 0.716620 0.265656
H88   H     H_    0.537623 0.342434 0.793833 0.256908
C93   C     C_3   0.194398 0.758464 0.156862 -1.125913
H89   H     H_    0.127973 0.742258 0.221903 0.261617
H90   H     H_    0.233690 0.730861 0.177478 0.257870
H91   H     H_    0.197846 0.823825 0.157420 0.274765
C94   C     C_3   0.177747 0.274471 0.211272 -1.150041
H92   H     H_    0.114783 0.297772 0.279462 0.268555
H93   H     H_    0.191001 0.222710 0.243469 0.260366
H94   H     H_    0.224951 0.321151 0.185405 0.264296
C95   C     C_3   0.691086 0.261670 0.159358 -1.117063
H95   H     H_    0.625270 0.243934 0.224671 0.261136
H96   H     H_    0.731267 0.236610 0.180042 0.256987
H97   H     H_    0.692574 0.327205 0.159181 0.271717
C96   C     C_3   0.831219 0.811531 0.959852 -1.075279
H98   H     H_    0.836183 0.868459 0.920299 0.267322
H99   H     H_    0.847162 0.823837 0.015716 0.251319
H100  H     H_    0.878430 0.770570 0.894047 0.268580
O1    O     O_3   0.807318 0.219915 0.857421 -0.675402
C97   C     C_3   0.850879 0.267318 0.763145 0.218229
H101  H     H_    0.877781 0.227068 0.692563 0.126537
H102  H     H_    0.906228 0.296894 0.748484 0.096213
C98   C     C_3   0.790403 0.324919 0.764064 -0.337814
H103  H     H_    0.742908 0.290365 0.766128 0.193417
H104  H     H_    0.755230 0.362061 0.838351 0.184672
C99   C     C_3   0.837395 0.378099 0.664227 -1.058265
H105  H     H_    0.881790 0.416291 0.665094 0.268224
H106  H     H_    0.791713 0.416349 0.664270 0.271705
H107  H     H_    0.873332 0.341998 0.588810 0.266883
O2    O     O_3   0.638302 0.678184 0.103253 -0.691778
C100  C     C_3   0.620542 0.602169 0.149831 0.196004
H108  H     H_    0.636502 0.597988 0.207424 0.103602
H109  H     H_    0.656178 0.556520 0.085076 0.104687
C101  C     C_3   0.526450 0.587179 0.212468 -0.243099
H110  H     H_    0.489809 0.632276 0.277693 0.195256
H111  H     H_    0.509299 0.592656 0.156373 0.196801
C102  C     C_3   0.502955 0.505118 0.263250 -1.080610
H112  H     H_    0.517251 0.498909 0.322114 0.273276
H113  H     H_    0.538154 0.458939 0.199407 0.272004
H114  H     H_    0.434483 0.496297 0.306868 0.273861
O3    O     O_3   0.307912 0.720763 0.854444 -0.675690
C103  C     C_3   0.349357 0.769724 0.761713 0.215863
H115  H     H_    0.375112 0.730711 0.690256 0.126547
H116  H     H_    0.405330 0.798944 0.745701 0.096451
C104  C     C_3   0.287256 0.827924 0.767016 -0.339238
H117  H     H_    0.239443 0.793897 0.769175 0.192589
H118  H     H_    0.252631 0.863479 0.842751 0.186527
C105  C     C_3   0.332277 0.883210 0.669360 -1.051101
H119  H     H_    0.377014 0.920939 0.670091 0.267833
H120  H     H_    0.285423 0.921888 0.672536 0.273128
H121  H     H_    0.367585 0.848738 0.592562 0.265314
O4    O     O_3   0.165210 0.143020 0.029703 -0.700423
C106  C     C_3   0.095484 0.098473 0.112312 0.150592
H122  H     H_    0.050089 0.096162 0.093192 0.128680
H123  H     H_    0.060705 0.126075 0.194577 0.090630
C107  C     C_3   0.123314 0.013827 0.113582 -0.268605
H124  H     H_    0.158152 0.987615 0.030973 0.201309
H125  H     H_    0.166068 0.014556 0.137052 0.192313
C108  C     C_3   0.048074 0.962120 0.193580 -1.059572
H126  H     H_    0.013164 0.986100 0.277313 0.269680
H127  H     H_    0.070563 0.901411 0.191961 0.275953
H128  H     H_    0.004878 0.959056 0.170962 0.267398

loop_
_geom_bond_atom_site_label_1
_geom_bond_atom_site_label_2
_ccdc_geom_bond_type
C61   C70   A    
C44   H48   S    
C106  C107  S    
C39   C51   S    
C102  H113  S    
C45   H41   S    
C54   C60   D    
C77   H57   S    
C104  C105  S    
C107  C108  S    
C51   H35   S    
N4    Ni4   S    
C48   C76   A    
C3    C71   A    
C2    C70   A    
N18   Ni2   S    
C4    C72   A    
C67   H55   S    
C90   H82   S    
C6    C9    A    
C41   H45   S    
C53   C59   D    
C3    N3    A    
C104  H117  S    
C105  H120  S    
C29   C49   S    
C89   H77   S    
C92   H88   S    
C66   N14   A    
C97   C98   S    
C23   C91   S    
C100  H108  S    
C95   H95   S    
C41   H17   S    
C82   N22   A    
N24   N27   A    
C24   H10   S    
C88   H68   S    
C45   C73   A    
C38   C42   S    
C93   H91   S    
C30   H26   S    
C21   H11   S    
C81   H61   S    
C58   C71   S    
C91   H85   S    
C7    H71   S    
C67   N15   A    
C53   C93   S    
C106  H122  S    
C62   N10   A    
C22   C90   S    
C13   C81   A    
C16   C84   A    
C94   H94   S    
C65   H53   S    
C99   H105  S    
N8    Ni3   S    
C3    H3    S    
C98   H103  S    
C26   H38   S    
C64   C71   A    
C21   C89   S    
C2    H2    S    
C25   H37   S    
C32   C52   S    
C15   C88   A    
C94   H93   S    
C48   N8    A    
C104  H118  S    
C27   H39   S    
C26   C34   S    
C49   H29   S    
C20   C24   S    
C79   N19   A    
N20   Ni4   S    
C8    N32   A    
C50   H34   S    
C13   C86   A    
C16   C87   A    
C51   H31   S    
N13   Ni7   S    
N22   Ni1   S    
C88   N28   A    
C9    C55   S    
N27   Ni6   S    
C1    N1    A    
N21   Ni2   S    
N32   Ni8   S    
C10   C56   S    
C96   H98   S    
C2    N2    A    
N19   Ni3   S    
C13   C37   S    
C11   C53   S    
C17   H73   S    
C24   C92   S    
C44   H20   S    
C20   H8    S    
C102  H114  S    
C49   H33   S    
C18   C22   S    
N14   Ni7   S    
C37   C41   S    
C28   C42   S    
C59   O3    S    
C85   H65   S    
C17   C33   S    
C61   H49   S    
C103  C104  S    
N28   Ni6   S    
C31   H27   S    
C56   C58   D    
C6    H70   S    
C6    N30   A    
C90   H80   S    
C83   H63   S    
C58   O2    S    
C91   H84   S    
N5    Ni2   S    
C10   C78   A    
C7    C12   A    
C97   H102  S    
C35   C76   S    
C100  H109  S    
C86   N26   A    
N6    N13   A    
C26   C44   S    
N12   Ni6   S    
N21   N26   A    
C22   H12   S    
C14   C85   A    
C103  H116  S    
C97   H101  S    
C98   H104  S    
C81   N21   A    
N9    Ni5   S    
C39   C43   S    
N31   Ni8   S    
C34   C73   S    
N24   Ni3   S    
C27   C35   S    
N1    N10   A    
C40   C52   S    
C66   C73   A    
C28   H16   S    
C68   N16   A    
N10   Ni5   S    
C1    C69   A    
C65   C74   A    
C46   N6    A    
C62   C69   A    
C47   H43   S    
C68   C75   A    
C32   C34   S    
C80   H60   S    
C19   C23   S    
N2    Ni2   S    
C54   C94   S    
C93   H89   S    
C36   C75   S    
N1    Ni1   S    
C14   C38   S    
C37   C49   S    
C27   C41   S    
C87   N27   A    
C77   N17   A    
C21   C39   S    
C91   H83   S    
C22   C40   S    
C31   C33   S    
C94   H92   S    
C61   N9    A    
N18   N29   A    
C43   H19   S    
C62   H50   S    
C43   H47   S    
N17   N30   A    
C42   H18   S    
C15   C39   S    
N23   N28   A    
C82   H62   S    
C11   C79   A    
C24   C38   S    
C16   C40   S    
C101  C102  S    
C79   H59   S    
C57   O1    S    
C52   H32   S    
N8    N15   A    
C60   C69   S    
C25   C43   S    
C83   N23   A    
C30   H22   S    
C5    H69   S    
C55   C57   D    
C18   H6    S    
C87   H67   S    
C56   C96   S    
C84   N24   A    
N7    Ni4   S    
C17   H5    S    
C14   C82   A    
C7    N31   A    
C102  H112  S    
C8    H72   S    
C84   H64   S    
N5    N14   A    
C46   C74   A    
C19   H7    S    
O2    C100  S    
C5    N29   A    
C64   H52   S    
C89   H79   S    
C29   H21   S    
C106  H123  S    
C29   H25   S    
C107  H124  S    
N2    N9    A    
C1    H1    S    
C32   H24   S    
C66   H54   S    
C23   H9    S    
C50   H30   S    
C32   H28   S    
C63   H51   S    
N3    Ni3   S    
N6    Ni1   S    
N11   Ni6   S    
C31   C51   S    
C103  H115  S    
N16   Ni8   S    
C105  H121  S    
C45   N5    A    
C46   H42   S    
C47   N7    A    
N26   Ni5   S    
C63   N11   A    
C9    C77   A    
C38   C50   S    
C101  H111  S    
C92   H87   S    
N20   N31   A    
C29   C35   S    
N29   Ni7   S    
C99   H107  S    
C30   C36   S    
N23   Ni4   S    
C42   H46   S    
C98   C99   S    
N25   Ni5   S    
C101  H110  S    
N22   N25   A    
C108  H127  S    
C64   N12   A    
C92   H86   S    
C47   C75   A    
C5    C10   A    
C95   H96   S    
C23   C37   S    
C28   H40   S    
C26   H14   S    
C52   H36   S    
C25   H13   S    
C86   H66   S    
C65   N13   A    
C55   C95   S    
C18   C34   S    
C8    C11   A    
C15   C83   A    
N30   Ni7   S    
C12   C80   A    
C27   H15   S    
C90   H81   S    
C99   H106  S    
N17   Ni1   S    
C68   H56   S    
N4    N11   A    
C107  H125  S    
C80   N20   A    
C57   C72   S    
C30   C50   S    
N7    N16   A    
C96   H100  S    
O1    C97   S    
N15   Ni8   S    
C100  C101  S    
C18   H74   S    
C105  H119  S    
C78   H58   S    
C59   C70   S    
C95   H97   S    
C20   C36   S    
C4    N4    A    
C33   C74   S    
C40   C44   S    
C63   C72   A    
C28   C36   S    
C93   H90   S    
C108  H128  S    
C96   H99   S    
C31   H23   S    
O4    C106  S    
C48   H44   S    
C20   H76   S    
C19   C35   S    
C67   C76   A    
C60   O4    S    
C108  H126  S    
C89   H78   S    
C85   N25   A    
N19   N32   A    
C12   C54   S    
O3    C103  S    
C78   N18   A    
C25   C33   S    
N3    N12   A    
C4    H4    S    
C19   H75   S    
C17   C21   S    
