data_mof_unit_28600.cif
_audit_creation_date              2012-10-26T19:59:12-0400
_audit_creation_method            fapswitch 2.2
_symmetry_space_group_name_H-M    P1
_symmetry_Int_Tables_number       1
_space_group_crystal_system       triclinic
_cell_length_a                    7.511188
_cell_length_b                    8.679537
_cell_length_c                    15.551181
_cell_angle_alpha                 95.51783
_cell_angle_beta                  76.250881
_cell_angle_gamma                 103.106512
_cell_volume                      958.176244613

loop_
_atom_site_label
_atom_site_type_symbol
_atom_type_description
_atom_site_fract_x
_atom_site_fract_y
_atom_site_fract_z
_atom_type_partial_charge
C1    C     C_R   0.544211 0.799962 0.503674 0.545480
C2    C     C_R   0.614943 0.516780 0.333111 0.565440
C3    C     C_R   0.316126 0.423601 0.757840 -0.012400
C4    C     C_R   0.687022 0.533586 0.235448 -0.017053
C5    C     C_R   0.121978 0.233489 0.867020 0.300891
C6    C     C_R   0.938531 0.622641 0.106150 0.268165
C7    C     C_R   0.162112 0.294845 0.781554 -0.041855
C8    C     C_R   0.873055 0.614332 0.199444 -0.052463
C9    C     C_R   0.428844 0.484505 0.818324 0.242188
C10   C     C_R   0.566442 0.470056 0.178025 0.218608
C11   C     C_R   0.419068 0.395638 0.891970 -0.072172
C12   C     C_R   0.455896 0.200063 0.496234 0.540415
C13   C     C_R   0.637474 0.460049 0.084960 -0.078974
C14   C     C_R   0.256387 0.276705 0.920376 0.045694
C15   C     C_R   0.821484 0.544790 0.048664 0.044066
C16   C     C_R   0.564804 0.425840 0.939312 -0.061820
C17   C     C_R   0.522961 0.378166 0.026744 -0.052099
C18   C     C_2   0.994303 0.701330 0.259176 0.273413
C19   C     C_2   0.050089 0.215174 0.716569 0.219049
C20   C     C_2   0.018258 0.668087 0.578916 0.520958
C21   C     C_2   0.983861 0.337143 0.417641 0.509734
C22   C     C_R   0.370959 0.247716 0.051604 0.237094
C23   C     C_R   0.754520 0.492758 0.900725 0.221883
C24   C     C_R   0.234236 0.201058 0.000270 0.338075
C25   C     C_R   0.882062 0.554739 0.955280 0.336125
C26   C     C_2   0.565754 0.968018 0.508928 -0.133637
C27   C     C_2   0.434661 0.032090 0.490810 -0.119162
C28   C     C_R   0.384841 0.477216 0.665780 0.595612
Cu1   Cu    Cu3+1 0.322120 0.483240 0.490330 1.055316
Cu2   Cu    Cu3+1 0.677880 0.516760 0.509670 1.034920
H1    H     H_    0.688957 0.039035 0.529263 0.122582
H2    H     H_    0.144880 0.804357 0.108306 0.365111
H3    H     H_    0.488275 0.166947 0.131511 0.357553
H4    H     H_    0.745292 0.395619 0.783681 0.331973
H5    H     H_    0.075331 0.784441 0.552828 0.081859
H6    H     H_    0.919946 0.219757 0.441161 0.052289
H7    H     H_    0.311852 0.961184 0.470188 0.125820
H8    H     H_    0.067045 0.056509 0.088659 0.359911
H9    H     H_    0.080825 0.644123 0.855149 0.389262
H10   H     H_    0.308315 0.458455 0.173777 0.380505
H11   H     H_    0.565613 0.682234 0.861533 0.368766
H12   H     H_    0.935001 0.768076 0.317374 0.113327
H13   H     H_    0.002336 0.282760 0.674943 0.155113
H14   H     H_    0.857957 0.145721 0.869446 0.339889
N1    N     N_2   0.945180 0.542040 0.524240 -0.201509
N2    N     N_2   0.054820 0.457960 0.475760 -0.186645
O1    O     O_R   0.384450 0.714270 0.493720 -0.530743
O2    O     O_3   0.065548 0.626354 0.918640 -0.602975
O3    O     O_3   0.376683 0.427309 0.214224 -0.576059
O4    O     O_3   0.546248 0.631731 0.803608 -0.594785
O5    O     O_2   0.160362 0.697831 0.244719 -0.461773
O6    O     O_2   0.008644 0.070824 0.709493 -0.467270
O7    O     O_3   0.955718 0.127713 0.898018 -0.579971
O8    O     O_3   0.114960 0.709040 0.069791 -0.585117
O9    O     O_3   0.360790 0.155013 0.120862 -0.667696
O10   O     O_3   0.823231 0.486907 0.810171 -0.653262
O11   O     O_2   0.998365 0.651228 0.657745 -0.416192
O12   O     O_R   0.615550 0.285730 0.506280 -0.547656
O13   O     O_2   0.012700 0.359473 0.338845 -0.444053
O14   O     O_R   0.684880 0.742590 0.510050 -0.520561
O15   O     O_R   0.315120 0.257410 0.489950 -0.522606
O16   O     O_R   0.265540 0.477900 0.617090 -0.512447
O17   O     O_R   0.734460 0.522100 0.382910 -0.509561
O18   O     O_R   0.565970 0.506210 0.633420 -0.439477
O19   O     O_R   0.434030 0.493790 0.366580 -0.406065
O20   O     O_3   0.080994 0.079058 0.025932 -0.589032

loop_
_geom_bond_atom_site_label_1
_geom_bond_atom_site_label_2
_ccdc_geom_bond_type
H3    O9    S    
C2    C4    S    
H4    O10   S    
C22   O9    S    
C3    C9    A    
C17   C22   A    
Cu2   O18   S    
C11   C16   A    
Cu2   N1    S    
C3    C7    A    
C20   N1    S    
C24   O20   S    
Cu1   N2    S    
C4    C8    A    
C2    O19   A    
C12   O12   A    
C23   C25   A    
C26   C27   D    
C23   O10   S    
C21   H6    S    
Cu2   O17   S    
C12   O15   A    
C9    C11   A    
C25   O2    S    
C5    C14   A    
Cu1   Cu2   S    
C14   C24   A    
Cu1   O1    S    
Cu1   O19   S    
Cu2   O12   S    
C22   C24   A    
H2    O8    S    
C3    C28   S    
C19   H13   S    
C18   O5    D    
C21   O13   D    
C16   C23   A    
C7    C19   S    
C13   C15   A    
C1    C26   S    
C11   C14   A    
Cu1   O15   S    
C15   C25   A    
H14   O7    S    
C12   C27   S    
C4    C10   A    
C13   C17   A    
C28   O18   A    
H11   O4    S    
C26   H1    S    
Cu2   O14   S    
C2    O17   A    
C5    C7    A    
C21   N2    S    
C1    O14   A    
C5    O7    S    
C27   H7    S    
H8    O20   S    
Cu1   O16   S    
C1    O1    A    
C6    C8    A    
C18   H12   S    
C20   O11   D    
N1    N2    D    
C10   O3    S    
C19   O6    D    
C20   H5    S    
C6    O8    S    
C8    C18   S    
C9    O4    S    
H10   O3    S    
C6    C15   A    
C16   C17   A    
H9    O2    S    
C10   C13   A    
C28   O16   A    
