data_mof_unit_16307.cif
_audit_creation_date              2013-03-05T15:40:31-0500
_audit_creation_method            fapswitch 2.2
_symmetry_space_group_name_H-M    P1
_symmetry_Int_Tables_number       1
_space_group_crystal_system       triclinic
_cell_length_a                    12.116705
_cell_length_b                    12.295282
_cell_length_c                    22.961151
_cell_angle_alpha                 90.562426
_cell_angle_beta                  90.687335
_cell_angle_gamma                 90.881917
_cell_volume                      3419.89093559

loop_
_atom_site_label
_atom_site_type_symbol
_atom_site_description
_atom_site_fract_x
_atom_site_fract_y
_atom_site_fract_z
_atom_type_partial_charge
O1    O     O_R   0.621380 0.090460 0.561410 -0.633573
O2    O     O_R   0.378620 0.909540 0.438590 -0.633621
O3    O     O_R   0.617150 0.909540 0.438590 -0.637722
O4    O     O_R   0.382850 0.090460 0.561410 -0.637721
O5    O     O_R   0.619720 0.093230 0.440890 -0.567721
O6    O     O_R   0.380280 0.906770 0.559110 -0.567929
O7    O     O_R   0.618800 0.906770 0.559110 -0.606896
O8    O     O_R   0.381200 0.093230 0.440890 -0.607174
C1    C     C_R   0.657258 0.998218 0.579321 0.868454
C2    C     C_R   0.342738 0.001780 0.420680 0.868070
C3    C     C_R   0.651899 0.002209 0.419170 0.897184
C4    C     C_R   0.348133 0.997798 0.580840 0.897767
Zn1   Zn    Zn3+2 0.501730 0.123520 0.501540 1.033817
Zn2   Zn    Zn3+2 0.498270 0.876480 0.498460 1.033591
C5    C     C_R   0.118428 0.098989 0.322504 -0.157654
C6    C     C_R   0.881771 0.901084 0.677388 -0.157687
C7    C     C_R   0.200942 0.098684 0.364590 -0.171691
C8    C     C_R   0.799249 0.901384 0.635305 -0.171583
H1    H     H_    0.219473 0.173124 0.388629 0.167459
H2    H     H_    0.780873 0.827014 0.611180 0.167368
C9    C     C_R   0.873228 0.910380 0.319946 -0.150926
C10   C     C_R   0.126529 0.089492 0.679902 -0.150755
C11   C     C_R   0.791809 0.909991 0.361449 -0.232533
C12   C     C_R   0.207934 0.089885 0.638394 -0.232678
H3    H     H_    0.777487 0.836150 0.385779 0.183050
H4    H     H_    0.221975 0.163589 0.613912 0.182967
C13   C     C_R   0.095923 0.159111 0.194349 -0.182174
C14   C     C_R   0.904168 0.840640 0.805514 -0.182233
C15   C     C_R   0.096125 0.241836 0.153959 -0.185827
C16   C     C_R   0.903967 0.757922 0.845908 -0.185823
H5    H     H_    0.172887 0.284874 0.145545 0.163174
H6    H     H_    0.827275 0.714687 0.854214 0.163196
C17   C     C_R   0.893927 0.854350 0.189532 -0.179594
C18   C     C_R   0.106004 0.145921 0.810320 -0.179699
C19   C     C_R   0.893392 0.774263 0.146698 -0.189951
C20   C     C_R   0.106537 0.225998 0.853161 -0.189929
H7    H     H_    0.816638 0.731810 0.136115 0.161605
H8    H     H_    0.183228 0.268628 0.863653 0.161637
C21   C     C_R   0.089303 0.887188 0.173844 -0.162905
C22   C     C_R   0.910787 0.112650 0.826245 -0.162812
C23   C     C_R   0.088766 0.807101 0.131361 -0.192687
C24   C     C_R   0.911321 0.192737 0.868729 -0.192710
H9    H     H_    0.164790 0.790964 0.108703 0.160512
H10   H     H_    0.835366 0.208714 0.891479 0.160495
C25   C     C_R   0.901285 0.125196 0.174274 -0.151814
C26   C     C_R   0.098614 0.875040 0.825873 -0.151795
C27   C     C_R   0.901392 0.208158 0.134269 -0.183073
C28   C     C_R   0.098512 0.792079 0.865878 -0.182972
H11   H     H_    0.825811 0.224428 0.110450 0.161860
H12   H     H_    0.174008 0.775997 0.889809 0.161836
C29   C     C_R   0.147063 0.907027 0.303574 -0.185912
C30   C     C_R   0.852711 0.092886 0.696542 -0.186154
C31   C     C_R   0.229034 0.906634 0.345957 -0.184829
C32   C     C_R   0.770741 0.093277 0.654158 -0.184699
H13   H     H_    0.269903 0.830894 0.355268 0.165129
H14   H     H_    0.729699 0.168956 0.644935 0.165114
C33   C     C_R   0.839371 0.100619 0.301188 -0.257528
C34   C     C_R   0.161084 0.899531 0.699027 -0.257749
C35   C     C_R   0.753322 0.099753 0.340488 0.317721
C36   C     C_R   0.247202 0.900467 0.659758 0.317478
C37   C     C_3   0.995095 0.005314 0.247569 -0.088386
C38   C     C_3   0.004925 0.994681 0.752427 -0.088281
C39   C     C_R   0.093143 0.004298 0.289637 0.119959
C40   C     C_R   0.906864 0.995689 0.710359 0.119894
C41   C     C_R   0.256803 0.002559 0.376287 -0.022315
C42   C     C_R   0.743185 0.997431 0.623717 -0.022098
C43   C     C_R   0.896928 0.005031 0.288303 0.060570
C44   C     C_R   0.103118 0.994968 0.711701 0.060433
C45   C     C_R   0.731855 0.004196 0.372457 -0.155984
C46   C     C_R   0.268241 0.995844 0.627576 -0.155797
C47   C     C_R   0.997184 0.102438 0.206940 0.118474
C48   C     C_R   0.002828 0.897561 0.793064 0.118378
C49   C     C_R   0.998658 0.267181 0.124194 -0.030160
C50   C     C_R   0.001344 0.732819 0.875811 -0.030114
C51   C     C_R   0.993065 0.909312 0.205264 0.121861
C52   C     C_R   0.006942 0.090713 0.794719 0.121734
C53   C     C_R   0.991122 0.749543 0.118030 -0.026623
C54   C     C_R   0.008886 0.250488 0.881953 -0.026613
H15   H     H_    0.073613 0.173385 0.315565 0.151161
H16   H     H_    0.926747 0.826762 0.684248 0.151185
H17   H     H_    0.919582 0.836838 0.313115 0.152388
H18   H     H_    0.079933 0.162915 0.686604 0.152457
H19   H     H_    0.173973 0.138348 0.214294 0.149788
H20   H     H_    0.826160 0.861203 0.785465 0.150017
H21   H     H_    0.815967 0.874442 0.209035 0.147989
H22   H     H_    0.183923 0.126020 0.790725 0.148167
H23   H     H_    0.165259 0.932516 0.182273 0.141812
H24   H     H_    0.834901 0.067166 0.817896 0.141937
H25   H     H_    0.825731 0.078572 0.180071 0.143197
H26   H     H_    0.174084 0.921843 0.820179 0.143288
H27   H     H_    0.124423 0.830149 0.283148 0.146749
H28   H     H_    0.875176 0.169730 0.717048 0.146863
H29   H     H_    0.860079 0.176933 0.280771 0.182309
H30   H     H_    0.140666 0.823299 0.719590 0.182712
O9    O     O_R   0.087590 0.627480 0.058790 -0.629357
O10   O     O_R   0.912410 0.372520 0.941210 -0.629313
O11   O     O_R   0.905660 0.383870 0.059980 -0.626722
O12   O     O_R   0.094340 0.616130 0.940020 -0.626674
O13   O     O_R   0.092570 0.390420 0.063230 -0.625859
O14   O     O_R   0.907430 0.609580 0.936770 -0.625837
O15   O     O_R   0.900680 0.620930 0.055550 -0.624599
O16   O     O_R   0.099320 0.379070 0.944450 -0.624576
C55   C     C_R   0.992827 0.662492 0.075114 0.869386
C56   C     C_R   0.007174 0.337517 0.924881 0.869382
C57   C     C_R   0.999040 0.351870 0.080865 0.870289
C58   C     C_R   0.000960 0.648128 0.919136 0.870268
Zn3   Zn    Zn3+2 0.125690 0.504390 0.002180 0.955495
Zn4   Zn    Zn3+2 0.874310 0.495610 0.997820 0.955488
N1    N     N_R   0.687090 0.195189 0.345774 0.215254
O17   O     O_R   0.733979 0.291146 0.347119 -0.393734
O18   O     O_R   0.580688 0.187569 0.337798 -0.387901
N2    N     N_R   0.313989 0.805363 0.654750 0.215170
O19   O     O_R   0.267722 0.709111 0.654185 -0.393860
O20   O     O_R   0.420436 0.813786 0.662293 -0.388001

loop_
_geom_bond_atom_site_label_1
_geom_bond_atom_site_label_2
_geom_bond_distance
_ccdc_geom_bond_type
C16   H6    1.083282 S    
O8    Zn1   2.033504 S    
C14   H20   1.080943 S    
C11   C45   1.399203 A    
C21   H23   1.083005 S    
N2    O20   1.301705 A    
C12   C46   1.399031 A    
C21   C23   1.379115 A    
C37   C51   1.521006 S    
C10   H18   1.082810 S    
C19   H7    1.083315 S    
C12   H4    1.083383 S    
O5    C3    1.288540 A    
N1    O18   1.301817 A    
C23   C53   1.398430 A    
C16   C50   1.398131 A    
C33   C35   1.387040 A    
C15   C49   1.398234 A    
C34   C36   1.387214 A    
C13   C15   1.383147 A    
O7    C1    1.290421 A    
C18   H22   1.081131 S    
C25   C27   1.379367 A    
O4    Zn1   2.042128 S    
C37   C39   1.522410 S    
C17   H21   1.081212 S    
C1    C42   1.448531 S    
C38   C40   1.522516 S    
C29   H27   1.081169 S    
O11   Zn4   2.027429 S    
C17   C51   1.410640 A    
O7    Zn2   2.033506 S    
C5    H15   1.083069 S    
O9    C55   1.290954 A    
C21   C51   1.407247 A    
O4    C4    1.293732 A    
C25   H25   1.082910 S    
O5    Zn1   2.043500 S    
O11   C57   1.292035 A    
C37   C47   1.522642 S    
O15   Zn4   2.041559 S    
C28   H12   1.083271 S    
O10   Zn4   2.047053 S    
O15   C55   1.294386 A    
C33   H29   1.080440 S    
C9    C43   1.405708 A    
C23   H9    1.083367 S    
C38   C52   1.521104 S    
C14   C48   1.409600 A    
C24   H10   1.083300 S    
C33   C43   1.406622 A    
N2    O19   1.301580 A    
C30   C32   1.382249 A    
C26   C28   1.379350 A    
C31   H13   1.083371 S    
O13   C57   1.292736 A    
C32   H14   1.083298 S    
O14   Zn4   2.030860 S    
C54   C56   1.448259 S    
C28   C50   1.397270 A    
C29   C39   1.409303 A    
C27   C49   1.397362 A    
C27   H11   1.083317 S    
C30   C40   1.409244 A    
C19   C53   1.397770 A    
O12   Zn3   2.027429 S    
C22   C52   1.407210 A    
C13   C47   1.409645 A    
C29   C31   1.382248 A    
C36   N2    1.436712 S    
O6    Zn2   2.043500 S    
C37   C43   1.521904 S    
C49   C57   1.447199 S    
C35   N1    1.436726 S    
C36   C46   1.413695 A    
O1    C1    1.290129 A    
O16   Zn3   2.041559 S    
O16   C56   1.294371 A    
C10   C44   1.405624 A    
O3    Zn2   2.042128 S    
O9    Zn3   2.047051 S    
C35   C45   1.413846 A    
C26   H26   1.082872 S    
C34   C44   1.406584 A    
C7    C41   1.397719 A    
C9    H17   1.082882 S    
C24   C54   1.398305 A    
C9    C11   1.379829 A    
C10   C12   1.379771 A    
C53   C55   1.448274 S    
O1    Zn1   2.034232 S    
C20   H8    1.083241 S    
O2    C2    1.290117 A    
C31   C41   1.398317 A    
C25   C47   1.408648 A    
C2    C41   1.448553 S    
C5    C7    1.382181 A    
C4    C46   1.453931 S    
C26   C48   1.408622 A    
O8    C2    1.290447 A    
C3    C45   1.454062 S    
C32   C42   1.398181 A    
C8    C42   1.397631 A    
O13   Zn3   2.030860 S    
O14   C58   1.292722 A    
O12   C58   1.292019 A    
C38   C44   1.522048 S    
C38   C48   1.522726 S    
C22   H24   1.082953 S    
O10   C56   1.290961 A    
C34   H30   1.080283 S    
C14   C16   1.383167 A    
C15   H5    1.083331 S    
C20   C54   1.397681 A    
N1    O17   1.301526 A    
O6    C4    1.288584 A    
C17   C19   1.384777 A    
C22   C24   1.379134 A    
C7    H1    1.083310 S    
C18   C20   1.384799 A    
C8    H2    1.083235 S    
C50   C58   1.447140 S    
C11   H3    1.083465 S    
O2    Zn2   2.034230 S    
O3    C3    1.293850 A    
C13   H19   1.081024 S    
C6    C8    1.382209 A    
C5    C39   1.408931 A    
C6    C40   1.408861 A    
C6    H16   1.083018 S    
C30   H28   1.081083 S    
C18   C52   1.410556 A    
