data_mof_unit_7816.cif
_audit_creation_date              2012-12-10T17:18:55-0500
_audit_creation_method            fapswitch 2.2
_symmetry_space_group_name_H-M    P1
_symmetry_Int_Tables_number       1
_space_group_crystal_system       triclinic
_cell_length_a                    10.187563
_cell_length_b                    10.800047
_cell_length_c                    13.508369
_cell_angle_alpha                 92.449759
_cell_angle_beta                  99.671961
_cell_angle_gamma                 96.234904
_cell_volume                      1453.65784117

loop_
_atom_site_label
_atom_site_type_symbol
_atom_type_description
_atom_site_fract_x
_atom_site_fract_y
_atom_site_fract_z
_atom_type_partial_charge
C1    C     C_R   0.054652 0.732839 0.496246 0.930137
C2    C     C_2   0.025273 0.069375 0.531161 -0.140726
C3    C     C_2   0.430796 0.512739 0.507363 -0.101065
C4    C     C_2   0.569242 0.488535 0.491140 -0.114910
C5    C     C_R   0.094692 0.519416 0.686497 0.892322
C6    C     C_R   0.906980 0.484975 0.313811 0.912800
C7    C     C_R   0.146543 0.539490 0.795459 -0.231529
C8    C     C_R   0.857288 0.467923 0.205615 -0.236634
C9    C     C_R   0.122750 0.570888 0.970942 -0.243181
C10   C     C_R   0.840699 0.358209 0.043086 -0.247805
C11   C     C_R   0.064981 0.558989 0.868786 -0.070124
C12   C     C_R   0.947735 0.267690 0.509229 0.938111
C13   C     C_R   0.908593 0.386191 0.141341 -0.077974
C14   C     C_R   0.284794 0.539729 0.827218 0.420696
C15   C     C_R   0.744101 0.525428 0.168620 0.384594
C16   C     C_R   0.333711 0.520833 0.927775 -0.043298
C17   C     C_R   0.660825 0.475821 0.079409 -0.017962
C18   C     C_R   0.257541 0.551225 0.001668 0.044158
C19   C     C_R   0.714868 0.399529 0.011666 0.036904
C20   C     C_R   0.459844 0.478602 0.955642 0.037699
C21   C     C_R   0.526067 0.500721 0.055576 0.057506
C22   C     C_1   0.251750 0.604024 0.182294 0.142012
C23   C     C_R   0.452419 0.538218 0.129446 -0.197047
C24   C     C_1   0.689124 0.287036 0.842663 0.159226
C25   C     C_3   0.798193 0.734787 0.204583 0.090428
C26   C     C_3   0.768081 0.846769 0.266435 -0.316907
C27   C     C_3   0.860076 0.964446 0.254379 -0.939867
C28   C     C_3   0.441619 0.684026 0.778915 0.082453
C29   C     C_3   0.357137 0.780371 0.727896 -0.385855
C30   C     C_3   0.435826 0.910174 0.739109 -0.932072
C31   C     C_1   0.027675 0.327088 0.174102 0.227163
C32   C     C_1   0.924810 0.575189 0.842368 0.228273
C33   C     C_R   0.516140 0.406894 0.887309 -0.195099
C34   C     C_R   0.319182 0.561675 0.103458 -0.013110
C35   C     C_R   0.640371 0.364563 0.915288 -0.000083
C36   C     C_2   0.090092 0.866157 0.503639 -0.389385
C37   C     C_2   0.921903 0.136471 0.523837 -0.373551
C38   C     C_2   0.002856 0.936918 0.533639 -0.150200
H1    H     H_    0.060954 0.591690 0.026086 0.160554
H2    H     H_    0.421556 0.588647 0.559847 0.178802
H3    H     H_    0.664734 0.623925 0.589526 0.161708
H4    H     H_    0.335166 0.374968 0.411442 0.167843
H5    H     H_    0.779865 0.754379 0.123373 0.138207
H6    H     H_    0.905793 0.721881 0.228312 0.135226
H7    H     H_    0.662082 0.863323 0.241855 0.222635
H8    H     H_    0.781951 0.826335 0.347219 0.240700
H9    H     H_    0.966449 0.951076 0.281416 0.274350
H10   H     H_    0.834630 0.043994 0.299467 0.266270
H11   H     H_    0.847338 0.987458 0.174224 0.263033
H12   H     H_    0.883091 0.298349 0.993449 0.166667
H13   H     H_    0.534940 0.685261 0.746464 0.165302
H14   H     H_    0.473983 0.710942 0.860708 0.140046
H15   H     H_    0.325722 0.752370 0.646644 0.235598
H16   H     H_    0.265651 0.784388 0.761995 0.214849
H17   H     H_    0.466679 0.941280 0.819928 0.268912
H18   H     H_    0.371839 0.977476 0.701594 0.268711
H19   H     H_    0.526393 0.909667 0.703423 0.262143
H20   H     H_    0.493946 0.541660 0.208735 0.202032
H21   H     H_    0.459868 0.376173 0.813426 0.194873
H22   H     H_    0.126699 0.110801 0.528179 0.191042
H23   H     H_    0.908651 0.897193 0.553535 0.187731
H24   H     H_    0.820706 0.094542 0.526632 0.154115
H25   H     H_    0.183969 0.906287 0.483642 0.156960
H26   H     H_    0.578624 0.413843 0.437368 0.160517
N1    N     N_2   0.322180 0.446120 0.460900 -0.185224
N2    N     N_2   0.677820 0.553880 0.539100 -0.181213
N3    N     N_1   0.198442 0.639187 0.245381 -0.195015
N4    N     N_1   0.728068 0.225175 0.784454 -0.209005
N5    N     N_1   0.123069 0.279652 0.200193 -0.216924
N6    N     N_1   0.812675 0.588975 0.821294 -0.227179
O1    O     O_R   0.935190 0.693030 0.507870 -0.614446
O2    O     O_3   0.372669 0.561839 0.759845 -0.644235
O3    O     O_R   0.064810 0.306970 0.492130 -0.611429
O4    O     O_R   0.142080 0.658430 0.482770 -0.612316
O5    O     O_R   0.857920 0.341570 0.517230 -0.607165
O6    O     O_R   0.969700 0.527180 0.651960 -0.607096
O7    O     O_R   0.030300 0.472820 0.348040 -0.596343
O8    O     O_R   0.176600 0.492580 0.626860 -0.552025
O9    O     O_R   0.823400 0.507420 0.373140 -0.567590
O10   O     O_3   0.713360 0.628254 0.221473 -0.647660
Zn1   Zn    Zn3+2 0.861850 0.523100 0.516760 0.961153
Zn2   Zn    Zn3+2 0.138150 0.476900 0.483240 0.968786

loop_
_geom_bond_atom_site_label_1
_geom_bond_atom_site_label_2
_ccdc_geom_bond_type
C27   H10   S    
C23   H20   S    
C8    C13   A    
C25   O10   S    
C25   H5    S    
C37   H24   S    
N1    Zn2   S    
C3    N1    D    
C7    C11   A    
C26   C27   S    
C1    O1    A    
C1    O4    A    
C28   C29   S    
C28   H13   S    
C2    H22   S    
C29   H16   S    
C30   H19   S    
C9    H1    S    
C12   C37   S    
O8    Zn2   S    
C26   H7    S    
C33   C35   A    
C7    C14   A    
H4    N1    S    
C36   H25   S    
C38   H23   S    
C33   H21   S    
C12   O3    A    
C28   O2    S    
O4    Zn2   S    
C25   H6    S    
C22   C34   S    
C24   C35   S    
C5    C7    S    
C26   H8    S    
O5    Zn1   S    
C6    O7    A    
C32   N6    T    
C25   C26   S    
C30   H18   S    
C17   C21   A    
C29   C30   S    
C18   C34   A    
C2    C38   S    
C15   O10   S    
C10   C19   A    
C16   C20   A    
C23   C34   A    
C9    C11   A    
C20   C33   A    
C11   C32   S    
C8    C15   A    
C21   C23   A    
C14   C16   A    
C3    C4    S    
C10   H12   S    
O3    Zn2   S    
O9    Zn1   S    
C27   H9    S    
C15   C17   A    
C14   O2    S    
C13   C31   S    
C10   C13   A    
O6    Zn1   S    
C3    H2    S    
C6    C8    S    
H3    N2    S    
C30   H17   S    
C4    H26   S    
C5    O6    A    
C36   C38   D    
C19   C35   A    
N2    Zn1   S    
C4    N2    D    
C28   H14   S    
C2    C37   D    
C6    O9    A    
C29   H15   S    
O7    Zn2   S    
C17   C19   A    
C22   N3    T    
C24   N4    T    
C9    C18   A    
C31   N5    T    
C20   C21   A    
C16   C18   A    
C12   O5    A    
C5    O8    A    
C27   H11   S    
C1    C36   S    
O1    Zn1   S    
