data_mof_unit_14620.cif
_audit_creation_date              2013-03-05T16:12:13-0500
_audit_creation_method            fapswitch 2.2
_symmetry_space_group_name_H-M    P1
_symmetry_Int_Tables_number       1
_space_group_crystal_system       triclinic
_cell_length_a                    10.741824
_cell_length_b                    9.555154
_cell_length_c                    27.734145
_cell_angle_alpha                 89.97625
_cell_angle_beta                  88.24662
_cell_angle_gamma                 90.364202
_cell_volume                      2845.23577576

loop_
_atom_site_label
_atom_site_type_symbol
_atom_site_description
_atom_site_fract_x
_atom_site_fract_y
_atom_site_fract_z
_atom_type_partial_charge
O1    O     O_R   0.317570 0.620260 0.500030 -0.598310
O2    O     O_R   0.317570 0.379740 0.500030 -0.589301
C1    C     C_R   0.259879 0.499829 0.500216 0.755919
O3    O     O_R   0.499900 0.620250 0.430280 -0.590045
O4    O     O_R   0.499900 0.379750 0.430280 -0.590443
C2    C     C_R   0.500293 0.499982 0.407742 0.796039
Cu1   Cu    Cu3+1 0.499860 0.642410 0.500020 0.904631
Cu2   Cu    Cu3+1 0.499860 0.357590 0.500020 0.904151
O5    O     O_R   0.682190 0.620260 0.500010 -0.597480
O6    O     O_R   0.682190 0.379740 0.500010 -0.598967
O7    O     O_R   0.499860 0.620280 0.569750 -0.569132
O8    O     O_R   0.499860 0.379720 0.569750 -0.582795
C3    C     C_R   0.739532 0.500286 0.500011 0.747825
C4    C     C_R   0.500860 0.500123 0.591967 0.796763
C5    C     C_R   0.451951 0.387267 0.178218 0.543873
O9    O     O_2   0.391249 0.287367 0.204229 -0.509474
N1    N     N_R   0.506490 0.496535 0.201780 -0.470029
C6    C     C_R   0.562991 0.604196 0.176893 0.524518
C7    C     C_R   0.556265 0.386179 0.279042 -0.102289
C8    C     C_R   0.553462 0.386241 0.329289 -0.230453
C9    C     C_R   0.451559 0.612110 0.329577 -0.234831
C10   C     C_R   0.451807 0.610423 0.279303 -0.096508
C11   C     C_R   0.504797 0.497791 0.253689 0.342664
C12   C     C_R   0.510993 0.493854 0.101155 -0.095761
C13   C     C_R   0.456874 0.380463 0.127244 -0.059717
C14   C     C_R   0.407486 0.266079 0.101588 0.272222
C15   C     C_R   0.563706 0.606514 0.126403 0.004598
C16   C     C_R   0.501714 0.499560 0.354876 -0.036817
H1    H     H_    0.410456 0.700134 0.348678 0.144376
H2    H     H_    0.410732 0.696672 0.260215 0.149228
C17   C     C_R   0.504151 0.500740 0.644184 0.005352
C18   C     C_R   0.475894 0.376146 0.973259 0.076403
C19   C     C_R   0.552993 0.619330 0.973332 0.003761
C20   C     C_R   0.514915 0.498809 0.947866 0.064111
C21   C     C_R   0.448483 0.254719 0.946374 -0.223607
C22   C     C_R   0.451648 0.256433 0.896382 -0.166364
C23   C     C_R   0.483025 0.378706 0.871136 0.005864
C24   C     C_R   0.515518 0.500717 0.896582 -0.099779
C25   C     C_R   0.547922 0.624110 0.870701 -0.058747
C26   C     C_R   0.543230 0.621793 0.819773 0.535848
N2    N     N_R   0.512716 0.501252 0.796246 -0.469315
C27   C     C_R   0.483366 0.380992 0.820683 0.525414
C28   C     C_R   0.395682 0.493820 0.721750 -0.155916
C29   C     C_R   0.392819 0.494780 0.671551 -0.201303
C30   C     C_R   0.618519 0.508298 0.666885 -0.260568
C31   C     C_R   0.621403 0.508959 0.717106 -0.122773
C32   C     C_R   0.509954 0.501329 0.744648 0.354778
O10   O     O_2   0.454630 0.263817 0.796093 -0.567250
C33   C     C_R   0.466519 0.378244 0.024484 0.002389
C34   C     C_R   0.512650 0.495208 0.049856 0.064869
C35   C     C_R   0.560406 0.613923 0.024373 0.074993
C36   C     C_R   0.411501 0.267142 0.051230 -0.278521
H3    H     H_    0.304121 0.489799 0.654019 0.137714
H4    H     H_    0.309314 0.488435 0.742854 0.132198
H5    H     H_    0.428669 0.160858 0.877528 0.182871
H6    H     H_    0.427051 0.154968 0.962843 0.134534
H7    H     H_    0.368360 0.179015 0.034026 0.140426
O11   O     O_2   0.619121 0.708590 0.200996 -0.555268
C37   C     C_R   0.617554 0.718657 0.100883 -0.170047
H8    H     H_    0.593502 0.298811 0.348121 0.143794
H9    H     H_    0.598493 0.299231 0.259743 0.147063
H10   H     H_    0.660967 0.804990 0.119476 0.183118
C38   C     C_R   0.581488 0.742236 0.946901 -0.283225
C39   C     C_R   0.580947 0.745577 0.896574 0.271237
O12   O     O_2   0.566886 0.738749 0.793738 -0.529663
C40   C     C_R   0.615644 0.722838 0.050944 -0.222002
H11   H     H_    0.602967 0.839708 0.964417 0.137586
H12   H     H_    0.704944 0.513688 0.645758 0.118803
H13   H     H_    0.709921 0.514730 0.734672 0.131458
H14   H     H_    0.661751 0.811533 0.034154 0.139437
C41   C     C_3   0.068454 0.611031 0.535978 -0.382197
C42   C     C_3   0.067856 0.356001 0.515652 -0.389679
H15   H     H_    0.097501 0.717299 0.523545 0.161318
H16   H     H_    0.108933 0.269936 0.493442 0.164332
H17   H     H_    0.105255 0.593317 0.572546 0.148580
H18   H     H_    0.090007 0.339990 0.553953 0.175638
C43   C     C_3   0.925002 0.604066 0.538562 -0.386696
C44   C     C_3   0.926233 0.352390 0.511785 -0.384789
H19   H     H_    0.892534 0.569409 0.575182 0.146349
H20   H     H_    0.883334 0.313298 0.546348 0.152977
H21   H     H_    0.887463 0.710834 0.532703 0.160228
H22   H     H_    0.900848 0.277523 0.482877 0.165134
H23   H     H_    0.116356 0.637286 0.436361 0.155647
H24   H     H_    0.107257 0.453785 0.423006 0.159944
H25   H     H_    0.903289 0.653650 0.441462 0.162500
H26   H     H_    0.894544 0.475484 0.421302 0.151178
C45   C     C_3   0.075683 0.535824 0.449017 -0.378406
C46   C     C_3   0.121303 0.500348 0.500055 0.166999
C47   C     C_3   0.877418 0.500625 0.500051 0.175403
C48   C     C_3   0.931776 0.544708 0.449810 -0.374590
C49   C     C_3   0.619406 0.082276 0.517691 -0.204215
C50   C     C_3   0.623409 0.917417 0.512882 -0.201621
H27   H     H_    0.639327 0.114310 0.554710 0.121091
H28   H     H_    0.663942 0.865079 0.543999 0.137572
H29   H     H_    0.698638 0.125235 0.495529 0.144748
H30   H     H_    0.692717 0.891477 0.483556 0.134633
C51   C     C_3   0.392561 0.080818 0.530921 -0.010425
C52   C     C_3   0.400309 0.914997 0.534457 -0.013663
C53   C     C_3   0.485614 0.083473 0.451648 -0.223635
C54   C     C_3   0.475447 0.916993 0.452370 -0.233232
N3    N     N_3   0.500250 0.143650 0.501060 -0.134506
N4    N     N_3   0.500250 0.856350 0.501060 -0.135971
H31   H     H_    0.401659 0.127472 0.434844 0.150057
H32   H     H_    0.381738 0.883819 0.440486 0.133740
H33   H     H_    0.565903 0.115475 0.427702 0.148226
H34   H     H_    0.542799 0.874888 0.424886 0.163042
H35   H     H_    0.309250 0.100033 0.508765 0.085056
H36   H     H_    0.310973 0.877716 0.519423 0.090634
N5    N     N_2   0.614358 0.872839 0.872645 -0.368507
H37   H     H_    0.578129 0.960558 0.889443 0.238890
C55   C     C_3   0.746499 0.887779 0.862088 -0.603601
H38   H     H_    0.798216 0.895088 0.896119 0.195197
H39   H     H_    0.763912 0.984695 0.840759 0.227118
H40   H     H_    0.781605 0.797315 0.840607 0.238029
C56   C     C_R   0.350763 0.145370 0.580110 0.180034
C57   C     C_R   0.429699 0.161270 0.619776 -0.087738
C58   C     C_R   0.381372 0.179389 0.666706 -0.118822
C59   C     C_R   0.253318 0.186302 0.675433 -0.102807
C60   C     C_R   0.173144 0.171026 0.637350 -0.159922
C61   C     C_R   0.221115 0.146876 0.590741 -0.220637
H41   H     H_    0.529069 0.154295 0.615842 0.108810
H42   H     H_    0.443970 0.188314 0.696408 0.181440
H43   H     H_    0.216364 0.201476 0.711781 0.142737
H44   H     H_    0.073410 0.171487 0.644199 0.126307
H45   H     H_    0.155785 0.118347 0.563451 0.100286
C62   C     C_R   0.393839 0.860507 0.587272 0.196453
C63   C     C_R   0.493139 0.870914 0.619750 -0.120020
C64   C     C_R   0.473730 0.845963 0.669108 -0.117228
C65   C     C_R   0.355195 0.813074 0.687558 -0.066098
C66   C     C_R   0.256641 0.798921 0.656461 -0.162046
C67   C     C_R   0.275733 0.821758 0.607054 -0.166363
H46   H     H_    0.583009 0.911420 0.609325 0.084416
H47   H     H_    0.550055 0.857951 0.693392 0.167807
H48   H     H_    0.339901 0.797684 0.725951 0.152369
H49   H     H_    0.164381 0.773571 0.670776 0.125010
H50   H     H_    0.195075 0.821022 0.584948 0.097279
N6    N     N_2   0.354794 0.147236 0.125772 -0.374295
H51   H     H_    0.274619 0.110351 0.110451 0.243523
C68   C     C_3   0.442951 0.036269 0.133636 -0.594864
H52   H     H_    0.396850 0.951032 0.154924 0.233185
H53   H     H_    0.523223 0.075951 0.154090 0.243099
H54   H     H_    0.477164 0.992770 0.098537 0.195430

loop_
_geom_bond_atom_site_label_1
_geom_bond_atom_site_label_2
_geom_bond_distance
_ccdc_geom_bond_type
H23   C45   1.113075 S    
C45   C46   1.550107 S    
C62   C63   1.420042 A    
C41   C43   1.541429 S    
N2    C27   1.364107 A    
C53   H31   1.112472 S    
C21   C22   1.385952 A    
C12   C15   1.409563 A    
C54   H32   1.112964 S    
C4    C17   1.449717 S    
C42   H18   1.106435 S    
C14   N6    1.423965 S    
C64   C65   1.391671 A    
C51   C52   1.590298 S    
Cu1   Cu2   2.721498 S    
C40   H14   1.077306 S    
C30   C31   1.394136 A    
Cu1   O7    1.945341 S    
C25   C39   1.413818 A    
N6    C68   1.446989 S    
C43   C47   1.551405 S    
N1    C11   1.439269 S    
C22   C23   1.395975 A    
C58   H42   1.082240 S    
C37   C40   1.386352 A    
O4    C2    1.307575 A    
O7    C4    1.303048 A    
C44   H20   1.114109 S    
C5    C13   1.414614 A    
C56   C57   1.416997 A    
C50   H30   1.114747 S    
C52   H36   1.114405 S    
C57   C58   1.397667 A    
C5    N1    1.369872 A    
C23   C27   1.399330 A    
O5    C3    1.304817 A    
C63   H46   1.069299 S    
C31   H13   1.082691 S    
C42   C44   1.528516 S    
C59   C60   1.390243 A    
C29   H3    1.083633 S    
C6    O11   1.350167 S    
C2    C16   1.465810 S    
C66   H49   1.082238 S    
Cu1   N4    2.044425 S    
H24   C45   1.113011 S    
C8    H8    1.083344 S    
Cu2   N3    2.044454 S    
Cu2   O8    1.945515 S    
C21   H6    1.077265 S    
O1    Cu1   1.968186 S    
C9    C10   1.394349 A    
C49   N3    1.496795 S    
O3    Cu1   1.945809 S    
C54   N4    1.501199 S    
C42   C46   1.547043 S    
C34   C35   1.420964 A    
C43   H19   1.113255 S    
C44   C47   1.551314 S    
C12   C34   1.422373 A    
C53   H33   1.113453 S    
H25   C48   1.113121 S    
C38   H11   1.077576 S    
C17   C29   1.397533 A    
C18   C21   1.413726 A    
C12   C13   1.414562 A    
C42   H16   1.113008 S    
C67   H50   1.076578 S    
H26   C48   1.113104 S    
C49   C50   1.581696 S    
C41   H15   1.111938 S    
C61   H45   1.081604 S    
C8    C16   1.403259 A    
C13   C14   1.413742 A    
C60   H44   1.082332 S    
C9    H1    1.083408 S    
C38   C39   1.396302 A    
O1    C1    1.303450 A    
C35   C40   1.413420 A    
C18   C20   1.421403 A    
C7    C11   1.402897 A    
C28   C29   1.393537 A    
C23   C24   1.410530 A    
C14   C36   1.396030 A    
C49   H27   1.098371 S    
C44   H22   1.113655 S    
C28   H4    1.082628 S    
C53   C54   1.593863 S    
C43   H21   1.113052 S    
C19   C38   1.411110 A    
C33   C36   1.411036 A    
C30   H12   1.083477 S    
C50   H28   1.099924 S    
N1    C6    1.367051 A    
N2    C32   1.432244 S    
C55   H39   1.110423 S    
C27   O10   1.350214 S    
C60   C61   1.396680 A    
C41   C46   1.551536 S    
O3    C2    1.308376 A    
C26   N2    1.367014 A    
C53   N3    1.498684 S    
C9    C16   1.403197 A    
O8    C4    1.305443 A    
C56   C61   1.414836 A    
C26   O12   1.348815 S    
C51   C56   1.552374 S    
C63   C64   1.398508 A    
C25   C26   1.415048 A    
C65   C66   1.391756 A    
Cu1   O5    1.971288 S    
C31   C32   1.401743 A    
C37   H10   1.083542 S    
C10   H2    1.082891 S    
C55   H38   1.111735 S    
C3    C47   1.481164 S    
C1    C46   1.488741 S    
C20   C24   1.422263 A    
O2    Cu2   1.970861 S    
C6    C15   1.400273 A    
O6    C3    1.302732 A    
O4    Cu2   1.945634 S    
C68   H52   1.110740 S    
C50   N4    1.488313 S    
C19   C35   1.421162 A    
N6    H51   1.032054 S    
C54   H34   1.111986 S    
C7    C8    1.392954 A    
N5    C55   1.446664 S    
O2    C1    1.307522 A    
C22   H5    1.083411 S    
C15   C37   1.396473 A    
C58   C59   1.391343 A    
C41   H17   1.112990 S    
C68   H53   1.111320 S    
C39   N5    1.423775 S    
C24   C25   1.416084 A    
C62   C67   1.413816 A    
C7    H9    1.082949 S    
C68   H54   1.111649 S    
C19   C20   1.415867 A    
C66   C67   1.396177 A    
C55   H40   1.111365 S    
C59   H43   1.082200 S    
C18   C33   1.421331 A    
C36   H7    1.077225 S    
C52   N4    1.507215 S    
C49   H29   1.110851 S    
C65   H48   1.082255 S    
C51   H35   1.117064 S    
C52   C62   1.553757 S    
Cu2   O6    1.968613 S    
C33   C34   1.415874 A    
C17   C30   1.398968 A    
C45   C48   1.548174 S    
N5    H37   1.031699 S    
C10   C11   1.403764 A    
C57   H41   1.072152 S    
C47   C48   1.551273 S    
C64   H47   1.082401 S    
C28   C32   1.400648 A    
C51   N3    1.522029 S    
C5    O9    1.348883 S    
