data_mof_unit_45541.cif
_audit_creation_date              2012-12-11T17:12:45-0500
_audit_creation_method            fapswitch 2.2
_symmetry_space_group_name_H-M    P1
_symmetry_Int_Tables_number       1
_space_group_crystal_system       triclinic
_cell_length_a                    17.32261
_cell_length_b                    6.882124
_cell_length_c                    14.392399
_cell_angle_alpha                 90.0
_cell_angle_beta                  110.351616
_cell_angle_gamma                 89.999986
_cell_volume                      1608.7016165

loop_
_atom_site_label
_atom_site_type_symbol
_atom_type_description
_atom_site_fract_x
_atom_site_fract_y
_atom_site_fract_z
_atom_type_partial_charge
O1    O     O_R   0.314130 0.635770 0.168990 -0.533422
O2    O     O_R   0.685870 0.364230 0.831010 -0.533423
O3    O     O_R   0.185870 0.135770 0.331010 -0.533423
O4    O     O_R   0.814130 0.864230 0.668990 -0.533422
O5    O     O_R   0.146800 0.302460 0.139760 -0.526226
O6    O     O_R   0.853200 0.697540 0.860240 -0.526225
O7    O     O_R   0.353200 0.802460 0.360240 -0.526225
O8    O     O_R   0.646800 0.197540 0.639760 -0.526226
C1    C     C_R   0.114000 0.475834 0.112769 0.738803
C2    C     C_R   0.886000 0.524166 0.887231 0.738805
C3    C     C_R   0.386000 0.975834 0.387231 0.738804
C4    C     C_R   0.614000 0.024166 0.612769 0.738803
O9    O     O_R   0.311100 0.305780 0.157130 -0.546442
O10   O     O_R   0.688900 0.694220 0.842870 -0.546442
O11   O     O_R   0.188900 0.805780 0.342870 -0.546442
O12   O     O_R   0.811100 0.194220 0.657130 -0.546442
O13   O     O_R   0.351340 0.139640 0.348510 -0.541214
O14   O     O_R   0.648660 0.860360 0.651490 -0.541213
O15   O     O_R   0.148660 0.639640 0.151490 -0.541213
O16   O     O_R   0.851340 0.360360 0.848510 -0.541213
C5    C     C_R   0.334506 0.473751 0.137831 0.727901
C6    C     C_R   0.665494 0.526249 0.862169 0.727900
C7    C     C_R   0.165493 0.973751 0.362169 0.727902
C8    C     C_R   0.834506 0.026249 0.637831 0.727902
C9    C     C_1   0.533566 0.008914 0.533041 -0.138818
C10   C     C_1   0.466434 0.991086 0.466959 -0.138817
C11   C     C_1   0.966434 0.508914 0.966959 -0.138818
C12   C     C_1   0.033566 0.491086 0.033041 -0.138818
O17   O     O_3   0.263010 0.470920 0.312770 -0.370310
O18   O     O_3   0.736990 0.529080 0.687230 -0.370310
O19   O     O_3   0.236990 0.970920 0.187230 -0.370310
O20   O     O_3   0.763010 0.029080 0.812770 -0.370310
V1    V     V_3+5 0.247590 0.194450 0.238360 1.503152
V2    V     V_3+5 0.752410 0.805550 0.761640 1.503152
V3    V     V_3+5 0.252410 0.694450 0.261640 1.503152
V4    V     V_3+5 0.747590 0.305550 0.738360 1.503152
C13   C     C_R   0.113327 0.973998 0.424871 -0.136296
C14   C     C_R   0.886674 0.026002 0.575129 -0.136296
C15   C     C_R   0.386674 0.473998 0.075129 -0.136296
C16   C     C_R   0.613327 0.526002 0.924871 -0.136296
C17   C     C_R   0.921879 0.191680 0.446025 -0.116584
C18   C     C_R   0.078121 0.808321 0.553975 -0.116584
C19   C     C_R   0.578120 0.691681 0.053974 -0.116584
C20   C     C_R   0.421880 0.308318 0.946026 -0.116584
C21   C     C_R   0.870897 0.168494 0.501257 -0.145726
C22   C     C_R   0.129104 0.831506 0.498743 -0.145725
C23   C     C_R   0.629103 0.668495 0.998742 -0.145724
C24   C     C_R   0.370897 0.331504 0.001258 -0.145725
C25   C     C_R   0.954927 0.900229 0.592198 -0.054212
C26   C     C_R   0.045073 0.099771 0.407802 -0.054212
C27   C     C_R   0.545073 0.400228 0.907803 -0.054212
C28   C     C_R   0.454927 0.599772 0.092197 -0.054213
C29   C     C_R   0.008058 0.925562 0.536575 0.070938
C30   C     C_R   0.991942 0.074438 0.463425 0.070938
C31   C     C_R   0.491942 0.425561 0.963425 0.070938
C32   C     C_R   0.508058 0.574439 0.036575 0.070937
H1    H     H_    0.181463 0.735004 0.513535 0.137153
H2    H     H_    0.818537 0.264997 0.486465 0.137153
H3    H     H_    0.318538 0.235001 0.986466 0.137154
H4    H     H_    0.681462 0.764999 0.013534 0.137154
H5    H     H_    0.905688 0.303795 0.389883 0.144954
H6    H     H_    0.094312 0.696206 0.610117 0.144955
H7    H     H_    0.594311 0.803797 0.110115 0.144955
H8    H     H_    0.405690 0.196202 0.889885 0.144954
C33   C     C_2   0.027771 0.251565 0.330001 0.725531
O21   O     O_2   0.011617 0.204872 0.243320 -0.568419
O22   O     O_R   0.030290 0.447609 0.356335 -0.660574
H9    H     H_    0.018155 0.537520 0.297154 0.289809
C34   C     C_2   0.972229 0.748434 0.669999 0.725530
O23   O     O_2   0.988381 0.795127 0.756680 -0.568418
O24   O     O_R   0.969712 0.552391 0.643665 -0.660575
H10   H     H_    0.981848 0.462481 0.702847 0.289809
C35   C     C_2   0.472229 0.751567 0.169998 0.725529
O25   O     O_2   0.488382 0.704874 0.256680 -0.568418
O26   O     O_R   0.469711 0.947611 0.143664 -0.660575
H11   H     H_    0.481846 0.037522 0.202846 0.289809
C36   C     C_2   0.527772 0.248433 0.830002 0.725530
O27   O     O_2   0.511616 0.295126 0.743320 -0.568418
O28   O     O_R   0.530291 0.052389 0.856336 -0.660574
H12   H     H_    0.518156 0.962478 0.797155 0.289809

loop_
_geom_bond_atom_site_label_1
_geom_bond_atom_site_label_2
_ccdc_geom_bond_type
C2    C11   S    
C16   C23   A    
C31   C32   A    
O1    C5    A    
C35   O25   D    
O3    C7    A    
C17   H5    S    
C19   H7    S    
C14   C25   A    
C36   O27   D    
C20   H8    S    
O7    C3    A    
O5    C1    A    
C26   C30   A    
O20   V4    S    
C18   C29   A    
O8    V4    S    
O4    C8    A    
O3    V1    S    
O17   V1    S    
C18   C22   A    
C34   O24   S    
C14   C21   A    
C23   H4    S    
C1    O15   A    
C2    O16   A    
C33   O22   S    
O5    V1    S    
O2    C6    A    
C8    C14   S    
O19   V1    S    
C18   H6    S    
O11   C7    A    
C15   C28   A    
O12   C8    A    
C25   C34   S    
C35   O26   S    
O13   V1    S    
O11   V3    S    
C36   O28   S    
O4    V2    S    
C21   H2    S    
O18   V2    S    
O22   H9    S    
C28   C35   S    
C3    C10   S    
C9    C10   T    
C7    C13   S    
O6    V2    S    
O20   V2    S    
O26   H11   S    
C27   C36   S    
O9    V1    S    
C5    C15   S    
O8    C4    A    
C6    C16   S    
O9    C5    A    
O14   V2    S    
C22   H1    S    
O19   V3    S    
O1    V3    S    
C24   H3    S    
O2    V4    S    
C3    O13   A    
O7    V3    S    
O10   V2    S    
C29   C30   A    
C16   C27   A    
O17   V3    S    
O18   V4    S    
C4    C9    S    
O10   C6    A    
O24   H10   S    
O15   V3    S    
O12   V4    S    
C13   C26   A    
C20   C31   A    
C25   C29   A    
C27   C31   A    
C34   O23   D    
C26   C33   S    
C17   C30   A    
O6    C2    A    
O28   H12   S    
O16   V4    S    
C20   C24   A    
C19   C32   A    
C33   O21   D    
C4    O14   A    
C11   C12   T    
C17   C21   A    
C13   C22   A    
C19   C23   A    
C28   C32   A    
C1    C12   S    
C15   C24   A    
