data_mof_unit_47202.cif
_audit_creation_date              2012-12-11T14:15:04-0500
_audit_creation_method            fapswitch 2.2
_symmetry_space_group_name_H-M    P1
_symmetry_Int_Tables_number       1
_space_group_crystal_system       triclinic
_cell_length_a                    24.466601
_cell_length_b                    17.35535
_cell_length_c                    15.487616
_cell_angle_alpha                 89.999975
_cell_angle_beta                  128.692182
_cell_angle_gamma                 90.0
_cell_volume                      5133.02334472

loop_
_atom_site_label
_atom_site_type_symbol
_atom_type_description
_atom_site_fract_x
_atom_site_fract_y
_atom_site_fract_z
_atom_type_partial_charge
C1    C     C_R   0.350792 0.360755 0.244305 -0.052677
C2    C     C_R   0.654725 0.669009 0.497505 0.064455
C3    C     C_R   0.845275 0.169009 0.502495 0.064455
C4    C     C_R   0.154725 0.169009 0.497505 0.064456
C5    C     C_R   0.350950 0.617143 0.129816 0.008281
C6    C     C_R   0.649050 0.617142 0.870184 0.008281
C7    C     C_R   0.850950 0.117143 0.129816 0.008280
C8    C     C_R   0.149050 0.117142 0.870184 0.008280
C9    C     C_2   0.657582 0.790570 0.425834 -0.199949
C10   C     C_2   0.342418 0.790571 0.574166 -0.199949
C11   C     C_2   0.157582 0.290571 0.425834 -0.199949
C12   C     C_R   0.649208 0.360755 0.755695 -0.052679
C13   C     C_2   0.842418 0.290571 0.574166 -0.199949
C14   C     C_2   0.693331 0.730510 0.494486 0.016488
C15   C     C_2   0.306669 0.730510 0.505514 0.016488
C16   C     C_2   0.193331 0.230510 0.494486 0.016488
C17   C     C_2   0.806669 0.230510 0.505514 0.016488
C18   C     C_2   0.192393 0.350855 0.409359 0.126007
C19   C     C_2   0.807607 0.350855 0.590641 0.126008
C20   C     C_2   0.692393 0.850855 0.409359 0.126007
C21   C     C_2   0.307607 0.850855 0.590641 0.126008
C22   C     C_2   0.254896 0.376739 0.498272 -0.206994
C23   C     C_R   0.850792 0.860755 0.244305 -0.052678
C24   C     C_2   0.745104 0.376739 0.501728 -0.206994
C25   C     C_2   0.754896 0.876739 0.498272 -0.206994
C26   C     C_2   0.245104 0.876739 0.501728 -0.206994
C27   C     C_2   0.638448 0.241433 0.842249 -0.076445
C28   C     C_2   0.361552 0.241433 0.157750 -0.076445
C29   C     C_2   0.138448 0.741432 0.842249 -0.076446
C30   C     C_2   0.861552 0.741433 0.157750 -0.076445
C31   C     C_2   0.692779 0.203334 0.859370 0.014041
C32   C     C_2   0.307221 0.203334 0.140629 0.014041
C33   C     C_2   0.192778 0.703334 0.859370 0.014041
C34   C     C_R   0.149208 0.860755 0.755695 -0.052678
C35   C     C_2   0.807221 0.703334 0.140629 0.014042
C36   C     C_2   0.300848 0.630765 0.009735 0.011786
C37   C     C_2   0.699152 0.630765 0.990264 0.011786
C38   C     C_2   0.800848 0.130765 0.009735 0.011786
C39   C     C_2   0.199152 0.130765 0.990264 0.011786
C40   C     C_R   0.617210 0.404697 0.409776 -0.014181
C41   C     C_R   0.382790 0.404697 0.590224 -0.014181
C42   C     C_R   0.117210 0.904697 0.409776 -0.014181
C43   C     C_R   0.882790 0.904697 0.590224 -0.014181
C44   C     C_2   0.251436 0.683740 0.975352 -0.194136
C45   C     C_R   0.403255 0.632798 0.593929 -0.103874
C46   C     C_2   0.748564 0.683741 0.024647 -0.194138
C47   C     C_2   0.751436 0.183741 0.975352 -0.194138
C48   C     C_2   0.248564 0.183741 0.024647 -0.194137
C49   C     C_R   0.688740 0.401755 0.592526 -0.074048
C50   C     C_R   0.311260 0.401755 0.407474 -0.074048
C51   C     C_R   0.188740 0.901755 0.592526 -0.074047
C52   C     C_R   0.811260 0.901755 0.407474 -0.074047
C53   C     C_R   0.555951 0.356411 0.749764 -0.061706
C54   C     C_R   0.444048 0.356411 0.250235 -0.061706
C55   C     C_R   0.055951 0.856411 0.749764 -0.061706
C56   C     C_R   0.596745 0.632798 0.406070 -0.103874
C57   C     C_R   0.944048 0.856411 0.250235 -0.061705
C58   C     C_R   0.385579 0.315215 0.218352 0.001815
C59   C     C_R   0.614421 0.315215 0.781648 0.001815
C60   C     C_R   0.885579 0.815215 0.218352 0.001814
C61   C     C_R   0.114420 0.815215 0.781647 0.001815
C62   C     C_R   0.686129 0.391096 0.502067 0.035343
C63   C     C_R   0.313871 0.391096 0.497933 0.035343
C64   C     C_R   0.186129 0.891097 0.502067 0.035342
C65   C     C_R   0.813871 0.891096 0.497933 0.035342
C66   C     C_R   0.327391 0.632186 0.409037 -0.154920
C67   C     C_R   0.903255 0.132798 0.593929 -0.103874
C68   C     C_R   0.672609 0.632186 0.590963 -0.154920
C69   C     C_R   0.827391 0.132186 0.409037 -0.154920
C70   C     C_R   0.172609 0.132186 0.590963 -0.154919
C71   C     C_R   0.422026 0.602608 0.194505 0.029627
C72   C     C_R   0.577974 0.602608 0.805495 0.029627
C73   C     C_R   0.922026 0.102608 0.194505 0.029627
C74   C     C_R   0.077974 0.102608 0.805495 0.029627
C75   C     C_R   0.668286 0.600373 0.805034 0.014735
C76   C     C_R   0.331714 0.600373 0.194966 0.014735
C77   C     C_R   0.168286 0.100373 0.805034 0.014735
C78   C     C_R   0.096745 0.132798 0.406070 -0.103875
C79   C     C_R   0.831714 0.100373 0.194966 0.014735
C80   C     C_2   0.701957 0.199166 0.773092 0.530396
C81   C     C_2   0.298043 0.199167 0.226907 0.530397
C82   C     C_2   0.201957 0.699167 0.773092 0.530396
C83   C     C_2   0.798043 0.699167 0.226907 0.530397
C84   C     C_2   0.613093 0.220552 0.905234 0.494128
C85   C     C_2   0.386907 0.220552 0.094766 0.494128
C86   C     C_2   0.113092 0.720552 0.905233 0.494128
C87   C     C_2   0.886907 0.720553 0.094765 0.494127
C88   C     C_2   0.594122 0.419887 0.297627 0.427276
C89   C     C_R   0.345275 0.669009 0.502495 0.064455
C90   C     C_2   0.405877 0.419887 0.702372 0.427276
C91   C     C_2   0.094123 0.919887 0.297627 0.427276
C92   C     C_2   0.905877 0.919887 0.702372 0.427275
H1    H     H_    0.301818 0.348943 0.228009 0.082386
H2    H     H_    0.745654 0.716330 0.961708 0.127652
H3    H     H_    0.754346 0.216330 0.038292 0.127652
H4    H     H_    0.245654 0.216330 0.961708 0.127652
H5    H     H_    0.734675 0.408232 0.677527 0.098369
H6    H     H_    0.265325 0.408232 0.322473 0.098369
H7    H     H_    0.234675 0.908232 0.677527 0.098369
H8    H     H_    0.765325 0.908232 0.322473 0.098369
H9    H     H_    0.516457 0.337372 0.755633 0.116637
H10   H     H_    0.483543 0.337372 0.244367 0.116637
H11   H     H_    0.016457 0.837372 0.755632 0.116637
H12   H     H_    0.698181 0.348943 0.771991 0.082386
H13   H     H_    0.983543 0.837372 0.244367 0.116639
H14   H     H_    0.282786 0.643979 0.324638 0.096481
H15   H     H_    0.717213 0.643979 0.675362 0.096481
H16   H     H_    0.782786 0.143979 0.324638 0.096481
H17   H     H_    0.217213 0.143979 0.675362 0.096480
H18   H     H_    0.427531 0.644508 0.679289 0.120524
H19   H     H_    0.572469 0.644508 0.320711 0.120524
H20   H     H_    0.927531 0.144508 0.679289 0.120524
H21   H     H_    0.072469 0.144508 0.320711 0.120524
H22   H     H_    0.600720 0.791691 0.373169 0.120842
H23   H     H_    0.801818 0.848943 0.228009 0.082386
H24   H     H_    0.399280 0.791691 0.626830 0.120842
H25   H     H_    0.100720 0.291691 0.373169 0.120842
H26   H     H_    0.899280 0.291691 0.626830 0.120842
H27   H     H_    0.790262 0.718836 0.641705 0.095275
H28   H     H_    0.777604 0.670546 0.535727 0.131517
H29   H     H_    0.209738 0.718836 0.358295 0.095275
H30   H     H_    0.222397 0.670546 0.464273 0.131517
H31   H     H_    0.290262 0.218836 0.641705 0.095275
H32   H     H_    0.277604 0.170546 0.535727 0.131517
H33   H     H_    0.709738 0.218836 0.358295 0.095275
H34   H     H_    0.198181 0.848943 0.771991 0.082386
H35   H     H_    0.722396 0.170546 0.464273 0.131517
H36   H     H_    0.115852 0.344494 0.241824 0.099239
H37   H     H_    0.148155 0.432923 0.291809 0.109867
H38   H     H_    0.884148 0.344494 0.758176 0.099239
H39   H     H_    0.851844 0.432922 0.708191 0.109867
H40   H     H_    0.615852 0.844494 0.241824 0.099239
H41   H     H_    0.648155 0.932923 0.291809 0.109867
H42   H     H_    0.384148 0.844494 0.758176 0.099239
H43   H     H_    0.351845 0.932923 0.708191 0.109867
H44   H     H_    0.753862 0.195123 0.796361 -0.006313
H45   H     H_    0.268361 0.367316 0.578768 0.120821
H46   H     H_    0.246137 0.195123 0.203638 -0.006313
H47   H     H_    0.253863 0.695124 0.796362 -0.006313
H48   H     H_    0.746137 0.695123 0.203638 -0.006313
H49   H     H_    0.341950 0.595891 0.936380 0.083235
H50   H     H_    0.304027 0.524950 0.957994 0.123408
H51   H     H_    0.658051 0.595889 0.063620 0.083236
H52   H     H_    0.695975 0.524949 0.042006 0.123409
H53   H     H_    0.841949 0.095889 0.936380 0.083236
H54   H     H_    0.804025 0.024949 0.957994 0.123408
H55   H     H_    0.158051 0.095889 0.063620 0.083236
H56   H     H_    0.731639 0.367316 0.421232 0.120821
H57   H     H_    0.195975 0.024949 0.042006 0.123409
H58   H     H_    0.587180 0.263029 0.919862 0.000027
H59   H     H_    0.412819 0.263029 0.080138 0.000027
H60   H     H_    0.087179 0.763028 0.919860 0.000028
H61   H     H_    0.912819 0.763029 0.080137 0.000028
H62   H     H_    0.625558 0.401910 0.274104 0.013463
H63   H     H_    0.374442 0.401910 0.725895 0.013463
H64   H     H_    0.125559 0.901912 0.274105 0.013463
H65   H     H_    0.874442 0.901911 0.725895 0.013463
H66   H     H_    0.453942 0.643147 0.110872 0.079957
H67   H     H_    0.768361 0.867316 0.578768 0.120821
H68   H     H_    0.438224 0.547139 0.098090 0.156253
H69   H     H_    0.546058 0.643146 0.889128 0.079957
H70   H     H_    0.561775 0.547139 0.901909 0.156253
H71   H     H_    0.953942 0.143147 0.110872 0.079957
H72   H     H_    0.938224 0.047139 0.098090 0.156253
H73   H     H_    0.046058 0.143147 0.889128 0.079957
H74   H     H_    0.061775 0.047139 0.901909 0.156253
H75   H     H_    0.763785 0.627248 0.854032 0.136729
H76   H     H_    0.735721 0.538718 0.797460 0.097944
H77   H     H_    0.236215 0.627249 0.145967 0.136728
H78   H     H_    0.231639 0.867316 0.421232 0.120821
H79   H     H_    0.264279 0.538718 0.202540 0.097944
H80   H     H_    0.263785 0.127248 0.854032 0.136729
H81   H     H_    0.235721 0.038719 0.797460 0.097944
H82   H     H_    0.736215 0.127249 0.145967 0.136729
H83   H     H_    0.764279 0.038719 0.202540 0.097944
H84   H     H_    0.254345 0.716329 0.038292 0.127652
N1    N     N_R   0.389060 0.424180 0.294540 -0.058738
N2    N     N_R   0.374530 0.423490 0.443400 -0.056120
N3    N     N_R   0.125470 0.923490 0.556600 -0.056120
N4    N     N_R   0.874530 0.923490 0.443400 -0.056120
N5    N     N_R   0.555250 0.423100 0.705420 -0.027737
N6    N     N_R   0.444750 0.423100 0.294580 -0.027737
N7    N     N_R   0.055250 0.923100 0.705420 -0.027737
N8    N     N_R   0.944750 0.923100 0.294580 -0.027737
N9    N     N_R   0.375210 0.577180 0.443400 -0.051769
N10   N     N_R   0.624790 0.577180 0.556600 -0.051769
N11   N     N_R   0.875210 0.077180 0.443400 -0.051769
N12   N     N_R   0.610940 0.424180 0.705460 -0.058738
N13   N     N_R   0.124790 0.077180 0.556600 -0.051769
N14   N     N_R   0.445430 0.577570 0.294580 -0.049200
N15   N     N_R   0.554570 0.577570 0.705420 -0.049200
N16   N     N_R   0.945430 0.077570 0.294580 -0.049200
N17   N     N_R   0.054570 0.077570 0.705420 -0.049200
N18   N     N_R   0.611620 0.576500 0.705460 -0.071648
N19   N     N_R   0.388380 0.576500 0.294540 -0.071648
N20   N     N_R   0.111620 0.076500 0.705460 -0.071648
N21   N     N_R   0.888380 0.076500 0.294540 -0.071648
N22   N     N_R   0.421010 0.576890 0.556640 -0.034522
N23   N     N_R   0.889060 0.924180 0.294540 -0.058738
N24   N     N_R   0.578990 0.576890 0.443360 -0.034522
N25   N     N_R   0.921010 0.076890 0.556640 -0.034522
N26   N     N_R   0.078990 0.076890 0.443360 -0.034523
N27   N     N_3   0.767830 0.722462 0.558131 -0.197304
N28   N     N_3   0.232170 0.722462 0.441869 -0.197303
N29   N     N_3   0.267830 0.222462 0.558131 -0.197304
N30   N     N_3   0.732170 0.222462 0.441869 -0.197304
N31   N     N_3   0.162159 0.374986 0.299012 -0.218444
N32   N     N_3   0.837841 0.374986 0.700988 -0.218443
N33   N     N_3   0.662159 0.874986 0.299012 -0.218443
N34   N     N_R   0.110940 0.924180 0.705460 -0.058738
N35   N     N_3   0.337841 0.874986 0.700988 -0.218443
N36   N     N_3   0.299154 0.582217 0.933114 -0.206364
N37   N     N_3   0.700847 0.582216 0.066886 -0.206364
N38   N     N_3   0.799153 0.082216 0.933114 -0.206364
N39   N     N_3   0.200847 0.082216 0.066886 -0.206364
N40   N     N_3   0.460233 0.593094 0.153799 -0.185474
N41   N     N_3   0.539767 0.593094 0.846201 -0.185474
N42   N     N_3   0.960233 0.093094 0.153799 -0.185475
N43   N     N_3   0.039767 0.093094 0.846201 -0.185474
N44   N     N_3   0.737958 0.578084 0.850684 -0.178091
N45   N     N_R   0.579670 0.423790 0.443360 -0.039485
N46   N     N_3   0.262042 0.578084 0.149316 -0.178091
N47   N     N_3   0.237958 0.078084 0.850684 -0.178091
N48   N     N_3   0.762042 0.078084 0.149316 -0.178091
N49   N     N_R   0.420330 0.423790 0.556640 -0.039485
N50   N     N_R   0.079670 0.923790 0.443360 -0.039485
N51   N     N_R   0.920330 0.923790 0.556640 -0.039485
N52   N     N_R   0.625470 0.423490 0.556600 -0.056120
Ni1   Ni    Ni4+2 0.383200 0.500680 0.370150 0.203451
Ni2   Ni    Ni4+2 0.616800 0.500680 0.629850 0.203451
Ni3   Ni    Ni4+2 0.883200 0.000680 0.370150 0.203451
Ni4   Ni    Ni4+2 0.116800 0.000680 0.629850 0.203451
Ni5   Ni    Ni4+2 0.512440 0.500680 0.370150 0.278241
Ni6   Ni    Ni4+2 0.487560 0.500680 0.629850 0.278241
Ni7   Ni    Ni4+2 0.012440 0.000680 0.370150 0.278240
Ni8   Ni    Ni4+2 0.987560 0.000680 0.629850 0.278241
O1    O     O_2   0.651235 0.199786 0.674958 -0.557330
O2    O     O_2   0.460500 0.453820 0.770287 -0.614250
O3    O     O_2   0.039499 0.953820 0.229712 -0.614250
O4    O     O_2   0.960501 0.953820 0.770287 -0.614249
O5    O     O_2   0.348765 0.199787 0.325042 -0.557330
O6    O     O_2   0.151235 0.699786 0.674958 -0.557329
O7    O     O_2   0.848765 0.699786 0.325042 -0.557330
O8    O     O_2   0.619399 0.154944 0.938867 -0.574977
O9    O     O_2   0.380601 0.154945 0.061133 -0.574977
O10   O     O_2   0.119399 0.654944 0.938866 -0.574977
O11   O     O_2   0.880601 0.654945 0.061133 -0.574977
O12   O     O_2   0.539499 0.453820 0.229713 -0.614250

loop_
_geom_bond_atom_site_label_1
_geom_bond_atom_site_label_2
_ccdc_geom_bond_type
H43   N35   S    
C21   C26   D    
N4    Ni3   S    
C9    H22   S    
C79   N21   A    
H69   N41   S    
H32   N29   S    
H41   N33   S    
C13   C19   S    
N18   Ni2   S    
C57   H13   S    
C52   N4    A    
C27   C59   S    
H50   N36   S    
H79   N46   S    
C4    C70   A    
C15   N28   S    
C53   C59   A    
C31   C80   S    
C11   C18   S    
N7    N34   A    
C6    C72   A    
C72   N41   S    
C22   H45   S    
H31   N29   S    
C66   N9    A    
N3    Ni4   S    
C30   C35   D    
N49   Ni6   S    
C57   N8    A    
C17   N30   S    
C3    C69   A    
C77   N20   A    
C66   H14   S    
C12   H12   S    
H55   N39   S    
C10   C15   D    
N1    Ni1   S    
H52   N37   S    
H37   N31   S    
N12   Ni2   S    
C15   C89   S    
C20   C25   D    
H66   N40   S    
C71   N40   S    
H68   N40   S    
C5    C36   S    
C55   H11   S    
H33   N30   S    
C40   C62   A    
C82   O6    D    
C27   C84   S    
C42   C91   S    
C81   O5    D    
C52   C65   A    
N23   Ni3   S    
C23   N23   A    
C26   C64   S    
C34   N34   A    
N6    Ni5   S    
C22   C63   S    
C12   C59   A    
C1    N1    A    
N5    Ni6   S    
C77   N47   S    
N20   Ni4   S    
C29   C33   D    
C53   H9    S    
N45   Ni5   S    
N2    N49   A    
C30   C60   S    
C74   N43   S    
C25   H67   S    
H83   N48   S    
C54   N6    A    
H42   N35   S    
C68   H15   S    
N9    N22   A    
C45   C89   A    
C33   C82   S    
C69   N11   A    
C56   H19   S    
C37   C46   D    
C34   H34   S    
N7    Ni8   S    
H51   N37   S    
N11   Ni3   S    
N17   N20   A    
C42   N50   A    
C41   C90   S    
N26   Ni7   S    
H70   N41   S    
C68   N10   A    
C86   O10   D    
C31   C47   S    
C85   O9    D    
C50   C63   A    
C32   C48   S    
N10   N24   A    
C81   H46   S    
C38   N38   S    
C51   N3    A    
H39   N32   S    
N52   Ni2   S    
C83   H48   S    
C69   H16   S    
C43   N51   A    
C13   H26   S    
C66   C89   A    
H30   N28   S    
N21   Ni3   S    
C10   C21   S    
C51   H7    S    
C23   C60   A    
C84   H58   S    
C29   C61   S    
C50   H6    S    
C90   O2    D    
C27   C31   D    
C44   H84   S    
C6    C75   A    
C83   O7    D    
H27   N27   S    
N24   Ni5   S    
N2    Ni1   S    
C7    C73   A    
C16   N29   S    
C24   H56   S    
C35   C83   S    
C45   H18   S    
N25   Ni8   S    
C76   N46   S    
C45   N22   A    
N16   N21   A    
C49   H5    S    
C52   H8    S    
C41   N49   A    
N50   Ni7   S    
C21   N35   S    
C92   H65   S    
N15   Ni6   S    
C79   N48   S    
C80   O1    D    
C4    C16   S    
C9    C14   D    
C85   H59   S    
N8    Ni7   S    
C4    C78   A    
C82   H47   S    
C67   N25   A    
C76   N19   A    
C86   H60   S    
C88   O12   D    
C11   C16   D    
C9    C20   S    
H77   N46   S    
N45   N52   A    
C28   C32   D    
C43   C65   A    
N8    N23   A    
C14   N27   S    
N13   Ni4   S    
C11   H25   S    
C8    C74   A    
C29   C86   S    
C6    C37   S    
C25   C65   S    
C84   O8    D    
N14   Ni5   S    
C20   N33   S    
H76   N44   S    
C49   N52   A    
H49   N36   S    
C38   C47   D    
H54   N38   S    
N14   N19   A    
C36   N36   S    
H72   N42   S    
C8    C39   S    
H82   N48   S    
N22   Ni6   S    
C8    C77   A    
C36   C44   D    
C78   H21   S    
C41   C63   A    
H81   N47   S    
C42   C64   A    
H75   N44   S    
H35   N30   S    
C32   C81   S    
C10   H24   S    
N16   Ni7   S    
C7    C79   A    
C54   C58   A    
C46   H2    S    
H36   N31   S    
C92   O4    D    
C70   H17   S    
C24   C62   S    
C49   C62   A    
C72   N15   A    
C50   N2    A    
C18   C22   D    
C33   C44   S    
N51   Ni8   S    
C54   H10   S    
C48   H4    S    
C3    C67   A    
H40   N33   S    
C78   N26   A    
H29   N28   S    
C57   C60   A    
N34   Ni4   S    
C47   H3    S    
C87   O11   D    
C53   N5    A    
N10   Ni2   S    
C28   C58   S    
N13   N26   A    
N9    Ni1   S    
N11   N25   A    
N4    N51   A    
C2    C68   A    
C43   C92   S    
C80   H44   S    
C13   C17   D    
C40   N45   A    
C39   N39   S    
C40   C88   S    
N3    N50   A    
C19   C24   D    
C90   H63   S    
N15   N18   A    
C91   H64   S    
C5    C71   A    
H80   N47   S    
C2    C56   A    
C1    C58   A    
C87   H61   S    
C19   N32   S    
C75   N44   S    
C5    C76   A    
C55   C61   A    
C7    C38   S    
C73   N42   S    
C3    C17   S    
C34   C61   A    
C71   N14   A    
C2    C14   S    
C74   N17   A    
C73   N16   A    
H38   N32   S    
H73   N43   S    
C23   H23   S    
H53   N38   S    
C37   N37   S    
H71   N42   S    
C67   H20   S    
C26   H78   S    
C1    H1    S    
C75   N18   A    
C91   O3    D    
C28   C85   S    
H28   N27   S    
C55   N7    A    
C18   N31   S    
C51   C64   A    
N19   Ni1   S    
N5    N12   A    
C30   C87   S    
C35   C46   S    
H74   N43   S    
N17   Ni8   S    
H57   N39   S    
N1    N6    A    
C70   N13   A    
C88   H62   S    
C39   C48   D    
C56   N24   A    
C12   N12   A    
