data_mof_unit_60402.cif
_audit_creation_date              2013-03-05T16:33:22-0500
_audit_creation_method            fapswitch 2.2
_symmetry_space_group_name_H-M    P1
_symmetry_Int_Tables_number       1
_space_group_crystal_system       triclinic
_cell_length_a                    15.945996
_cell_length_b                    15.946053
_cell_length_c                    59.928711
_cell_angle_alpha                 89.999366
_cell_angle_beta                  89.99942
_cell_angle_gamma                 90.012441
_cell_volume                      15238.4144201

loop_
_atom_site_label
_atom_site_type_symbol
_atom_site_description
_atom_site_fract_x
_atom_site_fract_y
_atom_site_fract_z
_atom_type_partial_charge
Zn1   Zn    Zn3+2 0.599000 1.000000 0.730930 1.087001
Zn2   Zn    Zn3+2 0.401000 1.000000 0.269070 1.057242
Zn3   Zn    Zn3+2 0.000000 0.599000 0.730930 1.057427
Zn4   Zn    Zn3+2 0.000000 0.401000 0.269070 1.087187
Zn5   Zn    Zn3+2 0.401000 1.000000 0.730930 1.056793
Zn6   Zn    Zn3+2 0.599000 1.000000 0.269070 1.086362
Zn7   Zn    Zn3+2 0.000000 0.401000 0.730930 1.086533
Zn8   Zn    Zn3+2 0.000000 0.599000 0.269070 1.056821
Zn9   Zn    Zn3+2 0.099000 0.500000 0.230930 1.057210
Zn10  Zn    Zn3+2 0.901000 0.500000 0.769070 1.087231
Zn11  Zn    Zn3+2 0.500000 0.099000 0.230930 1.087151
Zn12  Zn    Zn3+2 0.500000 0.901000 0.769070 1.056960
Zn13  Zn    Zn3+2 0.901000 0.500000 0.230930 1.086590
Zn14  Zn    Zn3+2 0.099000 0.500000 0.769070 1.056580
Zn15  Zn    Zn3+2 0.500000 0.901000 0.230930 1.056383
Zn16  Zn    Zn3+2 0.500000 0.099000 0.769070 1.086620
O1    O     O_3   0.500000 0.000000 0.750000 -0.528201
O2    O     O_3   0.500000 0.000000 0.250000 -0.528214
O3    O     O_3   0.000000 0.500000 0.750000 -0.528178
O4    O     O_3   0.000000 0.500000 0.250000 -0.528183
O5    O     O_R   0.500000 0.069020 0.799580 -0.587284
O6    O     O_R   0.500000 0.930980 0.200420 -0.631178
O7    O     O_R   0.930980 0.500000 0.799580 -0.587472
O8    O     O_R   0.069020 0.500000 0.200420 -0.630524
O9    O     O_R   0.500000 0.930980 0.799580 -0.630477
O10   O     O_R   0.500000 0.069020 0.200420 -0.587421
O11   O     O_R   0.069020 0.500000 0.799580 -0.631421
O12   O     O_R   0.930980 0.500000 0.200420 -0.587290
O13   O     O_R   0.000000 0.569020 0.299580 -0.631224
O14   O     O_R   0.000000 0.430980 0.700420 -0.587247
O15   O     O_R   0.430980 0.000000 0.299580 -0.629995
O16   O     O_R   0.569020 1.000000 0.700420 -0.587334
O17   O     O_R   0.000000 0.430980 0.299580 -0.587423
O18   O     O_R   1.000000 0.569020 0.700420 -0.630325
O19   O     O_R   0.569020 0.000000 0.299580 -0.587154
O20   O     O_R   0.430980 1.000000 0.700420 -0.630890
O21   O     O_R   0.597490 0.833170 0.762730 -0.626312
O22   O     O_R   0.402510 0.166830 0.237270 -0.618835
O23   O     O_R   0.166830 0.597490 0.762730 -0.632975
O24   O     O_R   0.833170 0.402510 0.237270 -0.627726
O25   O     O_R   0.402510 0.166830 0.762730 -0.618128
O26   O     O_R   0.597490 0.833170 0.237270 -0.627137
O27   O     O_R   0.833170 0.402510 0.762730 -0.627270
O28   O     O_R   0.166830 0.597490 0.237270 -0.633284
O29   O     O_R   0.597490 0.166830 0.237270 -0.627303
O30   O     O_R   0.402510 0.833170 0.762730 -0.633304
O31   O     O_R   0.166830 0.402510 0.237270 -0.626199
O32   O     O_R   0.833170 0.597490 0.762730 -0.618970
O33   O     O_R   0.402510 0.833170 0.237270 -0.633079
O34   O     O_R   0.597490 0.166830 0.762730 -0.627664
O35   O     O_R   0.833170 0.597490 0.237270 -0.618039
O36   O     O_R   0.166830 0.402510 0.762730 -0.627293
O37   O     O_R   0.097490 0.333170 0.262730 -0.618578
O38   O     O_R   0.902510 0.666830 0.737270 -0.625766
O39   O     O_R   0.666830 0.097490 0.262730 -0.627819
O40   O     O_R   0.333170 0.902510 0.737270 -0.633184
O41   O     O_R   0.902510 0.666830 0.262730 -0.626842
O42   O     O_R   0.097490 0.333170 0.737270 -0.617684
O43   O     O_R   0.333170 0.902510 0.262730 -0.633446
O44   O     O_R   0.666830 0.097490 0.737270 -0.627469
O45   O     O_R   0.097490 0.666830 0.737270 -0.633345
O46   O     O_R   0.902510 0.333170 0.262730 -0.627367
O47   O     O_R   0.666830 0.902510 0.737270 -0.618297
O48   O     O_R   0.333170 0.097490 0.262730 -0.625579
O49   O     O_R   0.902510 0.333170 0.737270 -0.627798
O50   O     O_R   0.097490 0.666830 0.262730 -0.633047
O51   O     O_R   0.333170 0.097490 0.737270 -0.626514
O52   O     O_R   0.666830 0.902510 0.262730 -0.617534
C1    C     C_R   0.498722 0.000019 0.810286 0.962128
C2    C     C_R   0.498827 0.000015 0.189719 0.965182
C3    C     C_R   0.999985 0.501144 0.810281 0.965906
C4    C     C_R   0.999981 0.501276 0.189714 0.962056
C5    C     C_R   0.001175 0.499985 0.310282 0.964969
C6    C     C_R   0.001298 0.499980 0.689713 0.961039
C7    C     C_R   0.500021 0.998669 0.310288 0.959579
C8    C     C_R   0.500016 0.998777 0.689717 0.963477
C9    C     C_R   0.660330 0.839670 0.750000 0.891725
C10   C     C_R   0.339670 0.160330 0.250000 0.892379
C11   C     C_R   0.160326 0.660328 0.750000 0.864105
C12   C     C_R   0.839673 0.339673 0.250000 0.883572
C13   C     C_R   0.339670 0.160330 0.750000 0.891097
C14   C     C_R   0.660329 0.839670 0.250000 0.890336
C15   C     C_R   0.839674 0.339673 0.750000 0.883603
C16   C     C_R   0.160327 0.660326 0.250000 0.864076
C17   C     C_R   0.660327 0.160326 0.250000 0.883265
C18   C     C_R   0.339673 0.839673 0.750000 0.863772
C19   C     C_R   0.160330 0.339670 0.250000 0.891947
C20   C     C_R   0.839670 0.660330 0.750000 0.892262
C21   C     C_R   0.339672 0.839674 0.250000 0.863664
C22   C     C_R   0.660327 0.160326 0.750000 0.883361
C23   C     C_R   0.839671 0.660330 0.250000 0.890779
C24   C     C_R   0.160330 0.339671 0.750000 0.890415
C25   C     C_1   0.723424 0.223423 0.750000 -0.105617
C26   C     C_1   0.276576 0.776577 0.250000 -0.111201
C27   C     C_1   0.776574 0.723425 0.750000 -0.093461
C28   C     C_1   0.223426 0.276575 0.250000 -0.093325
C29   C     C_1   0.276576 0.776576 0.750000 -0.111190
C30   C     C_1   0.723424 0.223423 0.250000 -0.105647
C31   C     C_1   0.223426 0.276575 0.750000 -0.093343
C32   C     C_1   0.776574 0.723425 0.250000 -0.093419
C33   C     C_1   0.723425 0.776575 0.250000 -0.093219
C34   C     C_1   0.276575 0.223426 0.750000 -0.093376
C35   C     C_1   0.776577 0.276576 0.250000 -0.105571
C36   C     C_1   0.223423 0.723424 0.750000 -0.111231
C37   C     C_1   0.276575 0.223426 0.250000 -0.093280
C38   C     C_1   0.723425 0.776574 0.750000 -0.093247
C39   C     C_1   0.223424 0.723423 0.250000 -0.111258
C40   C     C_1   0.776577 0.276576 0.750000 -0.105545
C41   C     C_R   0.543748 0.057050 0.582843 0.534690
C42   C     C_R   0.432184 0.957422 0.417147 0.536348
C43   C     C_R   0.940843 0.458164 0.582841 0.534593
C44   C     C_R   0.039089 0.570415 0.417091 0.536709
C45   C     C_R   0.430020 0.960135 0.582908 0.536649
C46   C     C_R   0.540791 0.060041 0.417160 0.534559
C47   C     C_R   0.041889 0.568237 0.582855 0.536406
C48   C     C_R   0.943987 0.455169 0.417156 0.534717
C49   C     C_R   0.068533 0.541425 0.082855 0.536454
C50   C     C_R   0.954471 0.444680 0.917155 0.534724
C51   C     C_R   0.460994 0.929582 0.082909 0.536714
C52   C     C_R   0.558750 0.042309 0.917157 0.534575
C53   C     C_R   0.957482 0.441455 0.082842 0.534602
C54   C     C_R   0.070736 0.538533 0.917090 0.536757
C55   C     C_R   0.555951 0.044946 0.082848 0.534709
C56   C     C_R   0.458476 0.931536 0.917140 0.536421
O53   O     O_2   0.600465 0.102921 0.594269 -0.526906
O54   O     O_2   0.379197 0.907466 0.405670 -0.523185
O55   O     O_2   0.892921 0.403225 0.594286 -0.526997
O56   O     O_2   0.085366 0.626555 0.405584 -0.523350
O57   O     O_2   0.374631 0.912960 0.594415 -0.523266
O58   O     O_2   0.595060 0.108724 0.405716 -0.526984
O59   O     O_2   0.091066 0.621943 0.594333 -0.523259
O60   O     O_2   0.899001 0.397750 0.405730 -0.526940
O61   O     O_2   0.122717 0.590073 0.094334 -0.523231
O62   O     O_2   0.896586 0.400299 0.905728 -0.526893
O63   O     O_2   0.414783 0.873382 0.094414 -0.523300
O64   O     O_2   0.606287 0.097586 0.905714 -0.526994
O65   O     O_2   0.902095 0.394055 0.094287 -0.526963
O66   O     O_2   0.127374 0.584196 0.905582 -0.523319
O67   O     O_2   0.600874 0.102407 0.094276 -0.526898
O68   O     O_2   0.409683 0.877484 0.905662 -0.523242
N1    N     N_R   0.487627 0.007826 0.594148 -0.338779
N2    N     N_R   0.487247 0.007948 0.405877 -0.338576
N3    N     N_R   0.992136 0.512474 0.594124 -0.338606
N4    N     N_R   0.992291 0.512083 0.405852 -0.338791
N5    N     N_R   0.012301 0.492203 0.094125 -0.338636
N6    N     N_R   0.011916 0.492350 0.905851 -0.338826
N7    N     N_R   0.507720 0.987965 0.094150 -0.338809
N8    N     N_R   0.507845 0.987642 0.905872 -0.338608
C57   C     C_R   0.513309 0.931602 0.629183 -0.133623
C58   C     C_R   0.468171 0.076152 0.369349 -0.137263
C59   C     C_R   0.067829 0.484917 0.629148 -0.133357
C60   C     C_R   0.922813 0.527747 0.369394 -0.136634
C61   C     C_R   0.471072 0.076953 0.630626 -0.136868
C62   C     C_R   0.515821 0.932506 0.370872 -0.133280
C63   C     C_R   0.923605 0.530805 0.630635 -0.137083
C64   C     C_R   0.068756 0.487583 0.370793 -0.133699
C65   C     C_R   0.030149 0.423470 0.130624 -0.136932
C66   C     C_R   0.988145 0.568963 0.870780 -0.133824
C67   C     C_R   0.577209 0.972329 0.130606 -0.136619
C68   C     C_R   0.431991 0.014615 0.870841 -0.133449
C69   C     C_R   0.985408 0.568056 0.129160 -0.133490
C70   C     C_R   0.027026 0.422669 0.869406 -0.136507
C71   C     C_R   0.431236 0.012389 0.129209 -0.133741
C72   C     C_R   0.576551 0.969789 0.869369 -0.136889
C73   C     C_R   0.518674 0.928434 0.652549 0.227400
C74   C     C_R   0.473247 0.075616 0.345965 0.241425
C75   C     C_R   0.070983 0.479549 0.652512 0.227299
C76   C     C_R   0.923355 0.522861 0.346008 0.240079
C77   C     C_R   0.476032 0.076397 0.654010 0.240488
C78   C     C_R   0.521278 0.929356 0.347511 0.227361
C79   C     C_R   0.924136 0.525808 0.654020 0.241023
C80   C     C_R   0.071917 0.482311 0.347424 0.227442
C81   C     C_R   0.025198 0.424001 0.154010 0.240823
C82   C     C_R   0.982922 0.572120 0.847409 0.227516
C83   C     C_R   0.576664 0.977202 0.153992 0.240050
C84   C     C_R   0.428820 0.019933 0.847475 0.227308
C85   C     C_R   0.980096 0.571212 0.152527 0.227347
C86   C     C_R   0.022182 0.423206 0.846019 0.239856
C87   C     C_R   0.428071 0.017647 0.152578 0.227465
C88   C     C_R   0.576013 0.974762 0.845984 0.240788
C89   C     C_R   0.490160 0.005327 0.618184 0.181262
C90   C     C_R   0.489917 0.005390 0.381836 0.180671
C91   C     C_R   0.994664 0.509898 0.618166 0.180732
C92   C     C_R   0.994748 0.509652 0.381814 0.181295
C93   C     C_R   0.009788 0.494713 0.118166 0.180810
C94   C     C_R   0.009548 0.494785 0.881813 0.181385
C95   C     C_R   0.505261 0.990379 0.118187 0.181324
C96   C     C_R   0.505326 0.990183 0.881831 0.180691
C97   C     C_R   0.485185 0.010311 0.547456 -0.046342
C98   C     C_R   0.484877 0.010413 0.452574 -0.046379
C99   C     C_R   0.989716 0.514741 0.547427 -0.046376
C100  C     C_R   0.989842 0.514424 0.452544 -0.046308
C101  C     C_R   0.014505 0.489803 0.047427 -0.046358
C102  C     C_R   0.014190 0.489927 0.952543 -0.046290
C103  C     C_R   0.510160 0.985660 0.047457 -0.046283
C104  C     C_R   0.510264 0.985391 0.952571 -0.046330
C105  C     C_R   0.543358 0.059387 0.559369 -0.034093
C106  C     C_R   0.430143 0.957603 0.440636 -0.035373
C107  C     C_R   0.938540 0.458486 0.559366 -0.034065
C108  C     C_R   0.038886 0.572489 0.440580 -0.035412
C109  C     C_R   0.427911 0.960341 0.559420 -0.035411
C110  C     C_R   0.540394 0.062387 0.440635 -0.034072
C111  C     C_R   0.041710 0.570248 0.559366 -0.035356
C112  C     C_R   0.941683 0.455492 0.440631 -0.034102
C113  C     C_R   0.070527 0.541242 0.059366 -0.035388
C114  C     C_R   0.954746 0.442401 0.940631 -0.034110
C115  C     C_R   0.461202 0.927517 0.059420 -0.035431
C116  C     C_R   0.561056 0.041994 0.940633 -0.034068
C117  C     C_R   0.957757 0.439174 0.059366 -0.034077
C118  C     C_R   0.072792 0.538329 0.940579 -0.035438
C119  C     C_R   0.558240 0.044649 0.059373 -0.034103
C120  C     C_R   0.458652 0.929535 0.940630 -0.035382
C121  C     C_R   0.600430 0.109088 0.547663 -0.119992
C122  C     C_R   0.374866 0.905864 0.452334 -0.119867
C123  C     C_R   0.886388 0.403569 0.547685 -0.119847
C124  C     C_R   0.086506 0.631424 0.452253 -0.119953
C125  C     C_R   0.369721 0.911809 0.547748 -0.119903
C126  C     C_R   0.594528 0.115356 0.452314 -0.119834
C127  C     C_R   0.092654 0.626258 0.547667 -0.119890
C128  C     C_R   0.892914 0.397625 0.452338 -0.120032
C129  C     C_R   0.127024 0.591643 0.047666 -0.119859
C130  C     C_R   0.896338 0.394284 0.952338 -0.120039
C131  C     C_R   0.413654 0.868531 0.047747 -0.119942
C132  C     C_R   0.612818 0.097273 0.952314 -0.119877
C133  C     C_R   0.902321 0.387575 0.047685 -0.119847
C134  C     C_R   0.132235 0.585310 0.952252 -0.119930
C135  C     C_R   0.606937 0.102582 0.047669 -0.120048
C136  C     C_R   0.408096 0.873173 0.952326 -0.119874
C137  C     C_R   0.500094 0.001584 0.665156 -0.253017
C138  C     C_R   0.500062 0.001666 0.334857 -0.253135
C139  C     C_R   0.998380 0.499920 0.665147 -0.253144
C140  C     C_R   0.998462 0.499887 0.334841 -0.253027
C141  C     C_R   0.999910 0.498422 0.165148 -0.253163
C142  C     C_R   0.999877 0.498488 0.834839 -0.253026
C143  C     C_R   0.501538 0.000116 0.165160 -0.253059
C144  C     C_R   0.501594 0.000088 0.834850 -0.253184
H1    H     H_    0.453351 0.133792 0.621928 0.198866
H2    H     H_    0.532800 0.878114 0.380711 0.197415
H3    H     H_    0.867186 0.549956 0.621959 0.199295
H4    H     H_    0.124016 0.473375 0.380599 0.197377
H5    H     H_    0.528267 0.876573 0.619364 0.197306
H6    H     H_    0.448308 0.132362 0.378007 0.199329
H7    H     H_    0.122440 0.468571 0.619319 0.197471
H8    H     H_    0.865762 0.544637 0.378110 0.198827
H9    H     H_    0.969480 0.622804 0.119337 0.197493
H10   H     H_    0.043401 0.365491 0.878132 0.198742
H11   H     H_    0.375967 0.026563 0.119403 0.197359
H12   H     H_    0.633099 0.951059 0.878051 0.199292
H13   H     H_    0.048839 0.366916 0.121939 0.199199
H14   H     H_    0.974403 0.624358 0.880578 0.197374
H15   H     H_    0.634272 0.955486 0.121889 0.198801
H16   H     H_    0.377257 0.030571 0.880666 0.197558
C145  C     C_R   0.074459 0.538846 0.988078 0.045301
C146  C     C_R   0.956946 0.437832 0.011887 0.045215
C147  C     C_R   0.459635 0.926711 0.988128 0.045294
C148  C     C_R   0.561312 0.043798 0.011896 0.045301
C149  C     C_R   0.955676 0.439230 0.988106 0.045282
C150  C     C_R   0.073407 0.540153 0.011869 0.045284
C151  C     C_R   0.562540 0.042668 0.988113 0.045227
C152  C     C_R   0.460787 0.925769 0.011920 0.045324
C153  C     C_R   0.541071 0.063866 0.488113 0.045211
C154  C     C_R   0.426174 0.959871 0.511922 0.045327
C155  C     C_R   0.938507 0.456464 0.488106 0.045278
C156  C     C_R   0.040651 0.573142 0.511869 0.045304
C157  C     C_R   0.427216 0.958641 0.488131 0.045298
C158  C     C_R   0.542326 0.062559 0.511894 0.045291
C159  C     C_R   0.039382 0.574185 0.488078 0.045313
C160  C     C_R   0.937147 0.457727 0.511887 0.045220
C161  C     C_R   0.014838 0.489265 0.976347 0.077303
C162  C     C_R   0.015018 0.489198 0.023624 0.077252
C163  C     C_R   0.510878 0.984857 0.976375 0.077202
C164  C     C_R   0.510822 0.985011 0.023653 0.077239
C165  C     C_R   0.484318 0.011039 0.476377 0.077201
C166  C     C_R   0.484494 0.010985 0.523653 0.077228
C167  C     C_R   0.989174 0.515090 0.476347 0.077273
C168  C     C_R   0.989106 0.515271 0.523624 0.077223
C169  C     C_R   0.133293 0.585594 0.975451 -0.203594
C170  C     C_R   0.901915 0.386618 0.024497 -0.203712
C171  C     C_R   0.408351 0.871712 0.975522 -0.203416
C172  C     C_R   0.608518 0.102376 0.024484 -0.203630
C173  C     C_R   0.896576 0.392665 0.975524 -0.203726
C174  C     C_R   0.128509 0.591339 0.024469 -0.203477
C175  C     C_R   0.613840 0.097617 0.975500 -0.203639
C176  C     C_R   0.413411 0.867437 0.024549 -0.203502
C177  C     C_R   0.594859 0.116381 0.475502 -0.203703
C178  C     C_R   0.368631 0.911540 0.524551 -0.203547
C179  C     C_R   0.891287 0.397887 0.475523 -0.203720
C180  C     C_R   0.092365 0.627748 0.524470 -0.203491
C181  C     C_R   0.373363 0.906141 0.475530 -0.203486
C182  C     C_R   0.600137 0.110717 0.524478 -0.203654
C183  C     C_R   0.086785 0.632494 0.475451 -0.203604
C184  C     C_R   0.885407 0.403190 0.524497 -0.203709
H17   H     H_    0.181947 0.623011 0.982897 0.140720
H18   H     H_    0.857643 0.344115 0.017050 0.141365
H19   H     H_    0.366508 0.826842 0.982981 0.140673
H20   H     H_    0.647068 0.150098 0.017025 0.141280
H21   H     H_    0.848418 0.354685 0.982993 0.141352
H22   H     H_    0.173414 0.633126 0.017001 0.140689
H23   H     H_    0.656399 0.141847 0.982940 0.141346
H24   H     H_    0.375438 0.819205 0.017110 0.140649
H25   H     H_    0.638094 0.159949 0.482944 0.141418
H26   H     H_    0.321001 0.872815 0.517108 0.140625
H27   H     H_    0.852755 0.350166 0.482991 0.141362
H28   H     H_    0.134574 0.672261 0.517004 0.140634
H29   H     H_    0.329450 0.863305 0.482994 0.140692
H30   H     H_    0.647226 0.150028 0.517012 0.141300
H31   H     H_    0.124744 0.680729 0.482895 0.140683
H32   H     H_    0.842479 0.359327 0.517052 0.141354
N9    N     N_R   0.456869 0.152277 0.666057 0.224543
O69   O     O_R   0.497155 0.171557 0.684233 -0.391113
O70   O     O_R   0.405337 0.206994 0.657594 -0.322156
N10   N     N_R   0.545506 0.851524 0.337112 0.212478
O71   O     O_R   0.593020 0.850767 0.319476 -0.365669
O72   O     O_R   0.528055 0.780539 0.346779 -0.320503
N11   N     N_R   0.848762 0.546694 0.666088 0.225212
O73   O     O_R   0.828548 0.506703 0.684238 -0.390717
O74   O     O_R   0.795250 0.599539 0.657653 -0.322752
N12   N     N_R   0.150665 0.461668 0.336946 0.214026
O75   O     O_R   0.153260 0.416209 0.318941 -0.369903
O76   O     O_R   0.220941 0.480796 0.346754 -0.320625
N13   N     N_R   0.540345 0.849922 0.663001 0.213598
O77   O     O_R   0.586397 0.847822 0.680903 -0.368688
O78   O     O_R   0.521691 0.779446 0.653229 -0.320611
N14   N     N_R   0.451528 0.150704 0.333878 0.225486
O79   O     O_R   0.491530 0.171455 0.315772 -0.390347
O80   O     O_R   0.397869 0.203513 0.342263 -0.323139
N15   N     N_R   0.149056 0.456203 0.662932 0.212890
O81   O     O_R   0.150278 0.409293 0.680680 -0.366764
O82   O     O_R   0.219868 0.473983 0.653218 -0.320487
N16   N     N_R   0.847180 0.541037 0.333983 0.224207
O83   O     O_R   0.828458 0.500683 0.315777 -0.391365
O84   O     O_R   0.791742 0.591695 0.342488 -0.321884
N17   N     N_R   0.957330 0.649437 0.162960 0.213139
O85   O     O_R   0.910858 0.650960 0.180788 -0.367889
O86   O     O_R   0.975301 0.720135 0.153212 -0.320307
N18   N     N_R   0.039741 0.346859 0.834006 0.224001
O87   O     O_R   0.999299 0.328460 0.815790 -0.391212
O88   O     O_R   0.089895 0.291003 0.842528 -0.322194
N19   N     N_R   0.349308 0.038235 0.163056 0.214009
O89   O     O_R   0.346685 0.083659 0.181067 -0.370269
O90   O     O_R   0.279044 0.019086 0.153245 -0.320438
N20   N     N_R   0.651545 0.954396 0.833923 0.225033
O91   O     O_R   0.671483 0.994486 0.815767 -0.390556
O92   O     O_R   0.705428 0.901953 0.842369 -0.323147
N21   N     N_R   0.045550 0.348459 0.166067 0.224994
O93   O     O_R   0.005437 0.328504 0.184219 -0.390627
O94   O     O_R   0.098016 0.294593 0.157624 -0.322995
N22   N     N_R   0.962905 0.651005 0.836916 0.214221
O95   O     O_R   0.917773 0.653898 0.818855 -0.370984
O96   O     O_R   0.982347 0.721159 0.846742 -0.320401
N23   N     N_R   0.652852 0.959074 0.166017 0.224212
O97   O     O_R   0.671539 0.999420 0.184226 -0.391148
O98   O     O_R   0.708334 0.908474 0.157508 -0.322221
N24   N     N_R   0.350595 0.042728 0.837046 0.213122
O99   O     O_R   0.349072 0.089194 0.819217 -0.368012
O100  O     O_R   0.279898 0.024783 0.846799 -0.320230
H33   H     H_    0.646191 0.147107 0.556403 0.195425
H34   H     H_    0.332350 0.864297 0.443579 0.195252
H35   H     H_    0.845766 0.360173 0.556449 0.195504
H36   H     H_    0.124233 0.677319 0.443474 0.195111
H37   H     H_    0.324437 0.873346 0.556527 0.195118
H38   H     H_    0.637340 0.156592 0.443550 0.195553
H39   H     H_    0.133598 0.669373 0.556422 0.195188
H40   H     H_    0.855631 0.351266 0.443598 0.195437
H41   H     H_    0.170535 0.632166 0.056421 0.195202
H42   H     H_    0.849572 0.357514 0.943598 0.195412
H43   H     H_    0.375954 0.822611 0.056524 0.195120
H44   H     H_    0.653099 0.140985 0.943549 0.195525
H45   H     H_    0.858539 0.347370 0.056449 0.195494
H46   H     H_    0.178548 0.622521 0.943474 0.195110
H47   H     H_    0.644202 0.148949 0.056412 0.195416
H48   H     H_    0.367487 0.829749 0.943569 0.195240

loop_
_geom_bond_atom_site_label_1
_geom_bond_atom_site_label_2
_geom_bond_distance
_ccdc_geom_bond_type
N4    C92   1.441597 S    
C84   N24   1.441854 S    
C68   H16   1.083178 S    
C71   H11   1.083164 S    
Zn5   O51   1.931762 S    
C49   O61   1.349524 S    
C88   N20   1.441781 S    
C80   C140  1.421020 A    
C122  C181  1.390308 A    
N17   O85   1.300468 A    
C159  C167  1.422319 A    
C127  C180  1.390335 A    
C67   C95   1.397551 A    
C128  C179  1.389707 A    
C129  C174  1.390352 A    
C50   C114  1.407332 A    
C1    C144  1.472850 S    
C76   N16   1.441860 S    
C60   H8    1.083098 S    
Zn3   O38   1.931758 S    
C181  H29   1.075548 S    
Zn5   O20   1.889884 S    
Zn6   O19   1.889885 S    
C62   C78   1.403644 A    
C3    C142  1.472381 S    
C21   C26   1.422742 S    
C83   N23   1.441866 S    
Zn13  O35   1.931762 S    
C41   C105  1.407309 A    
C145  C150  1.426003 A    
O34   C22   1.263645 A    
Zn14  O36   1.931763 S    
N14   O79   1.301385 A    
C98   C165  1.426570 A    
C47   C111  1.408063 A    
C68   C84   1.403771 A    
C133  C170  1.389726 A    
Zn3   O3    1.948900 S    
C45   C109  1.408042 A    
C23   C32   1.423031 S    
C160  C184  1.416951 A    
C20   C27   1.423028 S    
C157  C181  1.417148 A    
C46   O58   1.349649 S    
C99   C111  1.407988 A    
C130  C173  1.389716 A    
Zn6   O2    1.948911 S    
C82   C142  1.421013 A    
C152  C176  1.417175 A    
C178  H26   1.075587 S    
C153  C177  1.416970 A    
C136  C171  1.390295 A    
C154  C166  1.422350 A    
C134  H46   1.083539 S    
C155  C179  1.416986 A    
N16   O83   1.301354 A    
C12   C35   1.422744 S    
C52   C116  1.407340 A    
C82   N22   1.442169 S    
Zn1   O44   1.931388 S    
Zn2   O43   1.931390 S    
C6    C139  1.472975 S    
O22   C10   1.263637 A    
Zn3   O18   1.889895 S    
C73   N13   1.441994 S    
C122  H34   1.083566 S    
Zn8   O41   1.931760 S    
C76   C140  1.420082 A    
O40   C18   1.263648 A    
C100  C112  1.407917 A    
C102  C161  1.426566 A    
O17   C5    1.273754 A    
C124  H36   1.083548 S    
C52   N8    1.369633 A    
Zn7   O3    1.948920 S    
O9    C1    1.274374 A    
C69   C85   1.403799 A    
C106  C122  1.395998 A    
C127  H39   1.083548 S    
O11   C3    1.274125 A    
C22   C25   1.422744 S    
N15   O82   1.301607 A    
C131  C176  1.390311 A    
C97   C105  1.407940 A    
Zn13  O4    1.948915 S    
Zn14  O3    1.948911 S    
Zn15  O26   1.931760 S    
Zn16  O34   1.931374 S    
N18   O87   1.301347 A    
C72   C96   1.397700 A    
C65   H13   1.083087 S    
O44   C22   1.263651 A    
N8    C96   1.441906 S    
C67   H15   1.083102 S    
C153  C158  1.425452 A    
O38   C20   1.263644 A    
C48   C112  1.407315 A    
C59   C75   1.403720 A    
N22   O95   1.300575 A    
C128  H40   1.083555 S    
N1    C89   1.441600 S    
C2    C143  1.472424 S    
Zn15  O33   1.931377 S    
C59   H7    1.083184 S    
C104  C120  1.407984 A    
C87   N19   1.442115 S    
N2    C90   1.441928 S    
C88   C144  1.420115 A    
N13   O77   1.300539 A    
C177  H25   1.075499 S    
C44   C108  1.408064 A    
O31   C19   1.263646 A    
Zn15  O2    1.948920 S    
C148  C151  1.425521 A    
Zn11  O2    1.948900 S    
C115  C131  1.395950 A    
Zn16  O5    1.889885 S    
O27   C15   1.263648 A    
N23   O97   1.301353 A    
C15   C40   1.422743 S    
C156  C168  1.422333 A    
C107  C123  1.395767 A    
Zn8   O13   1.889885 S    
O13   C5    1.274169 A    
O46   C12   1.263647 A    
C9    C38   1.423029 S    
C65   C93   1.397685 A    
O14   C6    1.273868 A    
C63   C91   1.397714 A    
O23   C11   1.263650 A    
C58   C74   1.403704 A    
C55   O67   1.349649 S    
C16   C39   1.422742 S    
N10   O71   1.300449 A    
C104  C163  1.426620 A    
O43   C21   1.263654 A    
C53   O65   1.349641 S    
C18   C29   1.422741 S    
C75   N15   1.441750 S    
N12   O76   1.301615 A    
C48   N4    1.369514 A    
C54   C118  1.408081 A    
C135  C172  1.389668 A    
C50   O62   1.349643 S    
C43   N3    1.369645 A    
C126  C177  1.389703 A    
C54   N6    1.369477 A    
C123  C184  1.389716 A    
C149  C173  1.416968 A    
C118  C134  1.395997 A    
C66   C82   1.403960 A    
N9    O70   1.301582 A    
C79   C139  1.420151 A    
C26   C39   1.198525 T    
C182  H30   1.075506 S    
C101  C113  1.407989 A    
C156  C180  1.417130 A    
C57   C73   1.403810 A    
Zn12  O30   1.931387 S    
C145  C161  1.422298 A    
C86   C142  1.420064 A    
C98   C110  1.407887 A    
C100  C108  1.408061 A    
C146  C149  1.425465 A    
C64   C80   1.403901 A    
O5    C1    1.273841 A    
Zn4   O4    1.948896 S    
C104  C116  1.407878 A    
C69   H9    1.083180 S    
C27   C38   1.198701 T    
C175  H23   1.075438 S    
C102  C118  1.408064 A    
C81   N21   1.441750 S    
C48   O60   1.349646 S    
C79   N11   1.441775 S    
C160  C168  1.422276 A    
C46   C110  1.407332 A    
C121  H33   1.083589 S    
O37   C19   1.263635 A    
C145  C169  1.417100 A    
C42   O54   1.349533 S    
C157  C165  1.422356 A    
C154  C178  1.417164 A    
O51   C13   1.263658 A    
C155  C167  1.422301 A    
C71   C87   1.403890 A    
C149  C161  1.422284 A    
C151  C163  1.422316 A    
O8    C4    1.274383 A    
N5    C93   1.441889 S    
Zn4   O17   1.889894 S    
O48   C10   1.263644 A    
C130  H42   1.083548 S    
C136  H48   1.083545 S    
O16   C8    1.273789 A    
C59   C91   1.397571 A    
C116  C132  1.395712 A    
C62   H2    1.083196 S    
Zn1   O1    1.948896 S    
O52   C14   1.263646 A    
C110  C126  1.395769 A    
C77   N9    1.441827 S    
C114  C130  1.395747 A    
C156  C159  1.425993 A    
C78   C138  1.420992 A    
C32   C33   1.198702 T    
C172  H20   1.075440 S    
C74   N14   1.441700 S    
C70   C86   1.403718 A    
N14   O80   1.301572 A    
N24   O99   1.300475 A    
C41   N1    1.369526 A    
O42   C24   1.263647 A    
Zn16  O25   1.931760 S    
O6    C2    1.274162 A    
C24   C31   1.423032 S    
C86   N18   1.441860 S    
C73   C137  1.421035 A    
C28   C37   1.198700 T    
Zn4   O37   1.931758 S    
C42   C106  1.408050 A    
Zn5   O40   1.931379 S    
Zn6   O39   1.931377 S    
C154  C157  1.425978 A    
C64   C92   1.397487 A    
C58   C90   1.397740 A    
C56   N8    1.369617 A    
N16   O84   1.301574 A    
C112  C128  1.395743 A    
C85   N17   1.441837 S    
C49   C113  1.408081 A    
C25   C40   1.198534 T    
N20   O92   1.301565 A    
Zn5   O1    1.948915 S    
C51   N7    1.369472 A    
C30   C35   1.198533 T    
Zn4   O46   1.931387 S    
C4    C141  1.472895 S    
C49   N5    1.369621 A    
Zn12  O21   1.931758 S    
Zn13  O24   1.931379 S    
C69   C93   1.397573 A    
O35   C23   1.263649 A    
Zn14  O23   1.931377 S    
C147  C152  1.426033 A    
C158  C182  1.417038 A    
Zn15  O6    1.889884 S    
C129  H41   1.083539 S    
Zn16  O1    1.948917 S    
Zn12  O1    1.948896 S    
O32   C20   1.263637 A    
Zn13  O12   1.889884 S    
Zn14  O11   1.889885 S    
N21   O94   1.301564 A    
C72   C88   1.403724 A    
C63   H3    1.083102 S    
N11   O73   1.301371 A    
C74   C138  1.420131 A    
Zn7   O14   1.889884 S    
C57   C89   1.397487 A    
C132  H44   1.083553 S    
O12   C4    1.273848 A    
C117  C133  1.395772 A    
C66   C94   1.397484 A    
C60   C76   1.403702 A    
C81   C141  1.420110 A    
N17   O86   1.301604 A    
C135  H47   1.083568 S    
C155  C160  1.425466 A    
O7    C3    1.273729 A    
C54   O66   1.349514 S    
N18   O88   1.301572 A    
C173  H21   1.075485 S    
C131  H43   1.083557 S    
C56   C120  1.408072 A    
C78   N10   1.441604 S    
O21   C9    1.263645 A    
C176  H24   1.075524 S    
C51   O63   1.349520 S    
C52   O64   1.349650 S    
C134  C169  1.390360 A    
N3    C91   1.441907 S    
O39   C17   1.263646 A    
C7    C138  1.473122 S    
Zn7   O49   1.931377 S    
Zn9   O4    1.948896 S    
O15   C7    1.274500 A    
N19   O89   1.300565 A    
Zn10  O3    1.948892 S    
O25   C13   1.263647 A    
N22   O96   1.301618 A    
C150  C174  1.417110 A    
O18   C6    1.274429 A    
C61   C89   1.397580 A    
Zn9   O31   1.931760 S    
C183  H31   1.075566 S    
O10   C2    1.273742 A    
Zn11  O29   1.931385 S    
C105  C121  1.395768 A    
C126  H38   1.083566 S    
O41   C23   1.263657 A    
C80   N12   1.442101 S    
N20   O91   1.301368 A    
C56   O68   1.349525 S    
C66   H14   1.083153 S    
C99   C107  1.407887 A    
O28   C16   1.263653 A    
N23   O98   1.301571 A    
C111  C127  1.395997 A    
N7    C95   1.441566 S    
C159  C183  1.417118 A    
N15   O81   1.300464 A    
N6    C94   1.441572 S    
C121  C182  1.389692 A    
C146  C170  1.416937 A    
C158  C166  1.422335 A    
N10   O72   1.301607 A    
C150  C162  1.422315 A    
C44   O56   1.349517 S    
C29   C36   1.198525 T    
C133  H45   1.083546 S    
C120  C136  1.395941 A    
C58   H6    1.083111 S    
C31   C34   1.198703 T    
C103  C115  1.408072 A    
C61   C77   1.403668 A    
C8    C137  1.472608 S    
C65   C81   1.403758 A    
C170  H18   1.075504 S    
C97   C166  1.426572 A    
Zn8   O50   1.931374 S    
Zn2   O2    1.948892 S    
O26   C14   1.263661 A    
C125  C178  1.390330 A    
C147  C163  1.422371 A    
N9    O69   1.301366 A    
C64   H4    1.083162 S    
C148  C164  1.422347 A    
O19   C7    1.273898 A    
Zn8   O4    1.948917 S    
C45   O57   1.349525 S    
C10   C37   1.423028 S    
C46   N2    1.369663 A    
O45   C11   1.263652 A    
C100  C167  1.426568 A    
C47   O59   1.349526 S    
O49   C15   1.263647 A    
C132  C175  1.389674 A    
C153  C165  1.422302 A    
C125  H37   1.083578 S    
C71   C95   1.397476 A    
C42   N2    1.369650 A    
C17   C30   1.422744 S    
O20   C8    1.274241 A    
C108  C124  1.395996 A    
C45   N1    1.369503 A    
N13   O78   1.301620 A    
C55   C119  1.407320 A    
O24   C12   1.263647 A    
C53   C117  1.407352 A    
C152  C164  1.422362 A    
C60   C92   1.397561 A    
Zn7   O42   1.931760 S    
C184  H32   1.075500 S    
C98   C106  1.407992 A    
C43   C107  1.407334 A    
Zn6   O52   1.931763 S    
C67   C83   1.403696 A    
C101  C162  1.426575 A    
C180  H28   1.075547 S    
C103  C164  1.426620 A    
Zn1   O47   1.931760 S    
Zn2   O48   1.931760 S    
C13   C34   1.423031 S    
Zn3   O45   1.931385 S    
C102  C114  1.407915 A    
C47   N3    1.369634 A    
N11   O74   1.301565 A    
C50   N6    1.369501 A    
C87   C143  1.421024 A    
C70   C94   1.397551 A    
C85   C141  1.421037 A    
Zn11  O10   1.889895 S    
C97   C109  1.408083 A    
C146  C162  1.422260 A    
Zn1   O16   1.889894 S    
Zn2   O15   1.889894 S    
C70   H10   1.083098 S    
O29   C17   1.263649 A    
C103  C119  1.407925 A    
N12   O75   1.300558 A    
C101  C117  1.407885 A    
C19   C28   1.423030 S    
C41   O53   1.349651 S    
N19   O90   1.301619 A    
C55   N7    1.369497 A    
N24   O100  1.301612 A    
C43   O55   1.349645 S    
C53   N5    1.369632 A    
C11   C36   1.422741 S    
C51   C115  1.408061 A    
C68   C96   1.397576 A    
C99   C168  1.426571 A    
C174  H22   1.075549 S    
O47   C9    1.263636 A    
Zn9   O28   1.931388 S    
C147  C171  1.417164 A    
Zn10  O27   1.931390 S    
C148  C172  1.417044 A    
O33   C21   1.263648 A    
Zn9   O8    1.889894 S    
C75   C139  1.421023 A    
Zn10  O7    1.889894 S    
C124  C183  1.390350 A    
C83   C143  1.420087 A    
C61   H1    1.083114 S    
Zn12  O9    1.889894 S    
C44   N4    1.369491 A    
C151  C175  1.416990 A    
C109  C125  1.396015 A    
Zn10  O32   1.931760 S    
C84   C144  1.421035 A    
C123  H35   1.083552 S    
C62   C90   1.397590 A    
C113  C129  1.396001 A    
C14   C33   1.423031 S    
C77   C137  1.420105 A    
C171  H19   1.075493 S    
C72   H12   1.083097 S    
C119  C135  1.395703 A    
O36   C24   1.263658 A    
O50   C16   1.263649 A    
C63   C79   1.403752 A    
C169  H17   1.075565 S    
C57   H5    1.083177 S    
Zn11  O22   1.931758 S    
C179  H27   1.075482 S    
N21   O93   1.301370 A    
C5    C140  1.472449 S    
O30   C18   1.263653 A    
