data_mof_unit_25848.cif
_audit_creation_date              2012-10-26T21:00:13-0400
_audit_creation_method            fapswitch 2.2
_symmetry_space_group_name_H-M    P1
_symmetry_Int_Tables_number       1
_space_group_crystal_system       triclinic
_cell_length_a                    19.300583
_cell_length_b                    8.802765
_cell_length_c                    7.49226
_cell_angle_alpha                 103.208787
_cell_angle_beta                  94.461013
_cell_angle_gamma                 93.56913
_cell_volume                      1231.286143

loop_
_atom_site_label
_atom_site_type_symbol
_atom_type_description
_atom_site_fract_x
_atom_site_fract_y
_atom_site_fract_z
_atom_type_partial_charge
C1    C     C_R   0.497379 0.200524 0.453822 0.544810
C2    C     C_R   0.815937 0.600948 0.404242 0.259623
C3    C     C_R   0.146693 0.496865 0.504889 -0.004217
C4    C     C_R   0.853307 0.503132 0.495119 -0.004215
C5    C     C_R   0.182879 0.597531 0.416543 -0.157639
C6    C     C_R   0.817120 0.402468 0.583467 -0.157647
C7    C     C_R   0.255283 0.598401 0.411634 0.250040
C8    C     C_R   0.744716 0.401599 0.588371 0.250042
C9    C     C_R   0.292323 0.503062 0.505170 -0.010172
C10   C     C_R   0.707677 0.496936 0.494830 -0.010169
C11   C     C_R   0.929785 0.502820 0.498105 0.364556
C12   C     C_R   0.502621 0.799476 0.546178 0.544810
C13   C     C_R   0.070215 0.497173 0.501902 0.364555
C14   C     C_3   0.163116 0.319123 0.857359 -0.083213
C15   C     C_3   0.836884 0.680855 0.142632 -0.083214
C16   C     C_3   0.274477 0.659859 0.139061 -0.085571
C17   C     C_3   0.725529 0.340122 0.860941 -0.085575
C18   C     C_1   0.458760 0.947250 0.249308 0.267632
C19   C     C_1   0.541234 0.052750 0.750699 0.267630
C20   C     C_1   0.432441 0.344229 0.928342 0.446128
C21   C     C_1   0.567559 0.655772 0.071658 0.446133
C22   C     C_2   0.490514 0.033664 0.429610 -0.049695
C23   C     C_2   0.509484 0.966336 0.570392 -0.049696
C24   C     C_R   0.367856 0.500940 0.501854 0.580038
C25   C     C_R   0.632144 0.499060 0.498146 0.580041
C26   C     C_R   0.256731 0.403221 0.594414 -0.177368
C27   C     C_R   0.743270 0.596774 0.405583 -0.177371
C28   C     C_R   0.184064 0.399047 0.595760 0.259620
Cu1   Cu    Cu3+1 0.507710 0.517380 0.684380 1.035881
Cu2   Cu    Cu3+1 0.492290 0.482620 0.315620 1.035878
H1    H     H_    0.285092 0.323285 0.656151 0.156187
H2    H     H_    0.782270 0.701656 0.102698 0.109623
H3    H     H_    0.286075 0.537074 0.080760 0.113684
H4    H     H_    0.307232 0.736415 0.075094 0.179005
H5    H     H_    0.219340 0.677564 0.100485 0.102716
H6    H     H_    0.692758 0.263596 0.924911 0.179005
H7    H     H_    0.713957 0.462923 0.919258 0.113651
H8    H     H_    0.780659 0.322353 0.899495 0.102740
H9    H     H_    0.714909 0.676706 0.343838 0.156184
H10   H     H_    0.155003 0.677237 0.352527 0.158177
H11   H     H_    0.844996 0.322764 0.647485 0.158169
H12   H     H_    0.128570 0.238368 0.911608 0.171543
H13   H     H_    0.151660 0.440490 0.923045 0.114420
H14   H     H_    0.217738 0.298393 0.897303 0.109588
H15   H     H_    0.848307 0.559460 0.076952 0.114376
H16   H     H_    0.871455 0.761556 0.088371 0.171554
N1    N     N_R   0.033294 0.552614 0.372284 -0.238947
N2    N     N_1   0.607968 0.750890 0.161024 -0.348280
N3    N     N_R   0.966706 0.447379 0.627723 -0.238947
N4    N     N_R   0.964446 0.555020 0.370208 -0.158796
N5    N     N_R   0.035554 0.444973 0.629799 -0.158805
N6    N     N_2   0.480680 0.456420 0.038530 -0.193062
N7    N     N_2   0.519320 0.543580 0.961470 -0.193062
N8    N     N_1   0.433830 0.880151 0.105135 -0.268057
N9    N     N_1   0.566160 0.119848 0.894876 -0.268054
N10   N     N_1   0.392031 0.249112 0.838977 -0.348282
O1    O     O_R   0.505010 0.286130 0.619770 -0.502494
O2    O     O_3   0.851231 0.713903 0.335695 -0.526294
O3    O     O_3   0.291018 0.702993 0.331624 -0.541215
O4    O     O_3   0.708978 0.297008 0.668380 -0.541214
O5    O     O_R   0.494990 0.713870 0.380230 -0.502495
O6    O     O_R   0.491990 0.256780 0.308370 -0.498850
O7    O     O_R   0.508010 0.743220 0.691630 -0.498854
O8    O     O_R   0.406650 0.514660 0.655750 -0.517839
O9    O     O_R   0.593350 0.485340 0.344250 -0.517839
O10   O     O_R   0.393640 0.485310 0.344340 -0.492308
O11   O     O_R   0.606360 0.514690 0.655660 -0.492296
O12   O     O_3   0.148771 0.286082 0.664294 -0.526290

loop_
_geom_bond_atom_site_label_1
_geom_bond_atom_site_label_2
_ccdc_geom_bond_type
C10   C27   A    
C19   C23   S    
C2    O2    S    
C9    C24   S    
C2    C27   A    
C11   N3    A    
C17   H6    S    
C1    O1    A    
C16   H3    S    
Cu1   Cu2   S    
C2    C4    A    
C25   O11   A    
C24   O10   A    
C20   N10   T    
C21   N2    T    
C26   C28   A    
C1    O6    A    
N3    N5    A    
Cu1   O7    S    
Cu1   O8    S    
C15   H2    S    
C24   O8    A    
C11   N4    A    
C17   H7    S    
C14   H12   S    
C8    O4    S    
C4    C11   S    
C21   N7    S    
C12   O5    A    
C12   C23   S    
Cu2   O10   S    
Cu1   N7    S    
C6    C8    A    
C10   C25   S    
C14   H14   S    
C3    C28   A    
C28   O12   S    
Cu1   O1    S    
C9    C26   A    
N1    N4    A    
C5    C7    A    
C17   H8    S    
Cu2   O6    S    
C16   H5    S    
C13   N5    A    
C15   O2    S    
C5    H10   S    
Cu2   O9    S    
C18   N8    T    
C17   O4    S    
C19   N9    T    
Cu1   O11   S    
C7    C9    A    
C1    C22   S    
C25   O9    A    
N6    N7    D    
C20   N6    S    
C4    C6    A    
Cu2   O5    S    
C7    O3    S    
C13   N1    A    
C12   O7    A    
Cu2   N6    S    
C22   C23   D    
C6    H11   S    
C14   O12   S    
C15   H16   S    
C16   H4    S    
C18   C22   S    
C26   H1    S    
C16   O3    S    
C8    C10   A    
C27   H9    S    
C14   H13   S    
C3    C5    A    
C15   H15   S    
C3    C13   S    
