data_mof_unit_10981.cif
_audit_creation_date              2013-03-05T16:46:35-0500
_audit_creation_method            fapswitch 2.2
_symmetry_space_group_name_H-M    P1
_symmetry_Int_Tables_number       1
_space_group_crystal_system       triclinic
_cell_length_a                    13.070295
_cell_length_b                    8.934789
_cell_length_c                    8.102935
_cell_angle_alpha                 89.99877
_cell_angle_beta                  96.225533
_cell_angle_gamma                 89.999982
_cell_volume                      940.683042582

loop_
_atom_site_label
_atom_site_type_symbol
_atom_site_description
_atom_site_fract_x
_atom_site_fract_y
_atom_site_fract_z
_atom_type_partial_charge
O1    O     O_R   0.499990 0.285340 0.636850 -0.615622
O2    O     O_R   0.500010 0.714660 0.363150 -0.615306
O3    O     O_R   0.500010 0.285340 0.363150 -0.615651
O4    O     O_R   0.499990 0.714660 0.636850 -0.615318
N1    N     N_1   0.500020 0.500000 0.073640 0.037545
N2    N     N_1   0.499980 0.500000 0.926360 0.037564
C1    C     C_R   0.500000 0.217980 0.500001 0.918413
C2    C     C_R   0.500000 0.782020 0.499999 0.918305
O5    O     O_R   0.346350 0.500000 0.614250 -0.588499
O6    O     O_R   0.653650 0.500000 0.385750 -0.588593
O7    O     O_R   0.346360 0.500000 0.340500 -0.551781
O8    O     O_R   0.653640 0.500000 0.659500 -0.551778
C3    C     C_R   0.297876 0.500235 0.469578 0.930771
C4    C     C_R   0.702124 0.500283 0.530423 0.930725
Zn1   Zn    Zn3+2 0.499990 0.500000 0.682780 1.116160
Zn2   Zn    Zn3+2 0.500010 0.500000 0.317220 1.116123
C5    C     C_R   0.813452 0.501136 0.546058 -0.329422
C6    C     C_R   0.186548 0.500999 0.453946 -0.329347
C7    C     C_R   0.025827 0.501779 0.278822 -0.176395
C8    C     C_R   0.974173 0.502051 0.721182 -0.176473
C9    C     C_R   0.131607 0.501490 0.295387 0.612534
C10   C     C_R   0.868393 0.501815 0.704616 0.612650
C11   C     C_R   0.134032 0.501337 0.597577 0.236879
C12   C     C_R   0.865967 0.501306 0.402428 0.236874
C13   C     C_R   0.027240 0.501679 0.580207 -0.084278
C14   C     C_R   0.972760 0.501600 0.419797 -0.084164
H1    H     H_    0.986212 0.502069 0.154381 0.223650
H2    H     H_    0.013789 0.502446 0.845622 0.223592
C15   C     C_1   0.500000 0.065185 0.500002 -0.133864
C16   C     C_1   0.500000 0.934815 0.499998 -0.133599
N3    N     N_R   0.811786 0.500879 0.238668 0.238371
O9    O     O_R   0.787702 0.626823 0.163642 -0.319131
O10   O     O_R   0.790897 0.374655 0.162218 -0.319423
N4    N     N_R   0.188207 0.501057 0.761343 0.238393
O11   O     O_R   0.211907 0.627055 0.836500 -0.319373
O12   O     O_R   0.209729 0.374885 0.837499 -0.319164
F1    F     F_    0.820395 0.502195 0.844814 -0.580664
F2    F     F_    0.179604 0.501630 0.155187 -0.580706

loop_
_geom_bond_atom_site_label_1
_geom_bond_atom_site_label_2
_geom_bond_distance
_ccdc_geom_bond_type
N3    O10   1.301359 A    
C15   C16   1.164834 T    
O1    Zn1   1.953726 S    
C6    C9    1.402240 A    
O2    Zn2   1.953725 S    
O7    Zn2   2.037355 S    
N4    O12   1.301192 A    
C5    C10   1.402240 A    
O8    Zn1   2.037355 S    
O4    C2    1.261692 A    
C11   N4    1.434738 S    
C2    C16   1.365190 S    
O4    Zn1   1.953709 S    
O5    Zn1   2.024611 S    
C12   N3    1.434733 S    
C13   C14   1.412714 A    
O6    Zn2   2.024611 S    
O7    C3    1.280334 A    
C4    C5    1.446865 S    
C3    C6    1.446860 S    
C1    C15   1.365194 S    
C7    C9    1.374517 A    
O8    C4    1.280328 A    
O3    C1    1.261692 A    
C11   C13   1.387625 A    
N1    N2    1.193344 T    
C12   C14   1.387633 A    
C5    C12   1.413809 A    
C8    C13   1.399212 A    
C9    F2    1.355983 S    
C6    C11   1.413833 A    
C7    H1    1.082406 S    
N4    O11   1.301267 A    
O6    C4    1.270656 A    
C7    C14   1.399210 A    
O5    C3    1.270649 A    
N1    Zn2   1.973726 S    
C8    H2    1.082413 S    
N2    Zn1   1.973728 S    
O1    C1    1.261699 A    
C10   F1    1.355976 S    
O2    C2    1.261699 A    
O3    Zn2   1.953710 S    
N3    O9    1.301306 A    
C8    C10   1.374518 A    
