data_mof_unit_47405.cif
_audit_creation_date              2012-10-26T18:59:56-0400
_audit_creation_method            fapswitch 2.2
_symmetry_space_group_name_H-M    P1
_symmetry_Int_Tables_number       1
_space_group_crystal_system       triclinic
_cell_length_a                    9.546878
_cell_length_b                    10.779847
_cell_length_c                    17.095396
_cell_angle_alpha                 89.373279
_cell_angle_beta                  94.097479
_cell_angle_gamma                 90.136891
_cell_volume                      1754.74930855

loop_
_atom_site_label
_atom_site_type_symbol
_atom_type_description
_atom_site_fract_x
_atom_site_fract_y
_atom_site_fract_z
_atom_type_partial_charge
C1    C     C_R   0.500522 0.262667 0.504372 0.541572
C2    C     C_R   0.503872 0.129397 0.514122 -0.002773
C3    C     C_R   0.429345 0.064255 0.571130 -0.014898
C4    C     C_R   0.517623 0.498584 0.650827 0.529020
C5    C     C_R   0.425441 0.931699 0.567975 -0.004661
C6    C     C_R   0.504278 0.870490 0.512488 -0.032127
C7    C     C_R   0.597175 0.938109 0.469973 0.014255
C8    C     C_3   0.622156 0.933914 0.384717 -0.267344
C9    C     C_3   0.620331 0.074790 0.385107 -0.267409
C10   C     C_R   0.068716 0.589148 0.459412 0.184565
C11   C     C_R   0.080060 0.419436 0.545894 -0.004597
C12   C     C_R   0.652574 0.462660 0.779066 -0.151274
C13   C     C_R   0.931174 0.419375 0.545868 -0.007244
C14   C     C_R   0.921286 0.589287 0.459489 0.176531
C15   C     C_3   0.904595 0.613394 0.373305 -0.277175
C16   C     C_R   0.500542 0.737464 0.502572 0.530303
C17   C     C_3   0.063225 0.612456 0.373211 -0.285055
C18   C     C_R   0.482469 0.501352 0.349161 0.549427
C19   C     C_R   0.527479 0.497707 0.736633 -0.000118
C20   C     C_R   0.410176 0.530179 0.776777 -0.176208
C21   C     C_R   0.417105 0.526390 0.858203 -0.094115
C22   C     C_R   0.542384 0.489861 0.901046 0.224013
C23   C     C_R   0.579874 0.460747 0.141949 -0.090647
C24   C     C_R   0.659477 0.458574 0.860743 -0.112558
C25   C     C_2   0.343500 0.855623 0.621944 0.232951
C26   C     C_3   0.364343 0.133631 0.636998 -0.231934
C27   C     C_3   0.447499 0.111243 0.716157 -0.295678
C28   C     C_3   0.374686 0.170474 0.783007 -0.441106
C29   C     C_R   0.586421 0.458474 0.223451 -0.164582
C30   C     C_R   0.459049 0.506691 0.098872 0.225845
C31   C     C_R   0.473102 0.501590 0.263310 0.006041
C32   C     C_R   0.352577 0.546192 0.220518 -0.156687
C33   C     C_R   0.345794 0.548363 0.138875 -0.111033
C34   C     C_R   0.595604 0.064731 0.470157 0.010285
Cu1   Cu    Cu3+1 0.640670 0.499980 0.500000 0.939832
Cu2   Cu    Cu3+1 0.359330 0.500020 0.500000 0.937086
H1    H     H_    0.679818 0.422044 0.255239 0.116495
H2    H     H_    0.102340 0.532363 0.340823 0.146170
H3    H     H_    0.669209 0.426592 0.113089 0.133786
H4    H     H_    0.108511 0.704108 0.358375 0.127726
H5    H     H_    0.756282 0.430441 0.892883 0.115821
H6    H     H_    0.744264 0.436767 0.749188 0.127067
H7    H     H_    0.264917 0.581781 0.249954 0.114898
H8    H     H_    0.324246 0.551601 0.887169 0.139318
H9    H     H_    0.252472 0.583942 0.106522 0.116324
H10   H     H_    0.312717 0.558225 0.745257 0.139166
H11   H     H_    0.384772 0.767282 0.644020 0.118386
H12   H     H_    0.727003 0.895339 0.374593 0.136944
H13   H     H_    0.358612 0.271061 0.771514 0.160807
H14   H     H_    0.271229 0.125577 0.789416 0.167713
H15   H     H_    0.440551 0.158530 0.838775 0.155905
H16   H     H_    0.459670 0.010607 0.729080 0.181904
H17   H     H_    0.554186 0.152208 0.713900 0.156903
H18   H     H_    0.363386 0.235048 0.627230 0.152713
H19   H     H_    0.252407 0.107726 0.639726 0.197144
H20   H     H_    0.532708 0.892521 0.348656 0.133534
H21   H     H_    0.724042 0.117070 0.375328 0.144391
H22   H     H_    0.529544 0.115674 0.349461 0.135419
H23   H     H_    0.140227 0.352621 0.581882 0.106507
H24   H     H_    0.879750 0.352491 0.581811 0.116208
H25   H     H_    0.854869 0.534898 0.340170 0.148253
H26   H     H_    0.857875 0.705762 0.358884 0.122327
N1    N     N_2   0.555218 0.483139 0.984151 -0.253916
N2    N     N_2   0.446761 0.513025 0.015804 -0.254093
N3    N     N_R   0.147870 0.500930 0.499500 -0.230391
N4    N     N_R   0.851960 0.500890 0.499500 -0.233884
O1    O     O_R   0.618810 0.319640 0.500000 -0.500955
O2    O     O_R   0.381230 0.319680 0.499990 -0.510441
O3    O     O_R   0.631790 0.498830 0.613930 -0.503183
O4    O     O_R   0.394210 0.498870 0.613920 -0.519897
O5    O     O_R   0.618770 0.680320 0.500010 -0.487144
O6    O     O_R   0.381190 0.680360 0.500000 -0.495922
O7    O     O_R   0.605790 0.501130 0.386080 -0.507497
O8    O     O_R   0.368210 0.501170 0.386070 -0.502250
O9    O     O_2   0.227719 0.887692 0.639882 -0.524759

loop_
_geom_bond_atom_site_label_1
_geom_bond_atom_site_label_2
_ccdc_geom_bond_type
C30   N2    S    
C33   H9    S    
C19   C20   A    
C16   O6    A    
C26   H19   S    
C8    H20   S    
C4    O4    A    
C7    C8    S    
C13   H24   S    
C26   C27   S    
C23   C29   A    
C9    H22   S    
C5    C6    A    
C28   H15   S    
C10   C17   S    
C1    O2    A    
C1    C2    S    
C12   H6    S    
C22   N1    S    
C4    C19   S    
C28   H14   S    
C15   H26   S    
Cu1   Cu2   S    
C8    C9    S    
C25   H11   S    
C2    C34   A    
Cu1   O5    S    
C18   O8    A    
C21   C22   A    
C24   H5    S    
C16   O5    A    
C11   H23   S    
C26   H18   S    
C4    O3    A    
Cu2   O4    S    
C13   N4    A    
C15   H25   S    
C23   C30   A    
C10   C14   A    
Cu2   N3    S    
Cu1   N4    S    
C25   O9    D    
C17   H4    S    
C8    H12   S    
C21   H8    S    
C28   H13   S    
C31   C32   A    
Cu1   O1    S    
Cu2   O2    S    
C14   N4    A    
Cu2   O8    S    
C5    C25   S    
C18   O7    A    
C9    C34   S    
C7    C34   A    
C22   C24   A    
C27   H16   S    
C10   N3    A    
C15   C17   S    
Cu1   O7    S    
C30   C33   A    
C3    C26   S    
C3    C5    A    
C27   H17   S    
C6    C7    A    
C12   C24   A    
C32   C33   A    
C2    C3    A    
C29   C31   A    
C11   C13   A    
C23   H3    S    
C12   C19   A    
C1    O1    A    
C32   H7    S    
C9    H21   S    
C17   H2    S    
C6    C16   S    
N1    N2    D    
C11   N3    A    
C20   C21   A    
Cu1   O3    S    
C29   H1    S    
C27   C28   S    
C14   C15   S    
C18   C31   S    
C20   H10   S    
Cu2   O6    S    
