data_mof_unit_15552.cif
_audit_creation_date              2013-03-05T16:33:41-0500
_audit_creation_method            fapswitch 2.2
_symmetry_space_group_name_H-M    P1
_symmetry_Int_Tables_number       1
_space_group_crystal_system       triclinic
_cell_length_a                    9.070044
_cell_length_b                    10.818737
_cell_length_c                    9.566691
_cell_angle_alpha                 89.797907
_cell_angle_beta                  89.793843
_cell_angle_gamma                 90.415786
_cell_volume                      938.708424128

loop_
_atom_site_label
_atom_site_type_symbol
_atom_site_description
_atom_site_fract_x
_atom_site_fract_y
_atom_site_fract_z
_atom_type_partial_charge
O1    O     O_R   0.500000 0.319640 0.618810 -0.547162
O2    O     O_R   0.500020 0.319680 0.381230 -0.596207
C1    C     C_R   0.498566 0.262373 0.500148 0.805142
O3    O     O_R   0.288380 0.499980 0.618770 -0.533828
O4    O     O_R   0.288400 0.500020 0.381190 -0.582740
C2    C     C_R   0.220745 0.499959 0.500129 0.852642
Cu1   Cu    Cu3+1 0.499990 0.499980 0.640670 1.011418
Cu2   Cu    Cu3+1 0.500010 0.500020 0.359330 0.986465
O5    O     O_R   0.499980 0.680320 0.618770 -0.583229
O6    O     O_R   0.500000 0.680360 0.381190 -0.560774
O7    O     O_R   0.711600 0.499980 0.618810 -0.588492
O8    O     O_R   0.711620 0.500020 0.381230 -0.573409
C3    C     C_R   0.498361 0.737557 0.499803 0.814486
C4    C     C_R   0.779242 0.500153 0.499876 0.850123
C5    C     C_1   0.065560 0.500074 0.500206 -0.113873
C6    C     C_1   0.934406 0.500142 0.499826 -0.136068
C7    C     C_R   0.506890 0.063027 0.624594 0.202114
C8    C     C_R   0.487340 0.129034 0.500624 -0.109875
C9    C     C_R   0.449993 0.064562 0.378190 -0.190177
C10   C     C_R   0.449885 0.935644 0.377933 -0.136624
H1    H     H_    0.426559 0.887488 0.281337 0.193281
C11   C     C_R   0.486686 0.870646 0.500221 -0.103434
C12   C     C_R   0.505976 0.935788 0.624469 0.107977
C13   C     C_3   0.628898 0.928783 0.727576 -0.442111
C14   C     C_3   0.630833 0.069016 0.727017 -0.411222
H2    H     H_    0.596881 0.109247 0.828740 0.241313
H3    H     H_    0.733265 0.109459 0.681112 0.195549
C15   C     C_R   0.579749 0.586400 0.072967 0.201578
N1    N     N_R   0.500920 0.500930 0.147930 -0.239077
C16   C     C_R   0.409685 0.423570 0.075916 -0.117673
H4    H     H_    0.338607 0.360306 0.133067 0.171364
C17   C     C_R   0.408234 0.423732 0.927380 0.415278
N2    N     N_R   0.500930 0.500890 0.852020 -0.245070
C18   C     C_R   0.580448 0.585976 0.925685 0.136921
C19   C     C_3   0.743308 0.606330 0.918569 -0.517108
C20   C     C_3   0.742763 0.606386 0.077651 0.134624
H5    H     H_    0.426446 0.113217 0.281754 0.180892
H6    H     H_    0.772655 0.696663 0.869863 0.221356
H7    H     H_    0.804270 0.527852 0.124271 0.135536
N3    N     N_R   0.782200 0.726387 0.137584 0.160475
O9    O     O_R   0.713680 0.826559 0.100388 -0.374470
O10   O     O_R   0.884527 0.732910 0.232206 -0.353150
H8    H     H_    0.591968 0.888436 0.828933 0.237174
H9    H     H_    0.730540 0.887485 0.682833 0.203029
N4    N     N_R   0.308659 0.341824 0.858262 0.140288
O11   O     O_R   0.172426 0.375835 0.842564 -0.365070
O12   O     O_R   0.338221 0.224413 0.856471 -0.390832
H10   H     H_    0.802827 0.525847 0.874488 0.212654

loop_
_geom_bond_atom_site_label_1
_geom_bond_atom_site_label_2
_geom_bond_distance
_ccdc_geom_bond_type
O4    Cu2   1.929923 S    
C16   C17   1.421100 A    
C12   C13   1.493437 S    
N1    C16   1.363078 A    
C14   H3    1.112329 S    
C8    C9    1.406540 A    
C17   N4    1.426519 S    
C19   C20   1.521882 S    
C16   H4    1.082315 S    
Cu2   O8    1.931463 S    
C7    C14   1.495118 S    
C17   N2    1.380096 A    
N3    O10   1.300506 A    
C7    C8    1.394757 A    
C14   H2    1.110885 S    
C15   C18   1.409019 A    
Cu1   Cu2   2.691490 S    
N4    O11   1.300885 A    
C10   H1    1.083220 S    
Cu1   O7    1.929924 S    
Cu1   N2    2.022028 S    
C7    C12   1.376525 A    
O3    Cu1   1.931462 S    
Cu2   N1    2.022376 S    
Cu2   O6    1.962961 S    
N3    O9    1.302310 A    
C10   C11   1.405325 A    
C3    C11   1.444528 S    
O2    C1    1.293680 A    
N4    O12   1.300289 A    
O4    C2    1.290820 A    
C13   H9    1.112308 S    
O7    C4    1.290719 A    
C4    C6    1.407348 S    
C19   H10   1.111391 S    
C5    C6    1.189598 T    
C20   N3    1.463604 S    
C19   H6    1.111389 S    
N2    C18   1.364838 A    
C13   C14   1.517111 S    
C15   C20   1.493577 S    
C1    C8    1.445400 S    
O3    C2    1.292120 A    
C18   C19   1.493163 S    
Cu1   O5    1.961535 S    
C13   H8    1.111544 S    
O5    C3    1.293936 A    
C11   C12   1.394912 A    
C15   N1    1.364756 A    
C9    H5    1.083259 S    
C2    C5    1.407536 S    
O1    Cu1   1.962961 S    
C20   H7    1.112665 S    
O2    Cu2   1.961532 S    
C9    C10   1.394736 A    
O8    C4    1.292097 A    
O1    C1    1.295245 A    
O6    C3    1.294497 A    
