data_mof_unit_57934.cif
_audit_creation_date              2012-12-10T20:37:30-0500
_audit_creation_method            fapswitch 2.2
_symmetry_space_group_name_H-M    P1
_symmetry_Int_Tables_number       1
_space_group_crystal_system       triclinic
_cell_length_a                    15.729618
_cell_length_b                    10.662901
_cell_length_c                    9.86884
_cell_angle_alpha                 90.078979
_cell_angle_beta                  89.980575
_cell_angle_gamma                 90.184701
_cell_volume                      1655.22473351

loop_
_atom_site_label
_atom_site_type_symbol
_atom_type_description
_atom_site_fract_x
_atom_site_fract_y
_atom_site_fract_z
_atom_type_partial_charge
C1    C     C_R   0.504510 0.260031 0.499780 0.885129
C2    C     C_3   0.083683 0.500126 0.498619 0.042719
C3    C     C_3   0.972247 0.612155 0.528228 0.137070
C4    C     C_3   0.916748 0.496753 0.500868 0.042388
C5    C     C_3   0.028273 0.582162 0.403903 -0.418221
C6    C     C_3   0.972739 0.464226 0.377808 0.423314
C7    C     C_1   0.174294 0.499973 0.499463 0.022511
C8    C     C_1   0.826011 0.497638 0.500182 0.020593
C9    C     C_R   0.508880 0.064048 0.621887 0.107807
C10   C     C_R   0.520472 0.128603 0.500731 -0.133025
C11   C     C_R   0.549346 0.063680 0.384308 0.090100
C12   C     C_R   0.338055 0.499898 0.499989 0.904139
C13   C     C_R   0.546745 0.933007 0.385871 -0.265111
C14   C     C_R   0.517571 0.871061 0.502079 -0.129973
C15   C     C_R   0.507763 0.936493 0.622699 0.132253
C16   C     C_3   0.438161 0.930478 0.725622 -0.471005
C17   C     C_3   0.439321 0.072611 0.724792 -0.482690
C18   C     C_R   0.440561 0.432437 0.071278 0.165000
C19   C     C_R   0.562423 0.558768 0.071970 -0.132446
C20   C     C_R   0.562244 0.559209 0.928104 -0.123242
C21   C     C_R   0.441479 0.429978 0.928378 0.101631
C22   C     C_3   0.346440 0.441196 0.919457 -0.227076
C23   C     C_R   0.502845 0.739957 0.500182 0.886729
C24   C     C_3   0.345819 0.449609 0.074922 0.168015
C25   C     C_R   0.662028 0.499904 0.499986 0.885903
C26   C     C_3   0.972242 0.415492 0.596476 -0.419656
C27   C     C_3   0.028072 0.383792 0.471582 0.423307
C28   C     C_1   0.249412 0.499889 0.499903 -0.178463
C29   C     C_1   0.750814 0.498729 0.499942 -0.183040
C30   C     C_3   0.028038 0.532818 0.620669 0.134893
H1    H     H_    0.460121 0.889654 0.823078 0.203774
H2    H     H_    0.380151 0.114390 0.683148 0.199053
H3    H     H_    0.462022 0.113918 0.821793 0.204462
H4    H     H_    0.611765 0.608733 0.126238 0.150647
H5    H     H_    0.611348 0.609710 0.873966 0.152128
H6    H     H_    0.324823 0.528005 0.867495 0.180969
H7    H     H_    0.948387 0.350142 0.675376 0.162716
H8    H     H_    0.052229 0.650641 0.328243 0.159920
H9    H     H_    0.562978 0.880811 0.295221 0.164184
H10   H     H_    0.378347 0.889511 0.684550 0.200782
N1    N     N_R   0.499430 0.499140 0.142800 -0.106826
N2    N     N_R   0.499430 0.499180 0.857150 -0.106212
O1    O     O_R   0.500010 0.316790 0.614690 -0.618441
O2    O     O_R   0.500000 0.316760 0.385350 -0.590749
O3    O     O_R   0.376780 0.500010 0.614650 -0.636877
O4    O     O_R   0.376770 0.499970 0.385310 -0.568895
O5    O     O_R   0.500000 0.683240 0.614650 -0.619403
O6    O     O_R   0.499990 0.683210 0.385310 -0.622098
O7    O     O_R   0.623230 0.500030 0.614690 -0.617871
O8    O     O_R   0.623220 0.499990 0.385350 -0.618134
Zn1   Zn    Zn3+2 0.500010 0.500020 0.653130 0.938476
Zn2   Zn    Zn3+2 0.499990 0.499980 0.346870 0.972813
O9    O     O_3   0.064433 0.266828 0.438777 -0.615049
C31   C     C_3   0.000404 0.173990 0.436613 0.111937
H11   H     H_    0.947001 0.200645 0.368537 0.171139
H12   H     H_    0.975538 0.157281 0.540617 0.140851
C32   C     C_3   0.037919 0.051941 0.384137 -0.840912
H13   H     H_    0.090192 0.020660 0.451634 0.260042
H14   H     H_    0.987967 0.978155 0.381387 0.199126
H15   H     H_    0.063250 0.065626 0.280102 0.257990
N3    N     N_3   0.305533 0.327712 0.865647 -0.459712
H16   H     H_    0.339660 0.247876 0.893673 0.182829
H17   H     H_    0.307574 0.331611 0.760007 0.223219
N4    N     N_3   0.320252 0.573203 0.125805 -0.396267
H18   H     H_    0.255892 0.585753 0.103170 0.168480
H19   H     H_    0.353797 0.643815 0.074901 0.162471
N5    N     N_3   0.301831 0.348131 0.147195 -0.397655
H20   H     H_    0.329257 0.261283 0.124958 0.178670
H21   H     H_    0.238427 0.345571 0.115414 0.193895
O10   O     O_3   0.937240 0.425420 0.253257 -0.613477
C33   C     C_3   0.001934 0.417578 0.154575 0.110984
H22   H     H_    0.055665 0.358040 0.189494 0.171065
H23   H     H_    0.026233 0.512758 0.128971 0.137278
C34   C     C_3   0.965644 0.358839 0.026435 -0.848250
H24   H     H_    0.913716 0.418170 0.985629 0.260568
H25   H     H_    0.016325 0.350409 0.948645 0.203555
H26   H     H_    0.940187 0.263860 0.049052 0.259612
N6    N     N_3   0.939508 0.735543 0.563408 -0.450466
H27   H     H_    0.991793 0.795371 0.574567 0.193682
H28   H     H_    0.905089 0.767961 0.480031 0.179148
N7    N     N_3   0.060788 0.574271 0.751309 -0.455406
H29   H     H_    0.008747 0.584573 0.816168 0.194984
H30   H     H_    0.097721 0.501462 0.790284 0.184303
N8    N     N_3   0.576369 0.129217 0.264417 -0.420811
H31   H     H_    0.633152 0.175581 0.287995 0.187844
H32   H     H_    0.590544 0.066021 0.186561 0.170361

loop_
_geom_bond_atom_site_label_1
_geom_bond_atom_site_label_2
_ccdc_geom_bond_type
C18   C21   A    
C19   C20   A    
C4    C8    S    
N7    H29   S    
O9    C31   S    
C16   H1    S    
C26   C27   S    
C34   H25   S    
C12   C28   S    
C18   C24   S    
C8    C29   T    
N8    H32   S    
C5    C6    S    
N6    H28   S    
C32   H14   S    
O3    Zn1   S    
C15   C16   S    
O4    Zn2   S    
N3    H17   S    
C25   O8    A    
C24   N5    S    
C20   H5    S    
C1    O1    A    
C2    C7    S    
C16   C17   S    
O7    Zn1   S    
C34   H26   S    
O8    Zn2   S    
O10   C33   S    
C13   C14   A    
C9    C10   A    
N1    Zn2   S    
N2    Zn1   S    
O2    Zn2   S    
C24   N4    S    
C5    H8    S    
C17   H3    S    
N7    H30   S    
C25   C29   S    
C31   H12   S    
C23   O5    A    
C34   H24   S    
N5    H20   S    
N8    H31   S    
C4    C6    S    
C18   N1    A    
C33   H23   S    
N6    H27   S    
C32   H15   S    
O5    Zn1   S    
C7    C28   T    
N5    H21   S    
C12   O4    A    
N4    H19   S    
C14   C23   S    
C3    C30   S    
C1    O2    A    
C20   N2    A    
C6    C27   S    
C2    C27   S    
C16   H10   S    
C9    C17   S    
C26   C30   S    
C22   C24   S    
C2    C5    S    
C3    C4    S    
C6    O10   S    
C31   H11   S    
C23   O6    A    
C1    C10   S    
C12   O3    A    
C3    C5    S    
C19   H4    S    
C33   C34   S    
C4    C26   S    
C27   O9    S    
C26   H7    S    
C11   N8    S    
C22   H6    S    
C2    C30   S    
N4    H18   S    
C30   N7    S    
C9    C15   A    
C33   H22   S    
C22   N3    S    
C11   C13   A    
O1    Zn1   S    
C32   H13   S    
N3    H16   S    
C25   O7    A    
C13   H9    S    
C10   C11   A    
C21   N2    A    
O6    Zn2   S    
C17   H2    S    
C14   C15   A    
C21   C22   S    
C3    N6    S    
C19   N1    A    
C31   C32   S    
