data_mof_unit_25924.cif
_audit_creation_date              2012-12-10T17:57:23-0500
_audit_creation_method            fapswitch 2.2
_symmetry_space_group_name_H-M    P1
_symmetry_Int_Tables_number       1
_space_group_crystal_system       triclinic
_cell_length_a                    9.516199
_cell_length_b                    10.833619
_cell_length_c                    13.363734
_cell_angle_alpha                 90.081788
_cell_angle_beta                  73.541774
_cell_angle_gamma                 90.010323
_cell_volume                      1321.28064708

loop_
_atom_site_label
_atom_site_type_symbol
_atom_type_description
_atom_site_fract_x
_atom_site_fract_y
_atom_site_fract_z
_atom_type_partial_charge
C1    C     C_R   0.500002 0.737941 0.500094 0.801123
C2    C     C_R   0.450500 0.408570 0.972898 0.010041
C3    C     C_R   0.494824 0.421222 0.862789 0.077686
C4    C     C_R   0.556095 0.434364 0.027429 0.098263
C5    C     C_R   0.706392 0.443118 0.971167 0.169763
C6    C     C_R   0.750316 0.421033 0.864436 -0.251526
C7    C     C_R   0.646065 0.408405 0.810967 -0.187257
C8    C     C_R   0.515742 0.463264 0.134185 -0.184111
C9    C     C_R   0.770059 0.493297 0.129131 -0.167824
C10   C     C_R   0.386210 0.443159 0.809702 -0.100022
C11   C     C_R   0.627066 0.936212 0.501600 -0.177163
C12   C     C_R   0.424247 0.483622 0.698966 0.800125
C13   C     C_R   0.627092 0.063918 0.501483 -0.178436
C14   C     C_R   0.500039 0.128236 0.499857 -0.013612
C15   C     C_R   0.372988 0.063841 0.498290 -0.164267
C16   C     C_R   0.372951 0.936138 0.498435 -0.176843
C17   C     C_R   0.499999 0.871803 0.500068 -0.024516
C18   C     C_R   0.898987 0.574135 0.566967 -0.037009
C19   C     C_R   0.047803 0.573991 0.567033 -0.031268
C20   C     C_R   0.100945 0.425694 0.433177 -0.016906
C21   C     C_R   0.952013 0.425661 0.433280 -0.018648
C22   C     C_R   0.500018 0.262062 0.499862 0.790325
C23   C     C_R   0.577521 0.499122 0.299784 0.818969
C24   C     C_R   0.811186 0.474546 0.021939 -0.196938
C25   C     C_R   0.622043 0.486962 0.185965 -0.068140
C26   C     C_R   0.238738 0.423373 0.863722 -0.232659
C27   C     C_R   0.199871 0.380088 0.965923 -0.195197
C28   C     C_R   0.303712 0.370483 0.021631 -0.007613
Cu1   Cu    Cu3+1 0.359340 0.499980 0.500000 0.949472
Cu2   Cu    Cu3+1 0.640660 0.500020 0.500000 0.941643
H1    H     H_    0.853764 0.514187 0.167182 0.175700
H2    H     H_    0.726417 0.111984 0.502727 0.148297
H3    H     H_    0.273703 0.111846 0.496908 0.149881
H4    H     H_    0.273618 0.888083 0.497202 0.151111
H5    H     H_    0.821592 0.633519 0.620624 0.129936
H6    H     H_    0.082608 0.633316 0.620688 0.122824
H7    H     H_    0.178378 0.366085 0.379825 0.139752
H8    H     H_    0.916739 0.366039 0.380104 0.143661
H9    H     H_    0.865521 0.417428 0.821503 0.139484
H10   H     H_    0.924438 0.486846 0.978057 0.133870
H11   H     H_    0.401490 0.469802 0.177586 0.152039
H12   H     H_    0.153907 0.433428 0.824759 0.156420
H13   H     H_    0.088718 0.349217 0.000653 0.182656
H14   H     H_    0.687658 0.383962 0.729817 0.186261
H15   H     H_    0.726366 0.888215 0.502945 0.150955
N1    N     N_R   0.147940 0.499970 0.499970 -0.161524
N2    N     N_R   0.852060 0.500060 0.499990 -0.166395
O1    O     O_R   0.381250 0.680340 0.500010 -0.584544
O2    O     O_R   0.618820 0.680370 0.500010 -0.583448
O3    O     O_R   0.323240 0.499950 0.650980 -0.583062
O4    O     O_R   0.560810 0.499980 0.650980 -0.596584
O5    O     O_R   0.381180 0.319630 0.499990 -0.588599
O6    O     O_R   0.618750 0.319660 0.499990 -0.597981
O7    O     O_R   0.439190 0.500020 0.349020 -0.580410
O8    O     O_R   0.676760 0.500050 0.349020 -0.579195
C29   C     C_2   0.260015 0.299686 0.120918 0.798451
O9    O     O_2   0.350228 0.237170 0.147571 -0.591579
O10   O     O_R   0.113532 0.298939 0.181162 -0.792800
H16   H     H_    0.096228 0.242418 0.243868 0.317367

loop_
_geom_bond_atom_site_label_1
_geom_bond_atom_site_label_2
_ccdc_geom_bond_type
C12   O3    A    
Cu2   O4    S    
C1    O1    A    
C23   O8    A    
C6    C7    A    
C20   H7    S    
C18   H5    S    
C13   H2    S    
C1    C17   S    
C14   C15   A    
Cu1   N1    S    
C4    C8    A    
C18   N2    A    
C14   C22   S    
C2    C3    A    
C28   C29   S    
C19   N1    A    
C9    C25   A    
C9    C24   A    
C3    C10   A    
C13   C14   A    
C8    H11   S    
C8    C25   A    
C11   C13   A    
C10   C26   A    
C26   C27   A    
Cu1   Cu2   S    
C5    C24   A    
C10   C12   S    
Cu1   O3    S    
C2    C4    A    
C24   H10   S    
Cu2   O2    S    
C29   O10   S    
C22   O6    A    
C3    C7    A    
C19   H6    S    
C23   C25   S    
C5    C6    A    
Cu2   O6    S    
C11   H15   S    
Cu1   O7    S    
C9    H1    S    
Cu1   O1    S    
C15   C16   A    
C27   H13   S    
Cu2   N2    S    
C4    C5    A    
C12   O4    A    
C20   C21   A    
C26   H12   S    
C23   O7    A    
C22   O5    A    
C18   C19   A    
Cu2   O8    S    
C27   C28   A    
C29   O9    D    
C6    H9    S    
C11   C17   A    
C2    C28   A    
C16   H4    S    
O10   H16   S    
C7    H14   S    
C1    O2    A    
C15   H3    S    
C20   N1    A    
C21   H8    S    
C16   C17   A    
C21   N2    A    
Cu1   O5    S    
