data_mof_unit_39889.cif
_audit_creation_date              2013-03-05T15:54:37-0500
_audit_creation_method            fapswitch 2.2
_symmetry_space_group_name_H-M    P1
_symmetry_Int_Tables_number       1
_space_group_crystal_system       triclinic
_cell_length_a                    9.890849
_cell_length_b                    10.720544
_cell_length_c                    16.620957
_cell_angle_alpha                 91.851423
_cell_angle_beta                  84.554117
_cell_angle_gamma                 89.494757
_cell_volume                      1753.41187614

loop_
_atom_site_label
_atom_site_type_symbol
_atom_site_description
_atom_site_fract_x
_atom_site_fract_y
_atom_site_fract_z
_atom_type_partial_charge
O1    O     O_R   0.385310 0.683220 0.500000 -0.655517
O2    O     O_R   0.614640 0.683250 0.500010 -0.628188
C1    C     C_R   0.499260 0.740101 0.494931 0.884445
O3    O     O_R   0.371780 0.500010 0.615800 -0.645131
O4    O     O_R   0.601110 0.500030 0.615800 -0.643399
C2    C     C_R   0.480478 0.498335 0.653564 0.820512
Zn1   Zn    Zn3+2 0.346870 0.499980 0.499990 0.928316
Zn2   Zn    Zn3+2 0.653130 0.500020 0.500010 1.011630
O5    O     O_R   0.385360 0.316750 0.499990 -0.630081
O6    O     O_R   0.614690 0.316780 0.500000 -0.592016
O7    O     O_R   0.398890 0.499970 0.384200 -0.623592
O8    O     O_R   0.628220 0.499990 0.384200 -0.528275
C3    C     C_R   0.498344 0.261230 0.508768 0.897807
C4    C     C_R   0.519661 0.496451 0.346440 0.954120
C5    C     C_R   0.468533 0.475910 0.739734 -0.026330
C6    C     C_R   0.581505 0.494277 0.783172 -0.208606
C7    C     C_R   0.579464 0.453893 0.861508 -0.141873
C8    C     C_R   0.464753 0.392937 0.897192 0.196056
C9    C     C_R   0.349166 0.380390 0.855304 -0.167841
C10   C     C_R   0.350973 0.421424 0.776664 -0.202678
C11   C     C_R   0.460736 0.320308 0.157070 -0.123185
C12   C     C_R   0.443038 0.371423 0.234857 -0.218631
C13   C     C_R   0.646065 0.497285 0.208115 0.343049
C14   C     C_R   0.663756 0.443219 0.130031 -0.211290
C15   C     C_R   0.569288 0.358195 0.103895 0.132392
C16   C     C_2   0.458498 0.354971 0.981208 -0.225535
C17   C     C_2   0.570941 0.330958 0.017334 -0.208084
C18   C     C_R   0.533892 0.460607 0.260867 -0.155345
H1    H     H_    0.359088 0.339279 0.275341 0.179849
H2    H     H_    0.669087 0.321501 0.982297 0.153581
H3    H     H_    0.258494 0.337177 0.883038 0.134956
H4    H     H_    0.387530 0.253989 0.137547 0.154936
H5    H     H_    0.262678 0.406149 0.743875 0.154307
H6    H     H_    0.360638 0.364935 0.016716 0.165070
H7    H     H_    0.667236 0.472418 0.894005 0.130663
H8    H     H_    0.713763 0.887170 0.496825 0.182095
C19   C     C_R   0.245446 0.890404 0.474736 -0.151512
H9    H     H_    0.241450 0.805147 0.438712 0.183051
C20   C     C_R   0.122099 0.952130 0.496727 -0.096430
H10   H     H_    0.027837 0.910718 0.481743 0.160114
C21   C     C_R   0.120221 0.065289 0.539926 -0.127695
H11   H     H_    0.024431 0.110857 0.560421 0.149473
C22   C     C_R   0.242305 0.122188 0.553889 -0.167530
H12   H     H_    0.236829 0.209849 0.588211 0.157548
C23   C     C_R   0.368394 0.065430 0.524802 0.098964
C24   C     C_R   0.369503 0.941219 0.496652 0.084896
C25   C     C_R   0.494928 0.874180 0.492501 -0.109456
C26   C     C_R   0.617020 0.936265 0.500213 -0.184399
H13   H     H_    0.713217 0.109798 0.512157 0.207669
C27   C     C_R   0.616723 0.063163 0.511504 -0.177056
C28   C     C_R   0.493770 0.128852 0.520239 -0.145302
C29   C     C_R   0.842216 0.667349 0.604494 -0.146101
H14   H     H_    0.734369 0.672787 0.609132 0.198542
C30   C     C_R   0.904139 0.749475 0.655700 -0.217933
H15   H     H_    0.842953 0.813855 0.695760 0.151229
C31   C     C_R   0.043975 0.748197 0.656131 -0.181799
H16   H     H_    0.091893 0.811709 0.696385 0.153259
C32   C     C_R   0.122712 0.665122 0.605109 -0.138384
H17   H     H_    0.229233 0.668472 0.609580 0.204585
C33   C     C_R   0.063599 0.582100 0.551455 0.133343
C34   C     C_R   0.918900 0.582596 0.551273 0.103591
N1    N     N_R   0.857140 0.501200 0.500750 -0.177350
C35   C     C_R   0.937800 0.419365 0.451673 0.348426
H18   H     H_    0.142736 0.354906 0.412769 0.181884
C36   C     C_R   0.080923 0.419904 0.451984 -0.169384
N2    N     N_R   0.142740 0.501280 0.500770 -0.147859
H19   H     H_    0.672432 0.537922 0.756101 0.155284
H20   H     H_    0.745396 0.474540 0.087553 0.164835
N3    N     N_R   0.878755 0.331294 0.399593 0.223825
O9    O     O_R   0.894669 0.212871 0.411114 -0.433960
O10   O     O_R   0.850671 0.365849 0.328757 -0.348861
N4    N     N_R   0.738034 0.592478 0.231155 0.225661
O11   O     O_R   0.693510 0.687932 0.276756 -0.394143
O12   O     O_R   0.862915 0.592383 0.198428 -0.359208

loop_
_geom_bond_atom_site_label_1
_geom_bond_atom_site_label_2
_geom_bond_distance
_ccdc_geom_bond_type
O4    Zn2   1.944380 S    
C22   H12   1.081726 S    
C35   C36   1.416166 A    
C30   C31   1.383745 A    
H8    C26   1.083871 S    
C19   H9    1.079457 S    
C12   H1    1.083957 S    
C17   H2    1.085781 S    
C15   C17   1.457308 S    
N4    O12   1.301518 A    
C21   C22   1.393219 A    
C21   H11   1.082664 S    
C9    C10   1.391092 A    
C25   C26   1.398483 A    
C8    C16   1.462958 S    
Zn2   O8    1.963624 S    
C9    H3    1.083538 S    
H18   C36   1.082443 S    
C29   C30   1.390929 A    
N1    C35   1.374568 A    
C26   C27   1.367214 A    
C27   C28   1.393091 A    
C2    C5    1.453831 S    
C33   N2    1.374353 A    
C20   C21   1.388651 A    
C6    H19   1.083712 S    
C12   C18   1.403817 A    
C11   C12   1.382781 A    
C29   H14   1.063102 S    
Zn1   N2    2.017752 S    
Zn1   O7    1.944380 S    
C22   C23   1.418619 A    
C16   C17   1.339929 D    
C5    C10   1.403453 A    
C11   C15   1.396302 A    
O3    Zn1   1.963624 S    
O4    C2    1.294954 A    
C1    C25   1.439641 S    
O7    C4    1.295220 A    
O8    C4    1.294349 A    
C7    C8    1.405877 A    
O2    C1    1.300111 A    
C29   C34   1.411331 A    
C36   N2    1.360228 A    
C19   C24   1.420871 A    
C3    C28   1.438544 S    
C34   N1    1.378109 A    
C11   H4    1.083433 S    
N3    O9    1.300427 A    
O3    C2    1.295627 A    
N3    O10   1.299611 A    
C31   H16   1.082732 S    
C10   H5    1.083326 S    
C13   C14   1.399086 A    
C32   C33   1.409308 A    
C5    C6    1.398718 A    
C23   C24   1.396685 A    
C14   C15   1.399675 A    
N4    O11   1.301602 A    
C19   C20   1.394774 A    
H13   C27   1.082131 S    
C24   C25   1.423055 A    
Zn2   N1    2.019184 S    
C20   H10   1.082871 S    
Zn1   O5    1.997579 S    
C23   C28   1.416394 A    
C30   H15   1.082770 S    
C8    C9    1.399136 A    
O1    Zn1   2.004174 S    
O5    C3    1.284213 A    
C7    H7    1.081653 S    
C4    C18   1.454707 S    
C32   H17   1.064049 S    
C13   C18   1.414090 A    
C14   H20   1.084045 S    
C13   N4    1.439728 S    
C16   H6    1.087314 S    
Zn2   O6    2.004174 S    
O2    Zn2   1.997577 S    
C35   N3    1.426430 S    
C6    C7    1.383712 A    
C31   C32   1.390120 A    
C33   C34   1.431457 A    
O1    C1    1.283217 A    
O6    C3    1.298460 A    
