data_mof_unit_59312.cif
_audit_creation_date              2013-03-05T16:12:16-0500
_audit_creation_method            fapswitch 2.2
_symmetry_space_group_name_H-M    P1
_symmetry_Int_Tables_number       1
_space_group_crystal_system       triclinic
_cell_length_a                    10.698274
_cell_length_b                    9.838112
_cell_length_c                    19.148474
_cell_angle_alpha                 90.039394
_cell_angle_beta                  89.846805
_cell_angle_gamma                 90.00068
_cell_volume                      2015.38486802

loop_
_atom_site_label
_atom_site_type_symbol
_atom_site_description
_atom_site_fract_x
_atom_site_fract_y
_atom_site_fract_z
_atom_type_partial_charge
O1    O     O_R   0.316770 0.614620 0.500000 -0.627892
O2    O     O_R   0.683230 0.385380 0.500000 -0.633956
O3    O     O_R   0.683230 0.614620 0.500000 -0.629299
O4    O     O_R   0.316770 0.385380 0.500000 -0.632173
C1    C     C_R   0.259888 0.500058 0.500516 0.866028
C2    C     C_R   0.740116 0.500058 0.500386 0.869751
O5    O     O_R   0.499990 0.614700 0.398140 -0.609760
O6    O     O_R   0.500010 0.385300 0.601860 -0.628660
O7    O     O_R   0.500010 0.614700 0.601860 -0.611712
O8    O     O_R   0.499990 0.385300 0.398140 -0.625902
C3    C     C_R   0.500306 0.500066 0.366021 0.885340
C4    C     C_R   0.499819 0.500136 0.633947 0.887102
Zn1   Zn    Zn3+2 0.500000 0.653120 0.500000 0.935064
Zn2   Zn    Zn3+2 0.500000 0.346880 0.500000 0.935064
C5    C     C_R   0.063919 0.379774 0.516429 -0.200580
C6    C     C_R   0.936132 0.621534 0.487982 -0.215660
C7    C     C_R   0.935921 0.379763 0.516370 -0.204555
C8    C     C_R   0.064029 0.621502 0.487946 -0.213440
H1    H     H_    0.112718 0.285987 0.528054 0.150491
H2    H     H_    0.887478 0.715407 0.476352 0.157033
H3    H     H_    0.887001 0.285946 0.527906 0.154731
H4    H     H_    0.112812 0.715388 0.476370 0.160680
C9    C     C_R   0.872526 0.500411 0.501610 -0.000296
C10   C     C_R   0.127473 0.500401 0.501648 -0.002915
C11   C     C_R   0.583147 0.071900 0.459772 -0.070626
C12   C     C_R   0.416821 0.928106 0.540196 -0.074148
C13   C     C_R   0.416835 0.072019 0.540210 -0.068540
C14   C     C_R   0.583156 0.927973 0.459777 -0.073748
C15   C     C_R   0.385825 0.522743 0.255466 0.123874
C16   C     C_R   0.615547 0.512944 0.744421 0.124241
C17   C     C_R   0.385850 0.502805 0.745553 0.123168
C18   C     C_R   0.614030 0.493183 0.254296 0.124032
C19   C     C_R   0.388150 0.538242 0.183229 -0.188188
C20   C     C_R   0.614326 0.528585 0.816653 -0.189138
C21   C     C_R   0.387534 0.518732 0.817774 -0.189748
C22   C     C_R   0.613414 0.509029 0.182074 -0.189123
H5    H     H_    0.300934 0.554923 0.155888 0.159785
H6    H     H_    0.702460 0.537865 0.844017 0.158854
H7    H     H_    0.299650 0.519972 0.846044 0.158491
H8    H     H_    0.701148 0.503224 0.153820 0.158720
C23   C     C_R   0.501246 0.531793 0.146402 0.007612
C24   C     C_R   0.501037 0.532004 0.853454 0.008251
H9    H     H_    0.649584 0.126428 0.427600 0.124374
H10   H     H_    0.350307 0.873639 0.572308 0.122368
H11   H     H_    0.350367 0.126629 0.572365 0.120771
H12   H     H_    0.649612 0.873362 0.427621 0.120959
N1    N     N_R   0.500000 0.857200 0.500000 -0.082323
N2    N     N_R   0.500000 0.142800 0.500000 -0.078967
C25   C     C_R   0.499656 0.501513 0.290886 -0.084690
C26   C     C_R   0.500521 0.501740 0.709026 -0.082404
N3    N     N_R   0.610732 0.538241 0.034350 -0.182116
N4    N     N_R   0.392502 0.549963 0.965502 -0.181983
N5    N     N_R   0.610666 0.538347 0.965103 -0.182320
N6    N     N_R   0.392573 0.549931 0.034758 -0.182362
C27   C     C_R   0.501495 0.542839 0.929470 0.315607
C28   C     C_R   0.501635 0.542693 0.070388 0.315474
C29   C     C_3   0.260786 0.528466 0.292891 -0.417590
C30   C     C_3   0.221247 0.675022 0.306744 -0.839395
H13   H     H_    0.128881 0.676072 0.333311 0.242420
H14   H     H_    0.290308 0.726566 0.340901 0.277251
H15   H     H_    0.213231 0.731809 0.256841 0.257611
H16   H     H_    0.188171 0.477692 0.260642 0.206117
H17   H     H_    0.263413 0.472218 0.343101 0.201310
C31   C     C_3   0.740456 0.507765 0.706809 -0.427661
C32   C     C_3   0.785965 0.650043 0.687875 -0.833193
H18   H     H_    0.717810 0.701664 0.653274 0.278592
H19   H     H_    0.799236 0.711840 0.735860 0.256782
H20   H     H_    0.876742 0.642763 0.659862 0.246398
H21   H     H_    0.811488 0.458048 0.740532 0.206660
H22   H     H_    0.734693 0.444858 0.658748 0.202994
C33   C     C_3   0.260940 0.487067 0.709109 -0.428538
C34   C     C_3   0.207624 0.624741 0.687883 -0.850214
H23   H     H_    0.272113 0.677653 0.651483 0.267396
H24   H     H_    0.116709 0.609755 0.661119 0.249907
H25   H     H_    0.192357 0.689330 0.734742 0.259778
H26   H     H_    0.269622 0.421071 0.662255 0.201620
H27   H     H_    0.192980 0.435618 0.744298 0.206676
C35   C     C_3   0.737908 0.469701 0.290658 -0.425037
C36   C     C_3   0.799489 0.604142 0.310409 -0.863311
H28   H     H_    0.739860 0.661241 0.347807 0.264216
H29   H     H_    0.891139 0.583876 0.335386 0.252472
H30   H     H_    0.815353 0.667183 0.263104 0.262512
H31   H     H_    0.725853 0.406281 0.338144 0.207015
H32   H     H_    0.802210 0.412240 0.255753 0.206569

loop_
_geom_bond_atom_site_label_1
_geom_bond_atom_site_label_2
_geom_bond_distance
_ccdc_geom_bond_type
C13   N2    1.366170 A    
C14   N1    1.366201 A    
C16   C31   1.517183 S    
C20   C24   1.400729 A    
O3    C2    1.280926 A    
C11   H9    1.081923 S    
C12   H10   1.081525 S    
C29   H16   1.111972 S    
C15   C25   1.411133 A    
C11   C14   1.415975 A    
O5    C3    1.284215 A    
C14   H12   1.081885 S    
C12   C13   1.415830 A    
C7    C9    1.396493 A    
O1    C1    1.280887 A    
C18   C22   1.391834 A    
C33   H26   1.110795 S    
C30   H14   1.110373 S    
C15   C19   1.391853 A    
N3    C28   1.354999 A    
C21   C24   1.400941 A    
O7    Zn1   1.987006 S    
C5    H1    1.083688 S    
C35   H31   1.110349 S    
C32   H19   1.110846 S    
C8    C10   1.396563 A    
C31   H22   1.110538 S    
O3    Zn1   1.996506 S    
N4    C27   1.355076 A    
O6    C4    1.285661 A    
C13   H11   1.081955 S    
C30   H15   1.110750 S    
C17   C33   1.517092 S    
C16   C26   1.410735 A    
C20   H6    1.083743 S    
C22   C23   1.400478 A    
O2    C2    1.281907 A    
C34   H25   1.110846 S    
N4    N6    1.326153 A    
C29   H17   1.110087 S    
N5    C27   1.354955 A    
N6    C28   1.355080 A    
C16   C20   1.391591 A    
C22   H8    1.083597 S    
C34   H24   1.110387 S    
O8    Zn2   1.987006 S    
C36   H29   1.110185 S    
C35   C36   1.525477 S    
O4    C1    1.281899 A    
Zn2   N2    2.007762 S    
C30   H13   1.110251 S    
C7    H3    1.083631 S    
N3    N5    1.325985 A    
C21   H7    1.083708 S    
C23   C28   1.459569 S    
C3    C25   1.438832 S    
C24   C27   1.459435 S    
C6    H2    1.083681 S    
C32   H20   1.110479 S    
C31   H21   1.112092 S    
C11   N2    1.366302 A    
C12   N1    1.366209 A    
C5    C10   1.396477 A    
C15   C29   1.516907 S    
C6    C9    1.396624 A    
C17   C21   1.391826 A    
O1    Zn1   1.996499 S    
C17   C26   1.410578 A    
C33   H27   1.112050 S    
Zn1   N1    2.007762 S    
C5    C7    1.369364 A    
O6    Zn2   1.986496 S    
C8    H4    1.083653 S    
C34   H23   1.109363 S    
C36   H30   1.110811 S    
C4    C26   1.437766 S    
C19   C23   1.400216 A    
C31   C32   1.525617 S    
C33   C34   1.525483 S    
C29   C30   1.525474 S    
C1    C10   1.416724 S    
C2    C9    1.416830 S    
O4    Zn2   1.996507 S    
O2    Zn2   1.996498 S    
O7    C4    1.284060 A    
C19   H5    1.083680 S    
C18   C25   1.410733 A    
O8    C3    1.286091 A    
C18   C35   1.516482 S    
C36   H28   1.110116 S    
C35   H32   1.112016 S    
O5    Zn1   1.986496 S    
C6    C8    1.368273 A    
C32   H18   1.109777 S    
