data_mof_unit_21206.cif
_audit_creation_date              2012-12-11T17:00:21-0500
_audit_creation_method            fapswitch 2.2
_symmetry_space_group_name_H-M    P1
_symmetry_Int_Tables_number       1
_space_group_crystal_system       triclinic
_cell_length_a                    6.945806
_cell_length_b                    13.693742
_cell_length_c                    20.220064
_cell_angle_alpha                 103.243769
_cell_angle_beta                  90.78995
_cell_angle_gamma                 89.762086
_cell_volume                      1871.88436833

loop_
_atom_site_label
_atom_site_type_symbol
_atom_type_description
_atom_site_fract_x
_atom_site_fract_y
_atom_site_fract_z
_atom_type_partial_charge
O1    O     O_R   0.506770 0.599700 0.449550 -0.543967
O2    O     O_R   0.179980 0.595740 0.587960 -0.550338
O3    O     O_R   0.004580 0.400300 0.550450 -0.543232
C1    C     C_R   0.348528 0.616814 0.615414 0.674792
O4    O     O_R   0.177380 0.611700 0.452380 -0.534128
O5    O     O_R   0.001970 0.416370 0.413900 -0.497582
C2    C     C_R   0.345525 0.636350 0.434119 0.746173
O6    O     O_R   0.509390 0.583630 0.586100 -0.550390
O7    O     O_3   0.337530 0.435890 0.487530 -0.343407
V1    V     V_3+5 0.064660 0.511890 0.502310 1.499821
O8    O     O_R   0.671950 0.404260 0.412040 -0.536581
C3    C     C_R   0.840295 0.382662 0.384782 0.797036
O9    O     O_R   0.674540 0.388300 0.547620 -0.536903
C4    C     C_R   0.844867 0.361958 0.564359 0.704330
V2    V     V_3+5 0.564030 0.488110 0.497690 1.507607
O10   O     O_3   0.841030 0.564110 0.512470 -0.391385
C5    C     C_R   0.970624 0.118459 0.610369 0.161636
H1    H     H_    0.961789 0.173087 0.518333 0.137482
H2    H     H_    0.031945 0.998921 0.698642 0.141627
C6    C     C_R   0.861298 0.284335 0.603264 -0.076434
C7    C     C_R   0.788847 0.309759 0.928495 -0.214520
C8    C     C_R   0.756303 0.383286 0.892337 0.450670
C9    C     C_R   0.783014 0.361974 0.822227 -0.208932
C10   C     C_R   0.844905 0.265768 0.786272 0.029196
C11   C     C_R   0.884023 0.192034 0.824292 0.072080
C12   C     C_R   0.869278 0.240493 0.714059 0.068076
C13   C     C_R   0.939227 0.143271 0.681640 0.126458
C14   C     C_R   0.978586 0.073267 0.721074 -0.208848
C15   C     C_R   0.950719 0.096944 0.790675 -0.190795
C16   C     C_R   0.827901 0.309061 0.672975 -0.227111
C17   C     C_R   0.933125 0.190102 0.572354 -0.137561
C18   C     C_R   0.853016 0.214542 0.895369 -0.134093
H3    H     H_    0.774374 0.383591 0.693533 0.104241
H4    H     H_    0.762953 0.326693 0.982684 0.137516
H5    H     H_    0.754519 0.422688 0.797838 0.143019
H6    H     H_    0.984090 0.039695 0.818137 0.117322
C19   C     C_R   0.731108 0.170447 0.231628 0.125306
C20   C     C_R   0.867547 0.183755 0.184039 -0.149045
C21   C     C_R   0.008747 0.257815 0.206054 -0.234101
H7    H     H_    0.119313 0.269403 0.171373 0.145880
C22   C     C_R   0.999597 0.323039 0.270916 0.397674
C23   C     C_R   0.852932 0.312997 0.316897 -0.197984
C24   C     C_R   0.726617 0.231761 0.296857 0.019026
C25   C     C_3   0.512397 0.229424 0.298076 0.241664
C26   C     C_3   0.516784 0.163772 0.226367 -0.402642
H8    H     H_    0.448822 0.304405 0.301683 0.166113
H9    H     H_    0.456986 0.201722 0.187520 0.142036
H10   H     H_    0.463111 0.086342 0.222214 0.217393
C27   C     C_R   0.493907 0.759669 0.702682 0.094619
C28   C     C_R   0.351718 0.686409 0.683256 -0.130920
C29   C     C_R   0.198737 0.687001 0.728714 -0.159737
H11   H     H_    0.082673 0.633404 0.715249 0.126334
C30   C     C_R   0.199564 0.752595 0.793622 -0.166069
H12   H     H_    0.085126 0.747464 0.828387 0.134455
C31   C     C_R   0.354545 0.818564 0.815124 -0.097780
C32   C     C_R   0.496403 0.823052 0.767240 0.061647
C33   C     C_3   0.710524 0.819216 0.772676 -0.392612
C34   C     C_3   0.707977 0.750533 0.701577 -0.020618
H13   H     H_    0.758322 0.780601 0.812735 0.162536
H14   H     H_    0.776988 0.893817 0.776023 0.170973
H15   H     H_    0.757588 0.672786 0.699996 0.139281
C35   C     C_R   0.515463 0.867983 0.386670 -0.092520
H16   H     H_    0.480028 0.822660 0.480228 0.104822
H17   H     H_    0.667842 0.964572 0.301793 0.187149
H18   H     H_    0.586645 0.937202 0.411636 0.143482
C36   C     C_R   0.361613 0.713663 0.395128 -0.053576
C37   C     C_R   0.273473 0.697644 0.074179 -0.126043
C38   C     C_R   0.273162 0.616447 0.104406 -0.062825
C39   C     C_R   0.345584 0.626035 0.170510 0.150698
C40   C     C_R   0.394935 0.722901 0.210102 0.040157
C41   C     C_R   0.440753 0.797314 0.173820 -0.016009
C42   C     C_R   0.408541 0.748671 0.282873 0.058067
C43   C     C_R   0.496918 0.840655 0.315702 0.082444
C44   C     C_R   0.578721 0.901372 0.277274 -0.170656
C45   C     C_R   0.560626 0.877468 0.206965 0.296636
C46   C     C_R   0.330780 0.688899 0.324417 -0.193091
C47   C     C_R   0.452039 0.803821 0.425917 -0.178525
C48   C     C_R   0.366247 0.786597 0.106266 -0.066672
H19   H     H_    0.250819 0.621900 0.302419 0.191654
H20   H     H_    0.215326 0.688276 0.023081 0.141819
H21   H     H_    0.226436 0.544048 0.074602 0.146418
O11   O     O_R   0.203450 0.916320 0.913910 -0.550858
O12   O     O_R   0.535520 0.888300 0.047620 -0.500063
O13   O     O_R   0.710860 0.083650 0.086100 -0.525814
C49   C     C_R   0.369758 0.867182 0.068917 0.764993
O14   O     O_R   0.532860 0.904250 0.912040 -0.542691
O15   O     O_R   0.708190 0.099710 0.949550 -0.546324
C50   C     C_R   0.363890 0.883159 0.884620 0.695599
O16   O     O_R   0.206120 0.900260 0.050460 -0.530518
O17   O     O_3   0.375280 0.064080 0.012470 -0.384579
V3    V     V_3+5 0.648180 0.988110 0.997690 1.520727
O18   O     O_R   0.038220 0.111740 0.952370 -0.547617
C51   C     C_R   0.868100 0.137436 0.935101 0.682113
O19   O     O_R   0.040880 0.095790 0.087940 -0.546256
C52   C     C_R   0.872678 0.118394 0.114779 0.802392
V4    V     V_3+5 0.148800 0.011950 0.002300 1.466079
O20   O     O_3   0.871820 0.935920 0.987530 -0.355321
Cl1   Cl    Cl    0.159186 0.424537 0.289338 -0.775505
Cl2   Cl    Cl    0.427187 0.165431 0.359513 -0.650040
C53   C     C_3   0.797155 0.797456 0.647407 -0.755640
H22   H     H_    0.737669 0.873649 0.649743 0.207137
H23   H     H_    0.955532 0.803158 0.655217 0.214273
H24   H     H_    0.766367 0.749719 0.596179 0.220026
C54   C     C_3   0.413693 0.530275 0.187584 -0.733422
H25   H     H_    0.487344 0.541249 0.237646 0.230209
H26   H     H_    0.291209 0.477867 0.183092 0.251298
H27   H     H_    0.521394 0.494281 0.149495 0.212503
Cl3   Cl    Cl    0.748915 0.922249 0.165506 -0.662667
C55   C     C_3   0.047864 0.017449 0.573894 -0.796796
H28   H     H_    0.191087 0.004199 0.595331 0.210609
H29   H     H_    0.946757 0.957398 0.579358 0.204407
H30   H     H_    0.065566 0.012363 0.518681 0.227077
Cl4   Cl    Cl    0.677663 0.502895 0.935111 -0.675068

loop_
_geom_bond_atom_site_label_1
_geom_bond_atom_site_label_2
_ccdc_geom_bond_type
C31   C32   A    
O15   V3    S    
C43   C44   A    
C35   C47   A    
C46   H19   S    
C42   C46   A    
C54   H26   S    
O17   V3    S    
C21   C22   A    
C6    C16   A    
C30   H12   S    
C15   H6    S    
C12   C13   A    
C38   H21   S    
C14   C15   A    
C10   C12   A    
O14   V3    S    
C55   H29   S    
O5    C3    A    
C20   C21   A    
C25   Cl2   S    
O14   C50   A    
C33   H13   S    
V2    O10   S    
O18   V4    S    
C32   C33   S    
C22   C23   A    
C31   C50   S    
O18   C51   A    
C3    C23   S    
O8    V2    S    
C8    Cl4   S    
C38   C39   A    
C20   C52   S    
C9    C10   A    
C35   C43   A    
C40   C41   A    
O1    V2    S    
O13   V3    S    
O7    V1    S    
C16   H3    S    
C1    O6    A    
C11   C18   A    
C30   C31   A    
C18   C51   S    
C45   Cl3   S    
O9    C4    A    
O19   C52   A    
C37   C48   A    
C54   H25   S    
C25   H8    S    
C26   H9    S    
C11   C15   A    
C7    C18   A    
O11   V4    S    
C44   C45   A    
C37   C38   A    
C5    C13   A    
C4    C6    S    
C34   C53   S    
C10   C11   A    
C55   H30   S    
C21   H7    S    
O4    C2    A    
C49   O16   A    
C33   H14   S    
C7    H4    S    
C53   H24   S    
C27   C34   S    
C29   H11   S    
C1    C28   S    
C29   C30   A    
O13   C52   A    
C19   C24   A    
O2    C1    A    
C24   C25   S    
C19   C20   A    
C36   C46   A    
V4    O20   S    
C53   H23   S    
C28   C29   A    
V3    O20   S    
O19   V4    S    
H2    C14   S    
O3    C4    A    
C48   C49   S    
O12   C49   A    
C12   C16   A    
O6    V2    S    
C9    H5    S    
O9    V2    S    
C5    C17   A    
C23   C24   A    
C19   C26   S    
O2    V1    S    
C25   C26   S    
H16   C47   S    
C26   H10   S    
C36   C47   A    
C35   H18   S    
O1    C2    A    
C8    C9    A    
C37   H20   S    
C42   C43   A    
C5    C55   S    
O5    V1    S    
O8    C3    A    
O17   V4    S    
C27   C32   A    
O12   V3    S    
O16   V4    S    
O7    V2    S    
O4    V1    S    
O3    V1    S    
V1    O10   S    
C55   H28   S    
C2    C36   S    
C41   C45   A    
C33   C34   S    
C34   H15   S    
O11   C50   A    
O15   C51   A    
C53   H22   S    
C41   C48   A    
C39   C40   A    
C27   C28   A    
C13   C14   A    
H17   C44   S    
C22   Cl1   S    
C40   C42   A    
H1    C17   S    
C7    C8    A    
C54   H27   S    
C39   C54   S    
C6    C17   A    
