data_mof_unit_33322.cif
_audit_creation_date              2012-12-10T20:29:24-0500
_audit_creation_method            fapswitch 2.2
_symmetry_space_group_name_H-M    P1
_symmetry_Int_Tables_number       1
_space_group_crystal_system       triclinic
_cell_length_a                    18.711508
_cell_length_b                    18.626226
_cell_length_c                    18.824729
_cell_angle_alpha                 109.485817
_cell_angle_beta                  109.682065
_cell_angle_gamma                 109.247496
_cell_volume                      5050.40961738

loop_
_atom_site_label
_atom_site_type_symbol
_atom_type_description
_atom_site_fract_x
_atom_site_fract_y
_atom_site_fract_z
_atom_type_partial_charge
C1    C     C_R   0.381441 0.501807 0.380056 0.874945
C2    C     C_R   0.780749 0.144792 0.736363 -0.145487
C3    C     C_R   0.004125 0.740036 0.322341 -0.015515
C4    C     C_R   0.062318 0.853143 0.122189 -0.151806
C5    C     C_R   0.776470 0.749005 0.782569 -0.116884
C6    C     C_R   0.061659 0.867410 0.053664 -0.142607
C7    C     C_R   0.996191 0.803505 0.967809 -0.118357
C8    C     C_R   0.931120 0.725497 0.950470 -0.116212
C9    C     C_R   0.931001 0.711172 0.018770 -0.114084
C10   C     C_R   0.997284 0.774543 0.105208 0.128087
C11   C     C_R   0.308666 0.295758 0.841754 -0.141082
C12   C     C_R   0.226341 0.279024 0.831790 -0.139061
C13   C     C_R   0.698077 0.126714 0.726130 -0.152228
C14   C     C_R   0.166573 0.280476 0.763728 0.135017
C15   C     C_R   0.190479 0.299990 0.706510 -0.150162
C16   C     C_R   0.273416 0.317923 0.717532 -0.129004
C17   C     C_R   0.664702 0.180811 0.712201 -0.117018
C18   C     C_R   0.821923 0.824473 0.577608 -0.253088
C19   C     C_R   0.713860 0.252925 0.708253 -0.108034
C20   C     C_R   0.796543 0.271174 0.718468 -0.120891
C21   C     C_R   0.830773 0.217580 0.733150 0.140323
C22   C     C_R   0.813134 0.811545 0.497094 -0.064516
C23   C     C_R   0.739566 0.738379 0.418330 -0.002504
C24   C     C_R   0.679718 0.675227 0.423073 -0.263477
C25   C     C_R   0.779409 0.826259 0.831493 -0.118393
C26   C     C_R   0.689060 0.687400 0.503600 -0.080944
C27   C     C_R   0.758734 0.764310 0.581987 -0.009055
C28   C     C_R   0.640932 0.710017 0.271477 -0.155161
C29   C     C_R   0.622480 0.694889 0.187764 -0.137971
C30   C     C_R   0.684330 0.694511 0.162129 -0.124947
C31   C     C_R   0.622033 0.620529 0.502213 0.852108
C32   C     C_R   0.764772 0.709526 0.220269 -0.121755
C33   C     C_R   0.783605 0.725279 0.304231 -0.109797
C34   C     C_R   0.721937 0.725583 0.330635 0.127466
C35   C     C_R   0.448016 0.810783 0.518906 -0.145978
C36   C     C_R   0.332178 0.315185 0.784649 -0.108243
C37   C     C_R   0.378951 0.727812 0.450094 -0.147194
C38   C     C_R   0.394831 0.670015 0.395773 0.138002
C39   C     C_R   0.480483 0.696841 0.410545 -0.128846
C40   C     C_R   0.549262 0.780106 0.479128 -0.115589
C41   C     C_R   0.533124 0.836859 0.533481 -0.106756
C42   C     C_R   0.255354 0.579187 0.256200 -0.256215
C43   C     C_R   0.622519 0.502081 0.619732 0.858376
C44   C     C_R   0.186491 0.498223 0.184246 -0.076126
C45   C     C_R   0.181857 0.418761 0.176222 -0.007396
C46   C     C_R   0.247830 0.422281 0.241619 -0.264482
C47   C     C_R   0.076664 0.326730 0.816195 -0.263099
C48   C     C_R   0.316659 0.503206 0.313820 -0.080306
C49   C     C_R   0.321286 0.582782 0.321887 -0.004099
C50   C     C_R   0.053405 0.271090 0.110784 -0.144828
C51   C     C_R   0.987354 0.188219 0.039342 -0.139799
C52   C     C_R   0.978982 0.165047 0.957110 -0.110401
C53   C     C_R   0.036677 0.224687 0.946216 -0.124840
C54   C     C_R   0.102167 0.308086 0.017247 -0.137154
C55   C     C_R   0.378586 0.379712 0.498541 0.877153
C56   C     C_R   0.110850 0.331796 0.100040 0.134870
C57   C     C_R   0.203930 0.515142 0.554492 -0.141573
C58   C     C_R   0.996321 0.312943 0.810329 -0.083196
C59   C     C_R   0.219908 0.447991 0.558629 -0.147062
C60   C     C_R   0.222090 0.390511 0.489614 0.137257
C61   C     C_R   0.206888 0.400278 0.415979 -0.137925
C62   C     C_R   0.189921 0.466943 0.411725 -0.125601
C63   C     C_R   0.188967 0.524623 0.481097 -0.109182
C64   C     C_R   0.174252 0.252041 0.492472 -0.264125
C65   C     C_R   0.185872 0.182719 0.495960 -0.076187
C66   C     C_R   0.260132 0.177424 0.499088 -0.005097
C67   C     C_R   0.776481 0.883604 0.799495 -0.153627
C68   C     C_R   0.322423 0.243280 0.499197 -0.253509
C69   C     C_R   0.917482 0.235517 0.742112 -0.003651
C70   C     C_R   0.311135 0.312974 0.496608 -0.078113
C71   C     C_R   0.236905 0.318231 0.493411 -0.011046
C72   C     C_R   0.345538 0.118077 0.569645 -0.140544
C73   C     C_R   0.359438 0.048473 0.568477 -0.141740
C74   C     C_R   0.301734 0.963843 0.496527 -0.128672
C75   C     C_R   0.230001 0.948669 0.425673 -0.130540
C76   C     C_R   0.215412 0.017944 0.426864 -0.126737
C77   C     C_R   0.273118 0.103142 0.498991 0.137273
C78   C     C_R   0.778674 0.515132 0.609650 -0.190014
C79   C     C_R   0.769877 0.863332 0.718230 -0.156810
C80   C     C_R   0.921088 0.173824 0.679443 -0.256651
C81   C     C_R   0.849361 0.512989 0.601547 -0.139651
C82   C     C_R   0.906930 0.500208 0.658555 -0.139744
C83   C     C_R   0.895518 0.492074 0.725451 -0.187827
C84   C     C_R   0.825821 0.497051 0.736745 0.091509
C85   C     C_R   0.764678 0.505036 0.675995 0.093520
C86   C     C_R   0.692002 0.503914 0.684425 -0.115530
C87   C     C_R   0.681708 0.498398 0.752664 -0.232913
C88   C     C_R   0.742486 0.492835 0.813165 -0.243861
C89   C     C_R   0.814490 0.493207 0.806336 -0.124846
C90   C     C_R   0.998914 0.878148 0.380293 0.867876
C91   C     C_R   0.001396 0.188071 0.685462 -0.071927
C92   C     C_R   0.766576 0.785507 0.668482 0.137247
C93   C     C_R   0.879695 0.878325 0.498248 0.864783
C94   C     C_R   0.001032 0.121242 0.619891 0.875412
C95   C     C_R   0.120143 0.118307 0.498182 0.876814
C96   C     C_R   0.997943 0.379475 0.878034 0.859595
C97   C     C_R   0.120116 0.498915 0.119066 0.875852
C98   C     C_R   0.998788 0.620365 0.118614 0.871077
C99   C     C_R   0.880008 0.496715 0.876667 0.857269
C100  C     C_R   0.093832 0.762968 0.546516 -0.153846
C101  C     C_R   0.088482 0.777155 0.476932 -0.090275
C102  C     C_R   0.080195 0.264179 0.754493 -0.010896
C103  C     C_R   0.009502 0.726945 0.397052 0.113214
C104  C     C_R   0.771352 0.729244 0.701965 -0.105216
C105  C     C_R   0.937685 0.659025 0.386360 -0.193107
C106  C     C_R   0.943112 0.645224 0.456147 -0.123791
C107  C     C_R   0.021012 0.697445 0.536315 -0.109579
C108  C     C_R   0.000878 0.676799 0.254803 -0.253060
C109  C     C_R   0.998319 0.686778 0.183939 -0.078454
C110  C     C_R   0.998110 0.760317 0.178419 -0.003657
C111  C     C_R   0.997764 0.821881 0.244323 -0.277297
C112  C     C_R   0.000450 0.812097 0.315376 -0.090865
H1    H     H_    0.783773 0.841567 0.894070 0.127208
H2    H     H_    0.257634 0.639699 0.261002 0.154030
H3    H     H_    0.245188 0.361599 0.236625 0.156622
H4    H     H_    0.778752 0.943473 0.837376 0.121444
H5    H     H_    0.059641 0.288159 0.174338 0.122324
H6    H     H_    0.942924 0.141795 0.047807 0.125608
H7    H     H_    0.928144 0.100721 0.901944 0.117470
H8    H     H_    0.030809 0.205953 0.882750 0.141324
H9    H     H_    0.146629 0.353693 0.008041 0.107461
H10   H     H_    0.176126 0.576324 0.477748 0.124091
H11   H     H_    0.202709 0.559556 0.607997 0.124938
H12   H     H_    0.669886 0.682465 0.097211 0.124394
H13   H     H_    0.230856 0.440889 0.615590 0.119917
H14   H     H_    0.207135 0.355721 0.361700 0.105476
H15   H     H_    0.177005 0.473742 0.354532 0.142395
H16   H     H_    0.766533 0.907829 0.693704 0.114281
H17   H     H_    0.116755 0.255240 0.490387 0.156640
H18   H     H_    0.380129 0.240428 0.501522 0.155802
H19   H     H_    0.390962 0.183488 0.625543 0.117633
H20   H     H_    0.415184 0.060220 0.623164 0.117680
H21   H     H_    0.312774 0.910085 0.495515 0.116978
H22   H     H_    0.186008 0.883255 0.369706 0.143291
H23   H     H_    0.812385 0.708766 0.200129 0.144357
H24   H     H_    0.159976 0.005552 0.371337 0.101822
H25   H     H_    0.625602 0.497128 0.758378 0.158959
H26   H     H_    0.736379 0.526054 0.564159 0.149237
H27   H     H_    0.859107 0.520636 0.550426 0.128323
H28   H     H_    0.770312 0.669965 0.665290 0.092933
H29   H     H_    0.960843 0.496853 0.651123 0.133762
H30   H     H_    0.941027 0.480372 0.766759 0.152361
H31   H     H_    0.734371 0.490306 0.866810 0.160672
H32   H     H_    0.025195 0.686543 0.590225 0.121971
H33   H     H_    0.154541 0.802552 0.608241 0.118534
H34   H     H_    0.846064 0.737373 0.348791 0.106073
H35   H     H_    0.145686 0.827306 0.485306 0.131729
H36   H     H_    0.877384 0.617195 0.324150 0.134385
H37   H     H_    0.887082 0.593747 0.447934 0.126914
H38   H     H_    0.002849 0.620518 0.258587 0.156735
H39   H     H_    0.996000 0.878229 0.240597 0.157579
H40   H     H_    0.777503 0.704134 0.806804 0.131432
H41   H     H_    0.113782 0.903049 0.188424 0.125343
H42   H     H_    0.112037 0.927929 0.067129 0.132245
H43   H     H_    0.995802 0.814410 0.914717 0.133226
H44   H     H_    0.880905 0.676068 0.884017 0.137354
H45   H     H_    0.586495 0.901181 0.586611 0.118015
H46   H     H_    0.879450 0.650845 0.004361 0.099705
H47   H     H_    0.396098 0.328611 0.792689 0.117474
H48   H     H_    0.354391 0.294094 0.894001 0.126175
H49   H     H_    0.208946 0.264582 0.876737 0.121503
H50   H     H_    0.145413 0.302289 0.654283 0.109318
H51   H     H_    0.292499 0.334366 0.674418 0.142403
H52   H     H_    0.877166 0.883163 0.637269 0.151295
H53   H     H_    0.137028 0.385810 0.869894 0.159708
H54   H     H_    0.861172 0.114036 0.626043 0.151612
H55   H     H_    0.805929 0.102388 0.747073 0.113152
H56   H     H_    0.435512 0.854966 0.560777 0.118322
H57   H     H_    0.659824 0.070678 0.728830 0.119430
H58   H     H_    0.600638 0.166655 0.704124 0.117006
H59   H     H_    0.687730 0.294423 0.696872 0.141947
H60   H     H_    0.833587 0.326373 0.714181 0.102905
H61   H     H_    0.623827 0.617200 0.363328 0.156673
H62   H     H_    0.592196 0.709845 0.290307 0.124453
H63   H     H_    0.560094 0.683148 0.142672 0.131163
H64   H     H_    0.313252 0.708402 0.439361 0.117610
H65   H     H_    0.493720 0.653621 0.368563 0.100159
H66   H     H_    0.615044 0.800900 0.489985 0.139112
O1    O     O_R   0.408360 0.551710 0.460090 -0.602131
O2    O     O_R   0.948270 0.356620 0.908410 -0.600998
O3    O     O_R   0.143330 0.551680 0.091590 -0.624606
O4    O     O_R   0.408390 0.448280 0.356670 -0.628091
O5    O     O_R   0.039890 0.448260 0.091620 -0.613471
O6    O     O_R   0.051700 0.643310 0.091570 -0.608778
O7    O     O_R   0.948260 0.539890 0.091600 -0.628716
O8    O     O_R   0.960080 0.551670 0.908360 -0.622050
O9    O     O_R   0.856640 0.448250 0.908390 -0.618581
O10   O     O_R   0.591600 0.643340 0.551710 -0.603031
O11   O     O_R   0.591630 0.539900 0.448290 -0.634503
O12   O     O_R   0.948280 0.908380 0.356650 -0.621371
O13   O     O_R   0.591610 0.551720 0.643330 -0.621310
O14   O     O_R   0.591640 0.448290 0.539910 -0.624632
O15   O     O_R   0.408370 0.460100 0.551710 -0.614512
O16   O     O_R   0.408400 0.356660 0.448290 -0.622955
O17   O     O_R   0.051730 0.908360 0.460070 -0.618427
O18   O     O_R   0.960110 0.908350 0.551690 -0.618220
O19   O     O_R   0.856660 0.908370 0.448270 -0.615725
O20   O     O_R   0.051720 0.091580 0.643310 -0.616260
O21   O     O_R   0.948270 0.091600 0.539890 -0.623864
O22   O     O_R   0.143340 0.091590 0.551680 -0.603574
O23   O     O_R   0.039890 0.091610 0.448270 -0.629830
O24   O     O_R   0.051710 0.460040 0.908380 -0.637419
Zn1   Zn    Zn3+2 0.499980 0.569070 0.569050 0.979303
Zn2   Zn    Zn3+2 0.500020 0.430930 0.430950 0.942049
Zn3   Zn    Zn3+2 0.069080 0.999960 0.569030 0.968764
Zn4   Zn    Zn3+2 0.930920 0.999990 0.430930 0.957689
Zn5   Zn    Zn3+2 0.069060 0.569020 0.999970 0.952316
Zn6   Zn    Zn3+2 0.930920 0.430910 0.000010 0.965121

loop_
_geom_bond_atom_site_label_1
_geom_bond_atom_site_label_2
_ccdc_geom_bond_type
C66   C68   A    
C87   C88   A    
C75   C76   A    
O22   Zn3   S    
C50   H5    S    
C73   C74   A    
C15   H50   S    
C19   C20   A    
C25   C67   A    
C90   C112  S    
C79   H16   S    
C91   C94   S    
C99   O9    A    
C81   C82   A    
C76   H24   S    
C75   H22   S    
C7    C8    A    
C38   C49   S    
C53   C54   A    
C52   C53   A    
C26   C27   A    
C37   C38   A    
C5    H40   S    
O13   Zn1   S    
C46   H3    S    
C89   C99   S    
O4    Zn2   S    
C28   C29   A    
O3    Zn5   S    
C19   H59   S    
C98   O7    A    
C38   C39   A    
C47   H53   S    
C57   C59   A    
C47   C102  A    
C106  C107  A    
C15   C16   A    
C107  H32   S    
C74   H21   S    
C51   H6    S    
C108  C109  A    
C94   O21   A    
C64   C71   A    
O18   Zn3   S    
C72   C77   A    
C2    C13   A    
C58   C96   S    
C110  C111  A    
C36   H47   S    
C12   H49   S    
C18   H52   S    
C42   H2    S    
C101  H35   S    
C90   O17   A    
C111  C112  A    
C45   C56   S    
C95   O22   A    
C31   O10   A    
O23   Zn4   S    
C57   C63   A    
C61   H14   S    
C9    C10   A    
C100  H33   S    
C88   H31   S    
C88   C89   A    
C13   H57   S    
C4    H41   S    
C5    C104  A    
C43   O13   A    
C26   C31   S    
C101  C103  A    
C98   C109  S    
O20   Zn3   S    
O5    Zn6   S    
O7    Zn6   S    
O19   Zn4   S    
C42   C44   A    
C29   H63   S    
C82   H29   S    
C35   C41   A    
C24   H61   S    
C78   H26   S    
C64   H17   S    
C80   H54   S    
C39   H65   S    
O12   Zn4   S    
C11   H48   S    
C97   O5    A    
C54   C56   A    
C22   C23   A    
O11   Zn2   S    
C46   C48   A    
C53   H8    S    
C74   C75   A    
C51   C52   A    
C55   C70   S    
C67   C79   A    
C84   C85   A    
C4    C6    A    
C39   C40   A    
C55   O15   A    
C92   C104  A    
C17   H58   S    
C8    C9    A    
C60   C71   S    
C85   C86   A    
C105  H36   S    
C82   C83   A    
O21   Zn4   S    
C50   C56   A    
C104  H28   S    
C21   C69   S    
C60   C61   A    
C94   O20   A    
C14   C102  S    
O9    Zn6   S    
C93   O19   A    
C67   H4    S    
C59   C60   A    
C29   C30   A    
C25   H1    S    
C57   H11   S    
C44   C97   S    
C83   C84   A    
O17   Zn3   S    
C3    C112  A    
C23   C24   A    
C23   C34   S    
O16   Zn2   S    
C2    C21   A    
C50   C51   A    
O14   Zn2   S    
C27   C92   S    
C103  C105  A    
C76   C77   A    
C68   H18   S    
O6    Zn5   S    
C79   C92   A    
C6    H42   S    
C40   H66   S    
O8    Zn5   S    
C78   C85   A    
C40   C41   A    
C20   H60   S    
C54   H9    S    
C30   H12   S    
C43   O14   A    
O1    Zn1   S    
O24   Zn5   S    
C1    C48   S    
C22   C93   S    
C41   H45   S    
C93   O18   A    
C95   O23   A    
C84   C89   A    
C91   C102  A    
C4    C10   A    
C63   H10   S    
C44   C45   A    
C86   C87   A    
C72   H19   S    
C35   H56   S    
C90   O12   A    
C3    C103  S    
C81   H27   S    
C66   C77   S    
C16   H51   S    
C11   C36   A    
C100  C107  A    
C35   C37   A    
C18   C22   A    
C43   C86   S    
C18   C27   A    
C24   C26   A    
C72   C73   A    
C111  H39   S    
C5    C25   A    
C83   H30   S    
C1    O4    A    
C58   C69   A    
C97   O3    A    
C6    C7    A    
C3    C108  A    
C59   H13   S    
C105  C106  A    
C31   O11   A    
O10   Zn1   S    
O15   Zn1   S    
C13   C17   A    
C32   C33   A    
C96   O2    A    
C80   C91   A    
C12   C14   A    
C96   O24   A    
O2    Zn6   S    
C109  C110  A    
C64   C65   A    
C47   C58   A    
C30   C32   A    
C1    O1    A    
C78   C81   A    
C28   H62   S    
C62   H15   S    
C9    H46   S    
C48   C49   A    
C100  C101  A    
C17   C19   A    
C33   C34   A    
C10   C110  S    
C98   O6    A    
C61   C62   A    
C8    H44   S    
C73   H20   S    
C32   H23   S    
C70   C71   A    
C33   H34   S    
C108  H38   S    
C42   C49   A    
C28   C34   A    
C52   H7    S    
C45   C46   A    
C65   C95   S    
C55   O16   A    
C7    H43   S    
C20   C21   A    
C68   C70   A    
C65   C66   A    
C106  H37   S    
C14   C15   A    
C69   C80   A    
C62   C63   A    
C87   H25   S    
C2    H55   S    
C99   O8    A    
C16   C36   A    
C11   C12   A    
C37   H64   S    
