data_mof_unit_39113.cif
_audit_creation_date              2012-12-11T15:14:45-0500
_audit_creation_method            fapswitch 2.2
_symmetry_space_group_name_H-M    P1
_symmetry_Int_Tables_number       1
_space_group_crystal_system       triclinic
_cell_length_a                    22.259249
_cell_length_b                    7.299149
_cell_length_c                    19.236157
_cell_angle_alpha                 90.011607
_cell_angle_beta                  99.019626
_cell_angle_gamma                 90.003776
_cell_volume                      3086.72101041

loop_
_atom_site_label
_atom_site_type_symbol
_atom_type_description
_atom_site_fract_x
_atom_site_fract_y
_atom_site_fract_z
_atom_type_partial_charge
O1    O     O_R   0.448470 0.506130 0.415700 -0.533262
O2    O     O_R   0.551530 0.006130 0.584300 -0.533254
O3    O     O_R   0.436320 0.174490 0.555800 -0.528376
O4    O     O_R   0.563680 0.674490 0.444200 -0.528361
C1    C     C_R   0.421265 0.343655 0.574953 0.681458
C2    C     C_R   0.578735 0.843642 0.425046 0.681483
O5    O     O_R   0.441350 0.176340 0.414480 -0.536653
O6    O     O_R   0.558650 0.676340 0.585520 -0.536631
O7    O     O_R   0.556600 0.007100 0.441970 -0.517867
O8    O     O_R   0.443400 0.507100 0.558030 -0.517926
C3    C     C_R   0.427552 0.344717 0.389187 0.674796
C4    C     C_R   0.572442 0.844759 0.610814 0.674829
O9    O     O_3   0.537810 0.339550 0.509190 -0.372004
O10   O     O_3   0.462190 0.839550 0.490810 -0.372072
V1    V     V_3+5 0.492990 0.064280 0.498300 1.504357
V2    V     V_3+5 0.507010 0.564280 0.501700 1.504379
C5    C     C_R   0.865631 0.986822 0.695039 -0.204847
C6    C     C_R   0.134478 0.488716 0.304891 -0.204901
H1    H     H_    0.784552 0.962054 0.579608 0.138202
H2    H     H_    0.215590 0.464944 0.420317 0.138557
H3    H     H_    0.882200 0.019570 0.646460 0.191023
H4    H     H_    0.117963 0.522362 0.353422 0.191207
C7    C     C_R   0.885187 0.942630 0.821429 -0.237296
C8    C     C_R   0.114819 0.442861 0.178579 -0.237345
C9    C     C_R   0.587740 0.843444 0.740048 -0.146902
C10   C     C_R   0.412196 0.341981 0.259950 -0.146848
C11   C     C_R   0.623251 0.865088 0.805620 -0.146319
C12   C     C_R   0.376674 0.363017 0.194357 -0.146286
C13   C     C_R   0.685873 0.890543 0.811505 -0.138723
C14   C     C_R   0.314076 0.389015 0.188468 -0.138803
C15   C     C_R   0.715573 0.887292 0.751605 0.102545
C16   C     C_R   0.284409 0.386964 0.248399 0.102568
C17   C     C_R   0.677966 0.878137 0.683953 0.055905
C18   C     C_R   0.322041 0.378487 0.316048 0.055954
C19   C     C_R   0.780609 0.906313 0.756165 0.041980
C20   C     C_R   0.219391 0.406494 0.243847 0.041981
C21   C     C_R   0.804113 0.943851 0.693141 0.002525
C22   C     C_R   0.195954 0.445199 0.306823 0.002498
C23   C     C_R   0.766231 0.938116 0.627830 -0.128133
C24   C     C_R   0.233864 0.440109 0.372123 -0.128291
C25   C     C_R   0.704635 0.900247 0.623096 -0.183218
C26   C     C_R   0.295426 0.401751 0.376887 -0.183463
C27   C     C_R   0.823506 0.889009 0.819984 0.159841
C28   C     C_R   0.176449 0.388628 0.180084 0.159620
C29   C     C_R   0.905853 0.992321 0.758398 0.420123
C30   C     C_R   0.094233 0.493684 0.241545 0.420265
C31   C     C_R   0.613962 0.853255 0.678779 -0.085238
C32   C     C_R   0.386021 0.353019 0.321226 -0.085280
H5    H     H_    0.539045 0.825644 0.736913 0.140054
H6    H     H_    0.460869 0.323646 0.263082 0.140048
H7    H     H_    0.709171 0.922298 0.863406 0.159468
H8    H     H_    0.290776 0.420198 0.136519 0.159407
H9    H     H_    0.601835 0.866209 0.852422 0.129767
H10   H     H_    0.398061 0.363186 0.147533 0.129750
H11   H     H_    0.677600 0.895171 0.571172 0.103027
H12   H     H_    0.322486 0.397207 0.428803 0.103175
C33   C     C_3   0.777855 0.835059 0.310750 0.152325
C34   C     C_3   0.222156 0.334924 0.689245 0.153522
C35   C     C_3   0.795572 0.021115 0.282808 0.317087
C36   C     C_3   0.204390 0.520956 0.717176 0.317068
C37   C     C_1   0.875792 0.946852 0.121457 -0.110536
C38   C     C_1   0.124201 0.446809 0.878537 -0.110284
C39   C     C_1   0.625114 0.849542 0.379873 -0.097449
C40   C     C_1   0.374886 0.349592 0.620122 -0.097563
C41   C     C_3   0.775306 0.746431 0.237052 -0.105321
C42   C     C_3   0.224724 0.246382 0.762947 -0.105504
C43   C     C_3   0.792236 0.935198 0.208713 -0.108040
C44   C     C_3   0.207749 0.435140 0.791275 -0.108476
C45   C     C_3   0.707653 0.803981 0.220290 0.310642
C46   C     C_3   0.292364 0.304147 0.779703 0.310711
C47   C     C_3   0.709759 0.884124 0.294499 -0.090174
C48   C     C_3   0.290238 0.384199 0.705489 -0.090424
C49   C     C_3   0.724060 0.990152 0.190741 -0.312205
C50   C     C_3   0.275911 0.490313 0.809236 -0.311840
C51   C     C_3   0.727131 0.071037 0.266105 0.313870
C52   C     C_3   0.272818 0.571100 0.733866 0.313193
C53   C     C_1   0.838003 0.945319 0.160620 0.101422
C54   C     C_1   0.161986 0.445258 0.839371 0.101481
C55   C     C_1   0.663544 0.858976 0.341603 0.132720
C56   C     C_1   0.336454 0.359052 0.658389 0.132662
H13   H     H_    0.701760 0.054475 0.141044 0.169411
H14   H     H_    0.298191 0.554758 0.858929 0.169404
H15   H     H_    0.794930 0.613877 0.223640 0.202496
H16   H     H_    0.205125 0.113793 0.776362 0.202567
O11   O     O_R   0.056650 0.288730 0.942060 -0.527383
O12   O     O_R   0.943350 0.788730 0.057940 -0.527254
O13   O     O_R   0.058660 0.616870 0.085540 -0.532519
O14   O     O_R   0.941340 0.116870 0.914460 -0.532624
C57   C     C_R   0.072136 0.448938 0.111198 0.782466
C58   C     C_R   0.927870 0.948896 0.888802 0.782306
O15   O     O_R   0.063700 0.618520 0.944220 -0.530640
O16   O     O_R   0.936300 0.118520 0.055780 -0.530576
O17   O     O_R   0.948460 0.787610 0.915680 -0.521958
O18   O     O_R   0.051540 0.287610 0.084320 -0.521955
C59   C     C_R   0.078633 0.450875 0.924713 0.731733
C60   C     C_R   0.921365 0.950887 0.075285 0.732063
O19   O     O_3   0.962230 0.453430 0.990860 -0.385181
O20   O     O_3   0.037770 0.953430 0.009140 -0.385253
V3    V     V_3+5 0.007010 0.728750 0.001700 1.525877
V4    V     V_3+5 0.992990 0.228750 0.998300 1.525919
S1    S     S_3+6 0.982490 0.057083 0.756648 0.055730
O21   O     O_2   0.996686 0.048706 0.682839 -0.287084
O22   O     O_2   0.991485 0.250003 0.783596 -0.333644
O23   O     O_3   0.030115 0.916545 0.808207 -0.480478
H17   H     H_    0.069817 0.980757 0.815457 0.365950
S2    S     S_3+6 0.017667 0.559288 0.243251 0.055494
O24   O     O_2   0.003454 0.551429 0.317062 -0.287492
O25   O     O_2   0.008902 0.752179 0.216234 -0.333574
O26   O     O_3   0.969877 0.419031 0.191728 -0.480654
H18   H     H_    0.930177 0.483236 0.184756 0.366025
N1    N     N_2   0.806562 0.760970 0.377607 -0.556698
H19   H     H_    0.779160 0.692319 0.407366 0.261181
C61   C     C_3   0.868928 0.699694 0.383259 -0.187727
H20   H     H_    0.873379 0.559854 0.405983 0.227532
H21   H     H_    0.898638 0.793174 0.418895 0.221227
H22   H     H_    0.884679 0.697208 0.331231 0.243305
N2    N     N_2   0.193454 0.260851 0.622371 -0.555140
H23   H     H_    0.220871 0.192716 0.592476 0.260578
C62   C     C_3   0.131132 0.199132 0.616717 -0.186454
H24   H     H_    0.126901 0.058613 0.594583 0.227105
H25   H     H_    0.101427 0.291463 0.580587 0.221250
H26   H     H_    0.115198 0.198130 0.668651 0.243083
S3    S     S_3+6 0.688082 0.274194 0.284815 0.006312
O27   O     O_2   0.646624 0.331377 0.219356 -0.308596
O28   O     O_2   0.650352 0.243772 0.342048 -0.354329
O29   O     O_3   0.738519 0.438607 0.311063 -0.478523
H27   H     H_    0.754642 0.406658 0.360437 0.350311
S4    S     S_3+6 0.311833 0.774318 0.715154 0.005725
O30   O     O_2   0.353238 0.831707 0.780627 -0.308410
O31   O     O_2   0.349621 0.743844 0.657981 -0.354484
O32   O     O_3   0.261396 0.938600 0.688830 -0.478777
H28   H     H_    0.245424 0.906869 0.639391 0.348706
N3    N     N_2   0.658781 0.691713 0.184968 -0.402217
H29   H     H_    0.616426 0.746873 0.186804 0.256990
C63   C     C_3   0.666446 0.631636 0.115230 -0.424303
H30   H     H_    0.628340 0.539449 0.093787 0.202822
H31   H     H_    0.709700 0.554427 0.117314 0.200002
H32   H     H_    0.666426 0.751009 0.079402 0.144823
N4    N     N_2   0.341273 0.192087 0.815033 -0.402301
H33   H     H_    0.383609 0.247351 0.813168 0.256971
C64   C     C_3   0.333646 0.132145 0.884789 -0.424373
H34   H     H_    0.371764 0.040032 0.906223 0.202800
H35   H     H_    0.290399 0.054900 0.882746 0.199996
H36   H     H_    0.333676 0.251591 0.920602 0.144807
N5    N     N_2   0.806633 0.802754 0.880563 -0.544876
H37   H     H_    0.827921 0.851384 0.928470 0.227410
C65   C     C_3   0.804574 0.604811 0.877033 -0.487977
H38   H     H_    0.787941 0.549955 0.924383 0.176095
H39   H     H_    0.850707 0.548736 0.875175 0.213068
H40   H     H_    0.772974 0.558905 0.829721 0.205460
N6    N     N_2   0.193221 0.301312 0.119649 -0.544936
H41   H     H_    0.171961 0.349461 0.071665 0.227514
C66   C     C_3   0.195099 0.103402 0.123538 -0.487100
H42   H     H_    0.211657 0.047672 0.076273 0.175916
H43   H     H_    0.148918 0.047827 0.125528 0.213268
H44   H     H_    0.226679 0.057869 0.170916 0.205336
S5    S     S_3+6 0.857823 0.159425 0.322758 0.071501
O33   O     O_2   0.916469 0.061390 0.318476 -0.258881
O34   O     O_2   0.857326 0.337348 0.283623 -0.315149
O35   O     O_3   0.852917 0.200236 0.407801 -0.487409
H45   H     H_    0.814896 0.140104 0.416403 0.313097
S6    S     S_3+6 0.142074 0.658800 0.677151 0.071974
O36   O     O_2   0.083478 0.560969 0.681913 -0.258242
O37   O     O_2   0.142670 0.837449 0.715856 -0.315610
O38   O     O_3   0.146713 0.697855 0.591921 -0.486201
H46   H     H_    0.185917 0.643981 0.584081 0.311989

loop_
_geom_bond_atom_site_label_1
_geom_bond_atom_site_label_2
_ccdc_geom_bond_type
C63   H32   S    
C42   C44   S    
O38   H46   S    
C7    C29   A    
C11   C13   A    
C40   C56   T    
C33   N1    S    
N1    H19   S    
O1    C3    A    
O2    V1    S    
C48   C52   S    
O2    C4    A    
C8    C57   S    
C2    O7    A    
C47   C55   S    
N5    H37   S    
C37   C60   S    
C63   H30   S    
C23   C25   A    
C39   C55   T    
O5    C3    A    
O29   H27   S    
C50   C52   S    
C51   S3    S    
C16   C20   A    
C65   H39   S    
C5    C29   A    
C61   H20   S    
C64   H35   S    
H2    C24   S    
C41   C45   S    
S3    O28   D    
S2    O24   D    
C44   C50   S    
O16   C60   A    
C7    C27   A    
C33   C47   S    
C57   O18   A    
C45   C47   S    
C25   H11   S    
C14   H8    S    
O12   C60   A    
C35   C43   S    
C34   C42   S    
S5    O33   D    
C65   H38   S    
C37   C53   T    
C18   C26   A    
C41   C43   S    
C43   C53   S    
C46   C50   S    
C36   S6    S    
N6    H41   S    
C15   C17   A    
C45   C49   S    
C43   C49   S    
C14   C16   A    
C19   C27   A    
O17   V3    S    
O13   V3    S    
C10   C32   A    
C61   H22   S    
C26   H12   S    
C24   C26   A    
C46   N4    S    
S5    O34   D    
C38   C59   S    
S4    O30   D    
C49   C51   S    
C3    C32   S    
C50   H14   S    
C4    C31   S    
C6    C30   A    
C49   H13   S    
O23   H17   S    
N5    C65   S    
S6    O37   D    
O11   C59   A    
C62   H25   S    
C44   C54   S    
C21   C23   A    
C47   C51   S    
C28   N6    S    
S1    O21   D    
S3    O27   D    
C65   H40   S    
O4    C2    A    
C64   H36   S    
N2    C62   S    
C29   S1    S    
S3    O29   S    
C42   H16   S    
C36   C52   S    
C34   N2    S    
C5    H3    S    
C48   C56   S    
C1    C40   S    
C16   C18   A    
C2    C39   S    
O4    V2    S    
C27   N5    S    
S6    O38   S    
O18   V4    S    
O6    C4    A    
C7    C58   S    
N1    C61   S    
O1    V2    S    
C5    C21   A    
N4    C64   S    
C66   H44   S    
O12   V3    S    
O14   V4    S    
H1    C23   S    
O14   C58   A    
O20   V3    S    
S5    O35   S    
O13   C57   A    
N3    H29   S    
C52   S4    S    
C15   C19   A    
C20   C28   A    
C33   C35   S    
C66   H43   S    
O32   H28   S    
S4    O32   S    
C35   C51   S    
O19   V4    S    
O3    V1    S    
O16   V4    S    
C58   O17   A    
S6    O36   D    
C13   H7    S    
C62   H26   S    
C63   H31   S    
C9    C31   A    
C12   H10   S    
C19   C21   A    
C6    H4    S    
C38   C54   T    
C33   C41   S    
O3    C1    A    
S4    O31   D    
N4    H33   S    
C11   H9    S    
C45   N3    S    
C9    C11   A    
C10   C12   A    
S1    O22   D    
C8    C30   A    
O35   H45   S    
C12   C14   A    
C10   H6    S    
C6    C22   A    
C17   C25   A    
C1    O8    A    
C13   C15   A    
O11   V4    S    
O8    V2    S    
N2    H23   S    
C20   C22   A    
C22   C24   A    
C35   S5    S    
C34   C48   S    
C42   C46   S    
S2    O25   D    
C8    C28   A    
C30   S2    S    
O5    V1    S    
C17   C31   A    
N6    C66   S    
O7    V1    S    
C9    H5    S    
C41   H15   S    
O15   C59   A    
C18   C32   A    
C36   C44   S    
O6    V2    S    
C62   H24   S    
O9    V2    S    
O26   H18   S    
N3    C63   S    
O10   V1    S    
C46   C48   S    
S1    O23   S    
O15   V3    S    
C66   H42   S    
C64   H34   S    
C34   C36   S    
C61   H21   S    
S2    O26   S    
