data_mof_unit_16537.cif
_audit_creation_date              2012-12-10T20:36:38-0500
_audit_creation_method            fapswitch 2.2
_symmetry_space_group_name_H-M    P1
_symmetry_Int_Tables_number       1
_space_group_crystal_system       triclinic
_cell_length_a                    10.525364
_cell_length_b                    10.66599
_cell_length_c                    9.908803
_cell_angle_alpha                 90.492256
_cell_angle_beta                  90.922918
_cell_angle_gamma                 90.578964
_cell_volume                      1112.15245547

loop_
_atom_site_label
_atom_site_type_symbol
_atom_type_description
_atom_site_fract_x
_atom_site_fract_y
_atom_site_fract_z
_atom_type_partial_charge
C1    C     C_R   0.505549 0.260139 0.499613 0.927503
C2    C     C_3   0.957762 0.605700 0.450865 0.454257
C3    C     C_3   0.037495 0.512141 0.370321 -0.234779
C4    C     C_3   0.123079 0.501486 0.497377 -0.144758
C5    C     C_R   0.509276 0.064901 0.621198 0.068069
C6    C     C_R   0.527282 0.128652 0.500821 -0.167078
C7    C     C_R   0.571238 0.063814 0.386129 0.425452
C8    C     C_R   0.569657 0.932879 0.388338 -0.303066
C9    C     C_R   0.525970 0.871127 0.503217 -0.135406
C10   C     C_R   0.508940 0.937381 0.622529 0.145104
C11   C     C_3   0.403511 0.930682 0.721553 -0.485607
C12   C     C_R   0.257665 0.500414 0.498989 0.960465
C13   C     C_3   0.403940 0.072826 0.720351 -0.422791
C14   C     C_R   0.415918 0.426412 0.068951 0.155435
C15   C     C_R   0.590002 0.563461 0.075332 -0.104180
C16   C     C_R   0.589778 0.565747 0.932421 0.457839
C17   C     C_R   0.416714 0.425254 0.926474 0.064912
C18   C     C_3   0.274840 0.432375 0.919729 0.256250
C19   C     C_3   0.274776 0.434219 0.073268 -0.568626
C20   C     C_R   0.504541 0.739790 0.500600 0.901622
C21   C     C_R   0.742276 0.499348 0.501079 0.951152
C22   C     C_3   0.042570 0.393242 0.549447 0.440660
C23   C     C_3   0.955365 0.401745 0.423894 -0.361036
C24   C     C_3   0.876767 0.497973 0.502892 -0.102937
C25   C     C_3   0.963865 0.487727 0.626827 0.403236
C26   C     C_3   0.045004 0.598316 0.576697 -0.397877
H1    H     H_    0.915708 0.321362 0.364418 0.197392
H2    H     H_    0.660504 0.617477 0.132120 0.187081
H3    H     H_    0.239270 0.520077 0.873256 0.138772
H4    H     H_    0.242974 0.525272 0.115459 0.184553
H5    H     H_    0.231044 0.349934 0.119567 0.223686
H6    H     H_    0.084356 0.678128 0.637290 0.167830
H7    H     H_    0.069266 0.525422 0.265300 0.175174
H8    H     H_    0.595098 0.880312 0.298832 0.178258
N1    N     N_R   0.499140 0.499140 0.142800 -0.137276
N2    N     N_R   0.499140 0.499180 0.857150 -0.189987
O1    O     O_R   0.500020 0.316790 0.614690 -0.610832
O2    O     O_R   0.500000 0.316760 0.385350 -0.554487
O3    O     O_R   0.313960 0.499990 0.614650 -0.602842
O4    O     O_R   0.313940 0.499950 0.385310 -0.636272
O5    O     O_R   0.500000 0.683240 0.614650 -0.662542
O6    O     O_R   0.499980 0.683210 0.385310 -0.625856
O7    O     O_R   0.686060 0.500050 0.614690 -0.597555
O8    O     O_R   0.686040 0.500010 0.385350 -0.606215
Zn1   Zn    Zn3+2 0.500010 0.500020 0.653130 0.982739
Zn2   Zn    Zn3+2 0.499990 0.499980 0.346870 0.986496
H9    H     H_    0.435363 0.891257 0.819791 0.214516
H10   H     H_    0.315644 0.113006 0.676140 0.245299
H11   H     H_    0.436297 0.115525 0.817872 0.210763
O9    O     O_3   0.681079 0.639370 0.873868 -0.735689
H12   H     H_    0.655445 0.653828 0.779815 0.387234
O10   O     O_3   0.217682 0.324041 0.862668 -0.695427
H13   H     H_    0.255248 0.249145 0.906123 0.339493
O11   O     O_3   0.092855 0.282597 0.601499 -0.724979
H14   H     H_    0.018303 0.231655 0.628332 0.347299
O12   O     O_3   0.921077 0.471921 0.758500 -0.698099
H15   H     H_    0.998447 0.475847 0.816706 0.361332
O13   O     O_3   0.906681 0.716121 0.399020 -0.756882
H16   H     H_    0.980944 0.767961 0.373183 0.334117
O14   O     O_3   0.608597 0.128333 0.272820 -0.743443
H17   H     H_    0.635506 0.067529 0.202874 0.334236
H18   H     H_    0.315069 0.887909 0.677798 0.198298

loop_
_geom_bond_atom_site_label_1
_geom_bond_atom_site_label_2
_ccdc_geom_bond_type
C12   O4    A    
C13   H10   S    
C20   O6    A    
C23   C24   S    
C2    O13   S    
C26   H6    S    
C6    C7    A    
C17   N2    A    
C23   H1    S    
C4    C12   S    
C21   O8    A    
C4    C22   S    
C9    C10   A    
C9    C20   S    
C4    C26   S    
C11   H9    S    
C25   O12   S    
C1    O1    A    
O3    Zn1   S    
C11   H18   S    
C19   H5    S    
C12   O3    A    
C17   C18   S    
C25   C26   S    
C18   O10   S    
C7    C8    A    
C2    C26   S    
C18   H3    S    
C8    H8    S    
O10   H13   S    
O4    Zn2   S    
O7    Zn1   S    
C14   C17   A    
C15   H2    S    
C19   H4    S    
O12   H15   S    
C1    O2    A    
C13   H11   S    
C15   N1    A    
C16   O9    S    
C20   O5    A    
C2    C3    S    
C22   C23   S    
C2    C24   S    
C5    C6    A    
O2    Zn2   S    
C10   C11   S    
C3    H7    S    
C5    C10   A    
C15   C16   A    
C7    O14   S    
C11   C13   S    
C24   C25   S    
C22   O11   S    
C18   C19   S    
O6    Zn2   S    
C21   C24   S    
C14   N1    A    
O1    Zn1   S    
C3    C23   S    
O5    Zn1   S    
O11   H14   S    
O14   H17   S    
N2    Zn1   S    
C1    C6    S    
O9    H12   S    
O13   H16   S    
C21   O7    A    
N1    Zn2   S    
C5    C13   S    
C14   C19   S    
C16   N2    A    
C3    C4    S    
O8    Zn2   S    
C8    C9    A    
C22   C25   S    
