data_mof_unit_17750.cif
_audit_creation_date              2012-12-11T15:52:33-0500
_audit_creation_method            fapswitch 2.2
_symmetry_space_group_name_H-M    P1
_symmetry_Int_Tables_number       1
_space_group_crystal_system       triclinic
_cell_length_a                    6.926177
_cell_length_b                    14.558527
_cell_length_c                    16.021932
_cell_angle_alpha                 90.224319
_cell_angle_beta                  90.05232
_cell_angle_gamma                 89.747745
_cell_volume                      1615.54178178

loop_
_atom_site_label
_atom_site_type_symbol
_atom_type_description
_atom_site_fract_x
_atom_site_fract_y
_atom_site_fract_z
_atom_type_partial_charge
O1    O     O_R   0.494400 0.415640 0.412830 -0.540923
O2    O     O_R   0.823920 0.405510 0.586560 -0.543030
O3    O     O_R   0.994250 0.584360 0.587170 -0.536359
C1    C     C_R   0.655215 0.382952 0.614993 0.690062
O4    O     O_R   0.824110 0.404610 0.413450 -0.538828
O5    O     O_R   0.994440 0.583460 0.412820 -0.536649
C2    C     C_R   0.655814 0.380596 0.385445 0.694856
O6    O     O_R   0.494210 0.416540 0.587180 -0.540068
O7    O     O_3   0.660810 0.558680 0.500000 -0.372096
V1    V     V_3+5 0.935650 0.489110 0.500000 1.394470
O8    O     O_R   0.324150 0.594490 0.413440 -0.543747
C3    C     C_R   0.154792 0.616574 0.384468 0.707896
O9    O     O_R   0.323970 0.595390 0.586550 -0.550109
C4    C     C_R   0.154057 0.619361 0.614171 0.680162
V2    V     V_3+5 0.435660 0.510890 0.500000 1.380799
O10   O     O_3   0.160630 0.441320 0.500000 -0.368239
C5    C     C_3   0.925550 0.721640 0.700218 0.222824
H1    H     H_    0.846911 0.659336 0.721749 0.056408
C6    C     C_3   0.914872 0.791557 0.774071 -0.317631
H2    H     H_    0.823808 0.761654 0.824285 0.109353
H3    H     H_    0.843522 0.857094 0.757117 0.146943
H4    H     H_    0.219356 0.807729 0.604419 0.145780
H5    H     H_    0.183147 0.913528 0.712425 0.121117
C7    C     C_3   0.262861 0.776855 0.664860 -0.313899
C8    C     C_3   0.219043 0.648766 0.766454 -0.404703
C9    C     C_3   0.139920 0.690616 0.683963 0.083800
H6    H     H_    0.371325 0.625921 0.757750 0.152539
H7    H     H_    0.134083 0.586842 0.783268 0.126415
C10   C     C_3   0.119959 0.811712 0.809365 0.078845
C11   C     C_3   0.246209 0.848628 0.736669 -0.332321
C12   C     C_3   0.209416 0.719621 0.839144 -0.335606
H8    H     H_    0.121946 0.691109 0.891102 0.127842
H9    H     H_    0.357505 0.731588 0.863803 0.150121
H10   H     H_    0.416580 0.756358 0.658105 0.146705
H11   H     H_    0.393600 0.865151 0.759869 0.143182
C13   C     C_R   0.967554 0.757273 0.201630 -0.235579
H12   H     H_    0.838525 0.759720 0.163474 0.138500
C14   C     C_R   0.976740 0.693338 0.266607 -0.159111
H13   H     H_    0.853978 0.649039 0.277122 0.127266
C15   C     C_R   0.143468 0.685261 0.316146 -0.076942
C16   C     C_R   0.299197 0.743915 0.300325 -0.228104
H14   H     H_    0.427400 0.740232 0.339021 0.124865
C17   C     C_R   0.289504 0.810462 0.237025 0.299370
C18   C     C_R   0.123219 0.816279 0.185169 -0.078131
C19   C     C_R   0.798618 0.298733 0.736938 -0.165684
H15   H     H_    0.929078 0.339066 0.731693 0.124566
C20   C     C_R   0.784298 0.234268 0.801134 -0.196878
H16   H     H_    0.903803 0.227395 0.844248 0.128490
C21   C     C_R   0.617245 0.180600 0.810938 -0.058068
C22   C     C_R   0.462646 0.192604 0.753303 0.164369
C23   C     C_R   0.477449 0.259408 0.690477 -0.152048
H17   H     H_    0.358953 0.268803 0.647055 0.124351
C24   C     C_R   0.644327 0.312797 0.681686 -0.084792
C25   C     C_R   0.801733 0.247257 0.300671 0.159487
C26   C     C_R   0.786759 0.185307 0.233363 -0.153974
H18   H     H_    0.904661 0.138006 0.220936 0.118105
C27   C     C_R   0.621032 0.182061 0.182977 -0.097640
C28   C     C_R   0.467330 0.241873 0.201080 -0.164098
H19   H     H_    0.337150 0.240767 0.163590 0.129052
C29   C     C_R   0.481355 0.305410 0.266612 -0.190945
H20   H     H_    0.361875 0.352254 0.276908 0.125433
C30   C     C_R   0.647691 0.310040 0.317200 -0.060938
O11   O     O_R   0.771300 0.080930 0.910090 -0.543225
O12   O     O_R   0.441270 0.092800 0.083770 -0.539112
O13   O     O_R   0.271080 0.913920 0.084380 -0.510822
C31   C     C_R   0.610004 0.115077 0.112838 0.710267
O14   O     O_R   0.441580 0.091910 0.910670 -0.539676
O15   O     O_R   0.271390 0.913020 0.910040 -0.541972
C32   C     C_R   0.609491 0.112846 0.880590 0.688794
O16   O     O_R   0.770990 0.081830 0.084440 -0.540723
O17   O     O_3   0.604750 0.938760 0.997250 -0.362399
V3    V     V_3+5 0.329850 0.008280 0.997210 1.413142
O18   O     O_R   0.941680 0.901940 0.910610 -0.546708
C33   C     C_R   0.110456 0.880633 0.880902 0.664075
O19   O     O_R   0.941370 0.902830 0.083720 -0.545157
C34   C     C_R   0.110765 0.882317 0.114129 0.711197
V4    V     V_3+5 0.829860 0.986420 0.997150 1.398690
O20   O     O_3   0.104830 0.056030 0.997180 -0.372895
N1    N     N_2   0.829778 0.752077 0.623289 -0.511671
H21   H     H_    0.718366 0.710822 0.603096 0.265328
C35   C     C_3   0.806853 0.847946 0.601163 -0.583837
H22   H     H_    0.782315 0.853215 0.532871 0.199656
H23   H     H_    0.936820 0.888342 0.616671 0.205733
H24   H     H_    0.679129 0.877637 0.633460 0.184625
N2    N     N_2   0.445767 0.872824 0.228164 -0.506971
H25   H     H_    0.578405 0.844360 0.242288 0.246367
C36   C     C_3   0.416308 0.959526 0.270814 -0.521414
H26   H     H_    0.398635 0.948239 0.338964 0.178147
H27   H     H_    0.286669 0.995386 0.245943 0.188302
H28   H     H_    0.543765 0.004081 0.261101 0.185728
C37   C     C_3   0.284391 0.133475 0.754856 -0.780366
H29   H     H_    0.326690 0.059896 0.753860 0.190868
H30   H     H_    0.198305 0.148559 0.811560 0.221215
H31   H     H_    0.189715 0.146016 0.700023 0.195004
C38   C     C_3   0.980729 0.242170 0.354306 -0.758987
H32   H     H_    0.939856 0.232951 0.420742 0.202687
H33   H     H_    0.067061 0.305558 0.347033 0.219299
H34   H     H_    0.075270 0.183418 0.336560 0.189979

loop_
_geom_bond_atom_site_label_1
_geom_bond_atom_site_label_2
_ccdc_geom_bond_type
C8    C12   S    
C26   H18   S    
C1    C24   S    
C16   H14   S    
C38   H32   S    
C27   C31   S    
C1    O6    A    
C35   H22   S    
C38   H34   S    
C20   C21   A    
N2    H25   S    
C8    H7    S    
O13   C34   A    
C11   H11   S    
C5    C9    S    
C13   H12   S    
C6    H3    S    
C7    C9    S    
O5    C3    A    
C14   H13   S    
O15   C33   A    
V2    O10   S    
C5    N1    S    
C29   C30   A    
O14   V3    S    
O18   C33   A    
C18   C34   S    
V3    O20   S    
O8    V2    S    
O11   C32   A    
C12   H9    S    
O1    V2    S    
O7    V1    S    
V4    O20   S    
C19   C20   A    
C19   C24   A    
C21   C32   S    
O9    C4    A    
O16   V4    S    
C16   C17   A    
C35   H23   S    
C22   C23   A    
N2    C36   S    
C23   H17   S    
C17   N2    S    
H5    C11   S    
C37   H29   S    
N1    C35   S    
C10   C33   S    
C25   C30   A    
C8    C9    S    
C19   H15   S    
C7    H10   S    
C29   H20   S    
C23   C24   A    
O12   C31   A    
C3    C15   S    
O2    C1    A    
O19   C34   A    
C2    C30   S    
C10   C11   S    
C37   H30   S    
C20   H16   S    
O15   V3    S    
C5    H1    S    
C4    C9    S    
O19   V4    S    
C25   C38   S    
O3    C4    A    
C15   C16   A    
O6    V2    S    
O9    V2    S    
C17   C18   A    
H4    C7    S    
C13   C18   A    
C6    C10   S    
O17   V4    S    
C35   H24   S    
O4    C2    A    
O11   V4    S    
C25   C26   A    
O1    C2    A    
C28   H19   S    
C12   H8    S    
O5    V1    S    
O8    C3    A    
C38   H33   S    
C8    H6    S    
O13   V3    S    
C6    H2    S    
C26   C27   A    
O7    V2    S    
O17   V3    S    
C10   C12   S    
O3    V1    S    
V1    O10   S    
C37   H31   S    
C14   C15   A    
C27   C28   A    
C31   O16   A    
C13   C14   A    
C5    C6    S    
O12   V3    S    
C7    C11   S    
N1    H21   S    
C22   C37   S    
O4    V1    S    
C36   H26   S    
C21   C22   A    
C36   H28   S    
C36   H27   S    
O18   V4    S    
O14   C32   A    
C28   C29   A    
O2    V1    S    
