data_mof_unit_21452.cif
_audit_creation_date              2012-12-10T19:11:28-0500
_audit_creation_method            fapswitch 2.2
_symmetry_space_group_name_H-M    P1
_symmetry_Int_Tables_number       1
_space_group_crystal_system       triclinic
_cell_length_a                    10.625374
_cell_length_b                    9.709812
_cell_length_c                    10.51285
_cell_angle_alpha                 89.576948
_cell_angle_beta                  90.008281
_cell_angle_gamma                 90.000822
_cell_volume                      1084.58519415

loop_
_atom_site_label
_atom_site_type_symbol
_atom_type_description
_atom_site_fract_x
_atom_site_fract_y
_atom_site_fract_z
_atom_type_partial_charge
C1    C     C_R   0.257650 0.499720 0.499794 0.848215
C2    C     C_3   0.927868 0.575809 0.379852 -0.391598
C3    C     C_3   0.387157 0.081736 0.431843 -0.227658
C4    C     C_3   0.387180 0.919256 0.431800 -0.234726
C5    C     C_3   0.611939 0.081730 0.431192 -0.227455
C6    C     C_3   0.611921 0.919279 0.431161 -0.234751
C7    C     C_3   0.500144 0.080141 0.628325 -0.233071
C8    C     C_3   0.500139 0.917927 0.628330 -0.216112
C9    C     C_R   0.500054 0.500633 0.257286 1.000110
C10   C     C_R   0.742580 0.499721 0.499746 0.848245
C11   C     C_R   0.500155 0.499411 0.742587 0.968545
C12   C     C_3   0.500056 0.502070 0.122707 -0.319489
C13   C     C_3   0.500041 0.630136 0.037670 0.597362
C14   C     C_3   0.397868 0.436131 0.041761 0.556359
C15   C     C_3   0.395604 0.565458 0.956041 -0.299450
C16   C     C_3   0.500123 0.498241 0.877104 -0.243815
C17   C     C_3   0.604559 0.565538 0.956125 -0.299491
C18   C     C_3   0.500140 0.367298 0.960275 -0.247689
C19   C     C_3   0.602327 0.436209 0.041841 0.556299
C20   C     C_3   0.072350 0.570958 0.620843 -0.401462
C21   C     C_3   0.071546 0.348217 0.497938 -0.392149
C22   C     C_3   0.927895 0.570959 0.620828 -0.401453
C23   C     C_3   0.928679 0.348218 0.497922 -0.392036
C24   C     C_3   0.072352 0.575808 0.379867 -0.391616
C25   C     C_3   0.121339 0.498731 0.499605 0.171303
C26   C     C_3   0.878891 0.498733 0.499580 0.171254
F1    F     F_    0.499985 0.764335 0.080858 -0.662192
F2    F     F_    0.292699 0.370657 0.090657 -0.663878
F3    F     F_    0.707511 0.370813 0.090821 -0.663921
H1    H     H_    0.311123 0.617956 0.916748 0.165217
H2    H     H_    0.584130 0.117966 0.680768 0.156411
H3    H     H_    0.584144 0.879362 0.680803 0.159721
H4    H     H_    0.416478 0.117964 0.681261 0.156522
H5    H     H_    0.416441 0.879364 0.681284 0.159896
H6    H     H_    0.699222 0.118782 0.478176 0.146377
H7    H     H_    0.699239 0.881358 0.478047 0.143696
H8    H     H_    0.689029 0.618099 0.916903 0.165238
H9    H     H_    0.500184 0.259682 0.925262 0.177246
H10   H     H_    0.106982 0.679095 0.624498 0.173535
H11   H     H_    0.105953 0.293849 0.411689 0.193836
H12   H     H_    0.893263 0.684057 0.378411 0.174638
H13   H     H_    0.107655 0.516674 0.707437 0.171406
H14   H     H_    0.105904 0.290201 0.582938 0.175196
H15   H     H_    0.892597 0.516675 0.707415 0.171390
H16   H     H_    0.894326 0.290199 0.582913 0.175222
H17   H     H_    0.893268 0.679096 0.624478 0.173571
H18   H     H_    0.894264 0.293851 0.411665 0.193883
H19   H     H_    0.106960 0.684056 0.378433 0.174615
H20   H     H_    0.107660 0.525002 0.292214 0.205144
H21   H     H_    0.892551 0.525003 0.292191 0.205216
H22   H     H_    0.383262 0.121234 0.332319 0.189022
H23   H     H_    0.383404 0.881403 0.332253 0.196674
H24   H     H_    0.300162 0.118763 0.479356 0.146284
H25   H     H_    0.300144 0.881328 0.479193 0.143689
H26   H     H_    0.615232 0.121207 0.331640 0.189185
H27   H     H_    0.615117 0.881429 0.331594 0.197296
N1    N     N_3   0.499750 0.138610 0.497240 -0.049910
N2    N     N_3   0.499750 0.861390 0.497240 -0.049076
O1    O     O_R   0.314910 0.616040 0.499970 -0.642901
O2    O     O_R   0.314910 0.383960 0.499970 -0.634956
O3    O     O_R   0.500080 0.616020 0.313900 -0.596896
O4    O     O_R   0.500080 0.383980 0.313900 -0.593995
O5    O     O_R   0.685320 0.616040 0.499930 -0.643003
O6    O     O_R   0.685320 0.383960 0.499930 -0.635049
O7    O     O_R   0.500150 0.616060 0.686000 -0.629828
O8    O     O_R   0.500150 0.383940 0.686000 -0.634300
Zn1   Zn    Zn3+2 0.500150 0.654960 0.499940 0.924041
Zn2   Zn    Zn3+2 0.500150 0.345040 0.499940 0.932066

loop_
_geom_bond_atom_site_label_1
_geom_bond_atom_site_label_2
_ccdc_geom_bond_type
O8    Zn2   S    
C23   H16   S    
C5    N1    S    
C21   H14   S    
C7    H4    S    
C11   C16   S    
C14   C18   S    
C20   H13   S    
C10   O5    A    
O7    Zn1   S    
C11   O8    A    
O4    Zn2   S    
C14   F2    S    
C10   C26   S    
C21   C23   S    
C13   F1    S    
C18   H9    S    
C7    C8    S    
C2    C26   S    
C19   F3    S    
C17   H8    S    
C12   C13   S    
C12   C14   S    
C1    C25   S    
C3    H24   S    
C21   H11   S    
O3    Zn1   S    
C4    H23   S    
C9    O3    A    
C5    H6    S    
C12   C19   S    
N1    Zn2   S    
C22   H17   S    
C6    H7    S    
C22   H15   S    
C4    H25   S    
C6    N2    S    
C1    O1    A    
C13   C15   S    
C2    C24   S    
C5    C6    S    
C9    C12   S    
O5    Zn1   S    
C1    O2    A    
C23   H18   S    
C15   C16   S    
C20   C22   S    
C2    H12   S    
C22   C26   S    
C13   C17   S    
C8    H3    S    
O6    Zn2   S    
N2    Zn1   S    
C7    H2    S    
C24   C25   S    
O2    Zn2   S    
C15   H1    S    
C16   C18   S    
C18   C19   S    
C20   C25   S    
C23   C26   S    
C4    N2    S    
C24   H20   S    
C20   H10   S    
C3    H22   S    
C21   C25   S    
C14   C15   S    
C17   C19   S    
C7    N1    S    
C8    N2    S    
C2    H21   S    
O1    Zn1   S    
C8    H5    S    
C11   O7    A    
C5    H26   S    
C10   O6    A    
C3    C4    S    
C9    O4    A    
C6    H27   S    
C16   C17   S    
C3    N1    S    
C24   H19   S    
