data_mof_unit_30346.cif
_audit_creation_date              2012-12-10T16:53:09-0500
_audit_creation_method            fapswitch 2.2
_symmetry_space_group_name_H-M    P1
_symmetry_Int_Tables_number       1
_space_group_crystal_system       triclinic
_cell_length_a                    10.781273
_cell_length_b                    10.816413
_cell_length_c                    9.82913
_cell_angle_alpha                 89.248103
_cell_angle_beta                  90.72407
_cell_angle_gamma                 90.549695
_cell_volume                      1145.97989257

loop_
_atom_site_label
_atom_site_type_symbol
_atom_type_description
_atom_site_fract_x
_atom_site_fract_y
_atom_site_fract_z
_atom_type_partial_charge
C1    C     C_R   0.506509 0.265606 0.501615 0.906492
C2    C     C_R   0.064554 0.618589 0.560460 0.048115
C3    C     C_R   0.128807 0.518605 0.499752 -0.066980
C4    C     C_R   0.063537 0.420224 0.441759 -0.246889
C5    C     C_R   0.935838 0.417032 0.441585 -0.207220
C6    C     C_R   0.870578 0.511751 0.501499 -0.054068
C7    C     C_2   0.597692 0.931708 0.437317 0.275796
C8    C     C_2   0.503040 0.867889 0.493184 -0.358523
C9    C     C_2   0.590043 0.069048 0.422325 0.335659
C10   C     C_2   0.522289 0.132872 0.510520 -0.359923
C11   C     C_2   0.419610 0.439258 0.924364 0.052750
C12   C     C_R   0.263109 0.508182 0.499653 0.878814
C13   C     C_2   0.438433 0.419879 0.076527 0.166591
C14   C     C_R   0.502829 0.734520 0.498744 0.964505
C15   C     C_R   0.736914 0.501827 0.500554 0.785256
C16   C     C_R   0.125223 0.722702 0.620622 0.388211
C17   C     C_R   0.054550 0.818365 0.675583 -0.235696
C18   C     C_R   0.926234 0.813893 0.670795 -0.207497
C19   C     C_R   0.865652 0.713398 0.613393 -0.126791
C20   C     C_R   0.932759 0.614244 0.559433 0.021225
Cu1   Cu    Cu3+1 0.500020 0.500020 0.638630 0.955204
Cu2   Cu    Cu3+1 0.499980 0.499980 0.361370 1.015188
H1    H     H_    0.112270 0.342636 0.400995 0.144224
H2    H     H_    0.485484 0.088451 0.601267 0.081470
H3    H     H_    0.099366 0.897992 0.721124 0.124408
H4    H     H_    0.873173 0.888915 0.711915 0.148115
H5    H     H_    0.765511 0.715147 0.611040 0.166357
H6    H     H_    0.887534 0.338598 0.397298 0.164501
H7    H     H_    0.419932 0.912467 0.527979 0.096468
N1    N     N_2   0.498640 0.498660 0.846910 -0.225152
N2    N     N_2   0.498610 0.498630 0.153040 -0.037443
O1    O     O_R   0.500020 0.321960 0.617040 -0.620297
O2    O     O_R   0.499980 0.321920 0.382900 -0.530642
O3    O     O_R   0.319670 0.500020 0.617100 -0.533132
O4    O     O_R   0.319630 0.499980 0.382950 -0.599765
O5    O     O_R   0.500020 0.678080 0.617100 -0.583738
O6    O     O_R   0.499980 0.678040 0.382960 -0.558496
O7    O     O_R   0.680370 0.500020 0.617050 -0.614252
O8    O     O_R   0.680330 0.499980 0.382900 -0.558226
C21   C     C_R   0.307691 0.381291 0.863283 0.146799
C22   C     C_R   0.311876 0.259383 0.816150 -0.107248
C23   C     C_R   0.205444 0.203139 0.761763 -0.155527
C24   C     C_R   0.093751 0.267461 0.756080 -0.113878
C25   C     C_R   0.088198 0.387563 0.806126 -0.153703
C26   C     C_R   0.194196 0.443914 0.861828 -0.121162
H8    H     H_    0.397409 0.207830 0.822160 0.115551
H9    H     H_    0.209684 0.109785 0.723975 0.115420
H10   H     H_    0.011572 0.224447 0.712633 0.131716
H11   H     H_    0.002213 0.437713 0.799119 0.156514
H12   H     H_    0.188709 0.537010 0.900424 0.133829
C27   C     C_R   0.623619 0.514342 0.894914 0.396285
C28   C     C_R   0.694743 0.412500 0.938728 -0.182624
C29   C     C_R   0.813961 0.430645 0.992754 -0.154220
C30   C     C_R   0.865015 0.549739 0.998481 -0.108423
C31   C     C_R   0.798035 0.650374 0.947258 -0.184293
C32   C     C_R   0.678532 0.632633 0.893585 -0.101487
H13   H     H_    0.656999 0.319812 0.932501 0.096413
H14   H     H_    0.867121 0.352346 0.029428 0.141868
H15   H     H_    0.957345 0.563682 0.040391 0.134953
H16   H     H_    0.838417 0.742295 0.949932 0.143396
H17   H     H_    0.626745 0.711567 0.856188 0.138635
C33   C     C_R   0.386780 0.303386 0.133479 0.097178
C34   C     C_R   0.262928 0.297851 0.175607 -0.125292
C35   C     C_R   0.207976 0.184073 0.209902 -0.167942
C36   C     C_R   0.275857 0.075200 0.201425 -0.116180
C37   C     C_R   0.397863 0.079547 0.155655 -0.116697
C38   C     C_R   0.452740 0.192981 0.120439 -0.109846
H18   H     H_    0.207820 0.380975 0.176919 0.132812
H19   H     H_    0.111995 0.179817 0.240636 0.127049
H20   H     H_    0.233223 0.987291 0.227945 0.136233
H21   H     H_    0.449655 0.994903 0.146330 0.140750
H22   H     H_    0.545989 0.194413 0.081395 0.119933
O9    O     O_3   0.501785 0.614063 0.101288 -0.660811
H23   H     H_    0.562415 0.659436 0.158412 0.376868
O10   O     O_3   0.252503 0.731811 0.623919 -0.753868
H24   H     H_    0.278290 0.804876 0.677652 0.308762
O11   O     O_3   0.700092 0.867976 0.393369 -0.752785
H25   H     H_    0.769532 0.927599 0.381554 0.326640
O12   O     O_3   0.654353 0.132182 0.321857 -0.740395
H26   H     H_    0.682198 0.071843 0.254038 0.314160

loop_
_geom_bond_atom_site_label_1
_geom_bond_atom_site_label_2
_ccdc_geom_bond_type
C25   H11   S    
C31   C32   A    
C22   C23   A    
C16   O10   S    
O9    H23   S    
C19   C20   A    
C18   H4    S    
N1    C27   S    
C1    O2    A    
C7    C8    D    
Cu1   O5    S    
O11   H25   S    
C25   C26   A    
Cu2   O4    S    
C33   C38   A    
C8    H7    S    
C38   H22   S    
C14   O5    A    
C5    C6    A    
N2    O9    S    
C36   H20   S    
C18   C19   A    
C9    O12   S    
C3    C12   S    
C6    C15   S    
C34   H18   S    
Cu1   O7    S    
C11   N1    D    
C16   C17   A    
C22   H8    S    
C2    C16   A    
C24   H10   S    
C7    O11   S    
C37   C38   A    
Cu1   Cu2   S    
C30   H15   S    
C21   C26   A    
Cu1   O1    S    
Cu2   N2    S    
C13   C33   S    
C2    C20   A    
C27   C28   A    
C4    H1    S    
Cu1   O3    S    
C10   H2    S    
C29   C30   A    
Cu2   O6    S    
C1    O1    A    
C34   C35   A    
O10   H24   S    
C15   O7    A    
C33   C34   A    
C5    H6    S    
C37   H21   S    
C17   C18   A    
C35   H19   S    
C12   O4    A    
C15   O8    A    
C21   C22   A    
C24   C25   A    
C23   C24   A    
C12   O3    A    
C3    C4    A    
C19   H5    S    
C28   C29   A    
C9    C10   D    
C7    C9    S    
Cu2   O2    S    
C30   C31   A    
C8    C14   S    
C13   N2    D    
C1    C10   S    
C27   C32   A    
C4    C5    A    
C29   H14   S    
C6    C20   A    
Cu1   N1    S    
C17   H3    S    
C35   C36   A    
C2    C3    A    
C14   O6    A    
C11   C13   S    
C26   H12   S    
Cu2   O8    S    
C23   H9    S    
C11   C21   S    
C28   H13   S    
O12   H26   S    
C36   C37   A    
C32   H17   S    
C31   H16   S    
