data_mof_unit_45960.cif
_audit_creation_date              2012-12-10T17:16:34-0500
_audit_creation_method            fapswitch 2.2
_symmetry_space_group_name_H-M    P1
_symmetry_Int_Tables_number       1
_space_group_crystal_system       triclinic
_cell_length_a                    10.102373
_cell_length_b                    10.6549
_cell_length_c                    10.823034
_cell_angle_alpha                 90.639464
_cell_angle_beta                  95.642354
_cell_angle_gamma                 79.393919
_cell_volume                      1139.50945906

loop_
_atom_site_label
_atom_site_type_symbol
_atom_type_description
_atom_site_fract_x
_atom_site_fract_y
_atom_site_fract_z
_atom_type_partial_charge
C1    C     C_R   0.443297 0.511931 0.267075 0.945774
C2    C     C_R   0.492886 0.741061 0.484834 0.889877
C3    C     C_R   0.753592 0.064151 0.466177 -0.133936
C4    C     C_R   0.245847 0.935691 0.532088 -0.134319
C5    C     C_R   0.842467 0.989031 0.392454 -0.182335
C6    C     C_R   0.156804 0.010728 0.605705 -0.183997
C7    C     C_R   0.803683 0.885333 0.329514 -0.144126
C8    C     C_R   0.195519 0.114317 0.668887 -0.143629
C9    C     C_R   0.680345 0.851398 0.347840 -0.121490
C10   C     C_R   0.318955 0.148246 0.650880 -0.122044
C11   C     C_R   0.593423 0.922082 0.429234 0.076349
C12   C     C_R   0.556502 0.495225 0.732978 0.944068
C13   C     C_R   0.406026 0.077733 0.569492 0.074994
C14   C     C_R   0.622343 0.037662 0.476398 0.092703
C15   C     C_R   0.377129 0.962218 0.522191 0.093565
C16   C     C_R   0.480381 0.878112 0.466919 -0.258908
C17   C     C_R   0.519224 0.121708 0.532020 -0.261850
C18   C     C_2   0.410511 0.530559 0.135201 -0.385694
C19   C     C_2   0.588514 0.504084 0.865120 -0.383298
C20   C     C_2   0.511020 0.539251 0.066512 -0.156758
C21   C     C_2   0.486607 0.542616 0.934230 -0.143928
C22   C     C_2   0.073676 0.489264 0.489934 -0.136367
C23   C     C_2   0.926314 0.510759 0.510049 -0.138068
C24   C     C_R   0.507025 0.258856 0.514868 0.895698
H1    H     H_    0.791484 0.139430 0.518120 0.158946
H2    H     H_    0.307055 0.534975 0.094224 0.148306
H3    H     H_    0.888265 0.580458 0.577948 0.172198
H4    H     H_    0.111718 0.419574 0.422024 0.171895
H5    H     H_    0.128321 0.170629 0.728961 0.135065
H6    H     H_    0.870781 0.828921 0.269422 0.134342
H7    H     H_    0.882248 0.382887 0.385385 0.160981
H8    H     H_    0.117763 0.617104 0.614629 0.159477
H9    H     H_    0.208194 0.860325 0.480060 0.159004
H10   H     H_    0.941065 0.012045 0.383362 0.138286
H11   H     H_    0.058181 0.987684 0.614595 0.138179
H12   H     H_    0.653301 0.769436 0.298322 0.142490
H13   H     H_    0.345950 0.230047 0.700688 0.146000
H14   H     H_    0.382206 0.568506 0.893826 0.187211
H15   H     H_    0.614744 0.534693 0.107126 0.185110
H16   H     H_    0.692642 0.477985 0.905889 0.147421
N1    N     N_2   0.157300 0.551390 0.551120 -0.201203
N2    N     N_2   0.842700 0.448610 0.448880 -0.201576
O1    O     O_R   0.568940 0.489660 0.307530 -0.614548
O2    O     O_R   0.431060 0.510340 0.692470 -0.616763
O3    O     O_R   0.348880 0.522640 0.340350 -0.614682
O4    O     O_R   0.651120 0.477360 0.659650 -0.614679
O5    O     O_R   0.610030 0.300280 0.483580 -0.617975
O6    O     O_R   0.389970 0.699720 0.516420 -0.620934
O7    O     O_R   0.389970 0.333270 0.516400 -0.608150
O8    O     O_R   0.610030 0.666730 0.483600 -0.610556
Zn1   Zn    Zn3+2 0.646940 0.477980 0.478080 0.927365
Zn2   Zn    Zn3+2 0.353060 0.522020 0.521920 0.926509

loop_
_geom_bond_atom_site_label_1
_geom_bond_atom_site_label_2
_ccdc_geom_bond_type
C9    H12   S    
C6    C8    A    
H8    N1    S    
H7    N2    S    
C23   H3    S    
C2    C16   S    
C11   C16   A    
N1    Zn2   S    
C18   H2    S    
C13   C17   A    
N2    Zn1   S    
O7    Zn2   S    
O1    Zn1   S    
C5    H10   S    
O2    Zn2   S    
C4    C15   A    
O8    Zn1   S    
C12   O2    A    
C7    H6    S    
C22   H4    S    
C20   C21   S    
C9    C11   A    
C14   C17   A    
C1    O3    A    
C1    C18   S    
C23   N2    D    
C3    C14   A    
C10   H13   S    
C8    H5    S    
C12   C19   S    
C4    C6    A    
C19   C21   D    
C18   C20   D    
C13   C15   A    
C11   C14   A    
C22   N1    D    
C19   H16   S    
C15   C16   A    
C17   C24   S    
C7    C9    A    
O6    Zn2   S    
C3    H1    S    
C6    H11   S    
C12   O4    A    
C24   O7    A    
C5    C7    A    
C20   H15   S    
C4    H9    S    
O5    Zn1   S    
C2    O8    A    
O3    Zn2   S    
C2    O6    A    
C22   C23   S    
C24   O5    A    
O4    Zn1   S    
C1    O1    A    
C8    C10   A    
C21   H14   S    
C3    C5    A    
C10   C13   A    
