data_mof_unit_54225.cif
_audit_creation_date              2012-12-10T16:49:27-0500
_audit_creation_method            fapswitch 2.2
_symmetry_space_group_name_H-M    P1
_symmetry_Int_Tables_number       1
_space_group_crystal_system       triclinic
_cell_length_a                    7.830323
_cell_length_b                    8.530785
_cell_length_c                    12.831793
_cell_angle_alpha                 88.203352
_cell_angle_beta                  90.141612
_cell_angle_gamma                 92.563293
_cell_volume                      855.86931364

loop_
_atom_site_label
_atom_site_type_symbol
_atom_type_description
_atom_site_fract_x
_atom_site_fract_y
_atom_site_fract_z
_atom_type_partial_charge
C1    C     C_R   0.456995 0.205661 0.496630 0.887599
C2    C     C_R   0.671365 0.378904 0.147123 0.322788
C3    C     C_R   0.604639 0.503377 0.872741 0.414959
C4    C     C_R   0.394823 0.494928 0.127448 0.415071
C5    C     C_R   0.575063 0.471517 0.977786 -0.203549
C6    C     C_R   0.424187 0.526551 0.022369 -0.203571
C7    C     C_2   0.446043 0.046616 0.474615 -0.051997
C8    C     C_2   0.553957 0.953384 0.525386 -0.052147
C9    C     C_R   0.543005 0.794338 0.503372 0.887891
C10   C     C_R   0.472710 0.518220 0.698839 0.948290
C11   C     C_R   0.527235 0.481513 0.301211 0.948425
C12   C     C_R   0.532779 0.451842 0.190881 -0.331578
C13   C     C_R   0.466941 0.547132 0.809275 -0.331334
C14   C     C_R   0.310369 0.615452 0.961047 0.448362
C15   C     C_R   0.688831 0.382611 0.039164 0.448532
C16   C     C_R   0.328151 0.619725 0.853105 0.322718
Cl1   Cl    Cl    0.180593 0.462583 0.171076 -0.365909
Cl2   Cl    Cl    0.819053 0.534875 0.829258 -0.365893
Cl3   Cl    Cl    0.807498 0.263555 0.225486 -0.399664
Cl4   Cl    Cl    0.191994 0.735321 0.774911 -0.399623
Cl5   Cl    Cl    0.160243 0.738170 0.016679 -0.341370
Cl6   Cl    Cl    0.838398 0.259247 0.983647 -0.341375
Cl7   Cl    Cl    0.974882 0.675007 0.382687 -0.344098
Cl8   Cl    Cl    0.025124 0.324947 0.617279 -0.344159
I1    I     I_    0.311798 0.993236 0.333197 -0.012125
I2    I     I_    0.688200 0.006767 0.666804 -0.012220
N1    N     N_2   0.054030 0.541640 0.471970 0.150429
N2    N     N_2   0.945970 0.458360 0.528030 0.150489
O1    O     O_R   0.609680 0.261530 0.506880 -0.601844
O2    O     O_R   0.390320 0.738470 0.493120 -0.601890
O3    O     O_R   0.323330 0.288220 0.488910 -0.578183
O4    O     O_R   0.676670 0.711780 0.511090 -0.578178
O5    O     O_R   0.619510 0.488830 0.661140 -0.568010
O6    O     O_R   0.380490 0.511170 0.338860 -0.568123
O7    O     O_R   0.333160 0.515520 0.643180 -0.555304
O8    O     O_R   0.666840 0.484480 0.356820 -0.555208
Zn1   Zn    Zn3+2 0.691200 0.482180 0.511990 1.180942
Zn2   Zn    Zn3+2 0.308800 0.517820 0.488010 1.180859

loop_
_geom_bond_atom_site_label_1
_geom_bond_atom_site_label_2
_ccdc_geom_bond_type
C11   C12   S    
C10   O7    A    
Cl7   N1    S    
C4    C12   A    
C8    I2    S    
C3    C13   A    
O3    Zn2   S    
C16   Cl4   S    
C2    C12   A    
C1    O1    A    
C7    C8    D    
C1    C7    S    
O4    Zn1   S    
C2    C15   A    
N2    Zn1   S    
C4    Cl1   S    
C9    O2    A    
C14   Cl5   S    
C11   O8    A    
C10   O5    A    
C11   O6    A    
C5    C6    A    
C14   C16   A    
C5    C15   A    
C6    C14   A    
N1    Zn2   S    
C1    O3    A    
O7    Zn2   S    
O2    Zn2   S    
C3    Cl2   S    
C4    C6    A    
C13   C16   A    
O1    Zn1   S    
N1    N2    D    
O8    Zn1   S    
C9    O4    A    
C2    Cl3   S    
O6    Zn2   S    
C15   Cl6   S    
O5    Zn1   S    
Cl8   N2    S    
C8    C9    S    
C3    C5    A    
C10   C13   S    
C7    I1    S    
