data_mof_unit_57206.cif
_audit_creation_date              2012-12-10T17:36:42-0500
_audit_creation_method            fapswitch 2.2
_symmetry_space_group_name_H-M    P1
_symmetry_Int_Tables_number       1
_space_group_crystal_system       triclinic
_cell_length_a                    11.991475
_cell_length_b                    12.758743
_cell_length_c                    15.710478
_cell_angle_alpha                 90.599844
_cell_angle_beta                  86.372292
_cell_angle_gamma                 94.908955
_cell_volume                      2389.99637133

loop_
_atom_site_label
_atom_site_type_symbol
_atom_type_description
_atom_site_fract_x
_atom_site_fract_y
_atom_site_fract_z
_atom_type_partial_charge
C1    C     C_R   0.523664 0.700626 0.496451 0.916602
C2    C     C_R   0.476363 0.299316 0.503984 0.916199
C3    C     C_R   0.636098 0.971454 0.544610 0.473179
C4    C     C_R   0.364094 0.027401 0.457540 0.505366
C5    C     C_R   0.629759 0.863485 0.534685 -0.319373
C6    C     C_R   0.369823 0.135659 0.467421 -0.344926
C7    C     C_R   0.469612 0.870258 0.448007 0.118340
C8    C     C_R   0.531909 0.129949 0.552292 0.118067
C9    C     C_R   0.458755 0.974408 0.474966 -0.080848
C10   C     C_R   0.542768 0.025707 0.525445 -0.095881
C11   C     C_R   0.954717 0.424364 0.405452 -0.338819
C12   C     C_R   0.045547 0.578137 0.593369 -0.329884
C13   C     C_R   0.838266 0.428172 0.416824 0.026117
C14   C     C_R   0.161906 0.573066 0.582561 0.021180
C15   C     C_R   0.858250 0.530508 0.542734 -0.057090
C16   C     C_R   0.141776 0.470107 0.456987 -0.059467
C17   C     C_R   0.975754 0.527852 0.534418 0.094213
C18   C     C_R   0.024387 0.473643 0.464909 0.103599
C19   C     C_R   0.500560 0.501476 0.662019 0.900678
C20   C     C_R   0.499503 0.498892 0.337946 0.901587
C21   C     C_3   0.420147 0.564341 0.033045 -0.322635
C22   C     C_3   0.581564 0.444883 0.966803 -0.323424
C23   C     C_3   0.522661 0.602421 0.973943 0.595738
C24   C     C_3   0.479023 0.406732 0.025723 0.596998
C25   C     C_1   0.501724 0.504470 0.750845 -0.184034
C26   C     C_1   0.498903 0.499128 0.249044 -0.182596
C27   C     C_3   0.398918 0.466222 0.974994 -0.316122
C28   C     C_3   0.602808 0.542975 0.024789 -0.318545
C29   C     C_3   0.501875 0.506208 0.916945 0.074437
C30   C     C_3   0.499854 0.502819 0.082886 0.070920
C31   C     C_1   0.502282 0.506449 0.826109 -0.000606
C32   C     C_1   0.498947 0.500195 0.173740 0.000328
C33   C     C_R   0.457986 0.186892 0.509268 -0.132613
C34   C     C_R   0.542304 0.812906 0.491752 -0.143283
H1    H     H_    0.355754 0.613321 0.062439 0.154225
H2    H     H_    0.645627 0.395107 0.937928 0.155192
H3    H     H_    0.684687 0.575816 0.047095 0.156578
H4    H     H_    0.316978 0.434698 0.952070 0.154434
H5    H     H_    0.305471 0.179227 0.442400 0.178030
H6    H     H_    0.693598 0.819525 0.559989 0.182755
H7    H     H_    0.180569 0.427432 0.404744 0.131347
H8    H     H_    0.819375 0.572963 0.595070 0.130257
H9    H     H_    0.215737 0.611448 0.628286 0.140762
H10   H     H_    0.784532 0.390083 0.370905 0.136586
H11   H     H_    0.989877 0.383267 0.350768 0.147562
H12   H     H_    0.010510 0.620429 0.647425 0.150806
N1    N     N_R   0.207800 0.519340 0.515560 -0.103592
N2    N     N_R   0.792200 0.480660 0.484440 -0.101724
O1    O     O_R   0.421700 0.658830 0.504150 -0.627625
O2    O     O_R   0.578300 0.341170 0.495850 -0.625399
O3    O     O_R   0.609310 0.646410 0.494170 -0.621889
O4    O     O_R   0.390690 0.353590 0.505830 -0.622267
O5    O     O_R   0.406210 0.506220 0.628210 -0.621632
O6    O     O_R   0.593790 0.493780 0.371790 -0.621923
O7    O     O_R   0.593830 0.493800 0.618230 -0.616931
O8    O     O_R   0.406170 0.506200 0.381770 -0.615707
Zn1   Zn    Zn3+2 0.374730 0.508290 0.506660 0.935279
Zn2   Zn    Zn3+2 0.625270 0.491710 0.493340 0.937414
O9    O     O_3   0.546503 0.704358 0.939943 -0.643518
C35   C     C_3   0.557026 0.780021 0.006120 0.073687
H13   H     H_    0.636530 0.829935 0.992322 0.165558
H14   H     H_    0.562055 0.746271 0.070960 0.122778
C36   C     C_3   0.459223 0.849567 0.006951 -0.342571
H15   H     H_    0.457759 0.886954 0.943495 0.230247
H16   H     H_    0.378919 0.800506 0.019544 0.218021
C37   C     C_3   0.469426 0.935258 0.075185 -0.968915
H17   H     H_    0.470243 0.899738 0.139273 0.272752
H18   H     H_    0.396583 0.983279 0.074882 0.273270
H19   H     H_    0.547576 0.987417 0.062420 0.262863
O10   O     O_3   0.456937 0.304036 0.058612 -0.643487
C38   C     C_3   0.437470 0.230685 0.991790 0.069556
H20   H     H_    0.489847 0.164385 0.000515 0.167171
H21   H     H_    0.461478 0.262124 0.926488 0.125002
C39   C     C_3   0.314048 0.188161 0.997036 -0.332587
H22   H     H_    0.293259 0.147797 0.059075 0.228905
H23   H     H_    0.260064 0.254302 0.993633 0.217809
C40   C     C_3   0.288783 0.111060 0.924434 -0.971043
H24   H     H_    0.304496 0.151373 0.861955 0.267503
H25   H     H_    0.199389 0.079807 0.931155 0.268259
H26   H     H_    0.342052 0.044194 0.926016 0.267915
C41   C     C_3   0.586164 0.177332 0.631293 -0.338201
C42   C     C_3   0.498508 0.212784 0.698190 -0.919744
H27   H     H_    0.452468 0.276753 0.673931 0.257180
H28   H     H_    0.437416 0.145380 0.717088 0.263724
H29   H     H_    0.540566 0.242610 0.755732 0.245117
H30   H     H_    0.630429 0.119532 0.665172 0.255008
H31   H     H_    0.648416 0.244091 0.613548 0.225660
C43   C     C_3   0.415825 0.823123 0.368725 -0.325538
C44   C     C_3   0.503327 0.785392 0.302745 -0.933313
H32   H     H_    0.564548 0.852090 0.282410 0.261901
H33   H     H_    0.549370 0.722262 0.328256 0.260267
H34   H     H_    0.461006 0.753482 0.245953 0.248485
H35   H     H_    0.352138 0.757493 0.386442 0.227261
H36   H     H_    0.373545 0.881738 0.334035 0.254161
O11   O     O_3   0.734019 0.021960 0.572126 -0.666414
C45   C     C_3   0.801446 0.058396 0.499742 0.073836
H37   H     H_    0.756210 0.112116 0.461164 0.143309
H38   H     H_    0.825829 0.990697 0.459278 0.146669
C46   C     C_3   0.907755 0.119361 0.528625 -0.323218
H39   H     H_    0.884472 0.188165 0.567809 0.228507
H40   H     H_    0.953410 0.067855 0.568418 0.222685
C47   C     C_3   0.984629 0.158057 0.452239 -0.985490
H41   H     H_    0.013608 0.090523 0.414413 0.263209
H42   H     H_    0.058859 0.206117 0.474610 0.268716
H43   H     H_    0.939093 0.206702 0.410346 0.269580
O12   O     O_3   0.267536 0.974489 0.429310 -0.673422
C48   C     C_3   0.183225 0.965237 0.496744 0.067396
H44   H     H_    0.101938 0.945242 0.467838 0.175388
H45   H     H_    0.175223 0.040625 0.532275 0.145843
C49   C     C_3   0.201960 0.876350 0.558013 -0.358099
H46   H     H_    0.209924 0.802046 0.521428 0.237861
H47   H     H_    0.280541 0.895788 0.590817 0.218098
C50   C     C_3   0.104849 0.860167 0.625420 -0.956308
H48   H     H_    0.094377 0.934156 0.661838 0.265642
H49   H     H_    0.122485 0.798282 0.670632 0.260740
H50   H     H_    0.025737 0.835093 0.594910 0.268387

loop_
_geom_bond_atom_site_label_1
_geom_bond_atom_site_label_2
_ccdc_geom_bond_type
C25   C31   T    
C37   H18   S    
C36   H16   S    
C11   C18   A    
C26   C32   T    
C22   C29   S    
C27   C29   S    
O11   C45   S    
C24   C27   S    
C20   O8    A    
C41   C42   S    
C24   O10   S    
C40   H24   S    
C23   O9    S    
C39   H23   S    
C35   C36   S    
C23   C29   S    
C37   H19   S    
O12   C48   S    
C27   H4    S    
C45   C46   S    
O1    Zn1   S    
O8    Zn1   S    
C47   H43   S    
C35   H14   S    
C49   H46   S    
C2    O2    A    
C13   N2    A    
C7    C43   S    
C39   C40   S    
C45   H38   S    
C12   C17   A    
C48   H44   S    
O10   C38   S    
C44   H33   S    
C9    C10   A    
C41   H30   S    
C50   H50   S    
C19   O5    A    
C37   H17   S    
C21   C27   S    
C36   C37   S    
O9    C35   S    
C22   C28   S    
C45   H37   S    
C48   H45   S    
C15   N2    A    
C16   N1    A    
C1    C34   S    
C49   H47   S    
C40   H25   S    
C43   H36   S    
C39   H22   S    
C8    C41   S    
O2    Zn2   S    
C20   O6    A    
C38   H21   S    
O5    Zn1   S    
C4    O12   S    
C35   H13   S    
C12   H12   S    
N1    Zn1   S    
C46   H39   S    
C5    C34   A    
C17   C18   A    
O3    Zn2   S    
C23   C28   S    
C44   H34   S    
C47   H42   S    
C1    O3    A    
C49   C50   S    
C41   H31   S    
C2    O4    A    
C2    C33   S    
C4    C6    A    
C46   H40   S    
C12   C14   A    
C42   H28   S    
C21   C23   S    
C48   C49   S    
C22   C24   S    
C11   H11   S    
C50   H48   S    
O6    Zn2   S    
C40   H26   S    
C19   O7    A    
C15   C17   A    
C43   H35   S    
C16   C18   A    
C15   H8    S    
C3    C5    A    
C38   C39   S    
N2    Zn2   S    
C14   N1    A    
C21   H1    S    
C42   H29   S    
C22   H2    S    
C21   C30   S    
C6    C33   A    
C28   C30   S    
C44   H32   S    
C38   H20   S    
C29   C31   S    
C3    C10   A    
C30   C32   S    
C11   C13   A    
O7    Zn2   S    
C20   C26   S    
C28   H3    S    
C7    C34   A    
C8    C33   A    
C47   H41   S    
C19   C25   S    
C24   C30   S    
O4    Zn1   S    
C36   H15   S    
C7    C9    A    
C46   C47   S    
C43   C44   S    
C8    C10   A    
C42   H27   S    
C5    H6    S    
C6    H5    S    
C3    O11   S    
C4    C9    A    
C1    O1    A    
C16   H7    S    
C13   H10   S    
C14   H9    S    
C50   H49   S    
