data_mof_unit_12910.cif
_audit_creation_date              2012-12-10T20:43:37-0500
_audit_creation_method            fapswitch 2.2
_symmetry_space_group_name_H-M    P1
_symmetry_Int_Tables_number       1
_space_group_crystal_system       triclinic
_cell_length_a                    10.895945
_cell_length_b                    19.12405
_cell_length_c                    19.080064
_cell_angle_alpha                 95.384327
_cell_angle_beta                  92.113829
_cell_angle_gamma                 96.903008
_cell_volume                      3924.89651904

loop_
_atom_site_label
_atom_site_type_symbol
_atom_type_description
_atom_site_fract_x
_atom_site_fract_y
_atom_site_fract_z
_atom_type_partial_charge
C1    C     C_R   0.513701 0.690207 0.508422 0.545286
C2    C     C_R   0.512563 0.766541 0.505314 -0.032123
C3    C     C_R   0.623599 0.813267 0.506030 0.005338
C4    C     C_R   0.486534 0.308915 0.491056 0.518154
C5    C     C_R   0.618311 0.883958 0.490955 0.024932
C6    C     C_R   0.485987 0.514169 0.767196 -0.006009
C7    C     C_R   0.588319 0.502469 0.810550 0.026606
C8    C     C_R   0.580311 0.508774 0.884692 -0.015010
C9    C     C_R   0.469514 0.527267 0.914695 0.190175
C10   C     C_R   0.372931 0.544930 0.871388 -0.011194
C11   C     C_R   0.380869 0.536348 0.798281 -0.171921
C12   C     C_R   0.508404 0.195203 0.546596 0.000447
C13   C     C_R   0.411430 0.521303 0.127199 -0.131724
C14   C     C_R   0.421020 0.526572 0.200546 -0.075653
C15   C     C_R   0.479810 0.475624 0.086858 0.171420
C16   C     C_R   0.511873 0.492622 0.311079 0.555714
C17   C     C_R   0.507628 0.490401 0.234299 -0.015256
C18   C     C_R   0.582333 0.447767 0.194603 -0.010594
C19   C     C_R   0.559221 0.434347 0.120691 0.034450
C20   C     C_R   0.488378 0.508005 0.689420 0.523853
C21   C     C_R   0.834233 0.514745 0.514637 0.516826
C22   C     C_R   0.163571 0.484522 0.485538 0.494676
C23   C     C_R   0.484319 0.120930 0.544582 -0.034109
C24   C     C_2   0.028535 0.474406 0.484169 -0.055479
C25   C     C_2   0.966182 0.521885 0.521115 -0.030651
C26   C     C_R   0.473851 0.229914 0.487440 -0.034681
C27   C     C_R   0.963827 0.408166 0.444954 0.021094
C28   C     C_R   0.975456 0.394408 0.372034 -0.061519
C29   C     C_R   0.921483 0.330159 0.336391 -0.082239
C30   C     C_R   0.854548 0.279544 0.372985 -0.089863
C31   C     C_R   0.842977 0.292548 0.445536 -0.100832
C32   C     C_R   0.898786 0.356097 0.481599 -0.068848
C33   C     C_2   0.565328 0.235274 0.612355 0.600556
C34   C     C_R   0.427121 0.080800 0.484069 0.179957
C35   C     C_R   0.344749 0.573149 0.241621 0.028459
C36   C     C_R   0.243932 0.543897 0.277707 -0.079293
C37   C     C_R   0.177831 0.587870 0.320680 -0.111357
C38   C     C_R   0.211747 0.661136 0.327724 -0.106241
C39   C     C_R   0.311233 0.690605 0.291405 -0.111760
C40   C     C_R   0.377504 0.646818 0.248322 -0.091481
C41   C     C_R   0.263823 0.574213 0.901417 0.052742
C42   C     C_R   0.143307 0.547387 0.875205 -0.108185
C43   C     C_R   0.041560 0.578394 0.900231 -0.105594
C44   C     C_R   0.058932 0.636318 0.951465 -0.098864
C45   C     C_R   0.395627 0.113947 0.424566 -0.024531
C46   C     C_R   0.178017 0.662924 0.978353 -0.120073
C47   C     C_R   0.280163 0.632304 0.953333 -0.078977
C48   C     C_2   0.691630 0.424380 0.229853 0.614936
C49   C     C_R   0.689158 0.500028 0.931471 0.057788
C50   C     C_R   0.736356 0.554348 0.983797 -0.088471
C51   C     C_R   0.832889 0.544498 0.030784 -0.109303
C52   C     C_R   0.885449 0.481232 0.024848 -0.060076
C53   C     C_R   0.840340 0.427286 0.972534 -0.088008
C54   C     C_R   0.741624 0.436170 0.926618 -0.040241
C55   C     C_2   0.610696 0.374927 0.078873 0.583253
C56   C     C_R   0.419686 0.188192 0.425575 -0.078160
C57   C     C_2   0.707794 0.492153 0.779164 0.575088
C58   C     C_R   0.023794 0.584816 0.567302 0.060515
C59   C     C_R   0.048747 0.650690 0.540570 -0.062816
C60   C     C_R   0.103507 0.709540 0.584748 -0.090152
C61   C     C_R   0.133329 0.702954 0.655534 -0.071363
C62   C     C_R   0.108092 0.637518 0.682450 -0.089912
C63   C     C_R   0.053233 0.578567 0.638544 -0.058260
C64   C     C_2   0.271748 0.874494 0.443388 0.598520
C65   C     C_R   0.342254 0.070615 0.359802 0.083650
C66   C     C_R   0.215101 0.065777 0.342209 -0.076625
C67   C     C_R   0.392910 0.858342 0.470915 0.048987
C68   C     C_R   0.166113 0.028232 0.278946 -0.112941
C69   C     C_R   0.243612 0.995031 0.233270 -0.092773
C70   C     C_R   0.370292 0.999543 0.250671 -0.084296
C71   C     C_R   0.419746 0.037431 0.313665 -0.035666
C72   C     C_R   0.393674 0.220745 0.359742 0.057771
C73   C     C_R   0.487163 0.232388 0.312013 -0.065466
C74   C     C_R   0.463000 0.263053 0.250032 -0.072466
C75   C     C_R   0.346043 0.282978 0.235799 -0.092034
C76   C     C_R   0.252330 0.271199 0.282983 -0.094769
C77   C     C_R   0.275565 0.239694 0.344575 -0.051531
C78   C     C_R   0.399201 0.789858 0.489372 -0.195686
C79   C     C_2   0.744890 0.787718 0.520845 0.632809
C80   C     C_R   0.522808 0.083541 0.604974 0.067797
C81   C     C_R   0.433466 0.047126 0.643903 -0.051468
C82   C     C_R   0.470021 0.009390 0.698753 -0.105575
C83   C     C_R   0.595729 0.007693 0.714948 -0.090733
C84   C     C_R   0.685101 0.043745 0.676327 -0.079434
C85   C     C_R   0.648945 0.081462 0.621384 -0.052810
C86   C     C_2   0.732580 0.935913 0.497215 0.627366
C87   C     C_R   0.503086 0.906891 0.473587 0.157116
H1    H     H_    0.348426 0.551738 0.101500 0.150171
H2    H     H_    0.217811 0.487133 0.273273 0.116509
H3    H     H_    0.100872 0.565193 0.348922 0.109437
H4    H     H_    0.161099 0.695058 0.361395 0.128398
H5    H     H_    0.337585 0.747337 0.297098 0.133241
H6    H     H_    0.455643 0.670093 0.221301 0.116475
H7    H     H_    0.128112 0.502754 0.835199 0.113251
H8    H     H_    0.949201 0.557557 0.879853 0.157778
H9    H     H_    0.980124 0.660662 0.970309 0.114509
H10   H     H_    0.191348 0.707851 0.018000 0.108617
H11   H     H_    0.372081 0.654961 0.973330 0.117411
H12   H     H_    0.304866 0.548595 0.765185 0.134859
H13   H     H_    0.877883 0.428541 0.235186 0.322822
H14   H     H_    0.697238 0.603923 0.988759 0.117440
H15   H     H_    0.867726 0.586210 0.071429 0.120882
H16   H     H_    0.960791 0.473923 0.060929 0.141732
H17   H     H_    0.880205 0.377978 0.968466 0.122740
H18   H     H_    0.704309 0.392647 0.888473 0.163699
H19   H     H_    0.734891 0.304479 0.071734 0.329134
H20   H     H_    0.868064 0.537746 0.745214 0.326510
H21   H     H_    0.026420 0.656246 0.485737 0.109381
H22   H     H_    0.122872 0.760289 0.564226 0.155782
H23   H     H_    0.315714 0.752267 0.485478 0.139635
H24   H     H_    0.175885 0.748579 0.689527 0.119187
H25   H     H_    0.131110 0.632462 0.737273 0.109093
H26   H     H_    0.034859 0.527927 0.659664 0.098914
H27   H     H_    0.176559 0.914371 0.367457 0.346248
H28   H     H_    0.154424 0.091471 0.377178 0.109904
H29   H     H_    0.068091 0.024754 0.265407 0.118408
H30   H     H_    0.205527 0.965838 0.184405 0.110218
H31   H     H_    0.430231 0.973968 0.215194 0.107197
H32   H     H_    0.518249 0.041462 0.326254 0.128121
H33   H     H_    0.578232 0.217499 0.322771 0.104178
H34   H     H_    0.027274 0.433052 0.343012 0.093787
H35   H     H_    0.535039 0.271577 0.213089 0.153455
H36   H     H_    0.328018 0.307395 0.188147 0.115457
H37   H     H_    0.161752 0.286500 0.271830 0.098170
H38   H     H_    0.202482 0.230999 0.380916 0.106610
H39   H     H_    0.921024 0.783493 0.493271 0.349568
H40   H     H_    0.335823 0.047718 0.631466 0.128494
H41   H     H_    0.400900 0.981269 0.728553 0.116021
H42   H     H_    0.623873 0.978311 0.757305 0.121450
H43   H     H_    0.782396 0.042086 0.688661 0.132779
H44   H     H_    0.718939 0.108301 0.591093 0.135174
H45   H     H_    0.931533 0.319500 0.280328 0.111993
H46   H     H_    0.889512 0.976304 0.553686 0.339822
H47   H     H_    0.812696 0.229982 0.345226 0.107822
H48   H     H_    0.792221 0.252978 0.473997 0.140607
H49   H     H_    0.892891 0.364210 0.538238 0.158552
H50   H     H_    0.543951 0.270330 0.713567 0.356137
N1    N     N_2   0.408554 0.006150 0.482794 -0.199255
N2    N     N_2   0.503919 0.980312 0.465554 -0.191350
N3    N     N_2   0.455257 0.529297 0.988465 -0.267900
N4    N     N_2   0.477772 0.473386 0.012205 -0.164915
O1    O     O_3   0.500000 0.500000 0.500000 -0.454808
O2    O     O_R   0.783160 0.551820 0.473170 -0.529270
O3    O     O_R   0.222430 0.530340 0.530340 -0.539985
O4    O     O_R   0.771990 0.472690 0.551320 -0.534613
O5    O     O_R   0.222420 0.445150 0.445160 -0.549282
O6    O     O_2   0.674361 0.260146 0.614971 -0.505543
O7    O     O_R   0.494881 0.242412 0.671733 -0.686707
O8    O     O_2   0.679751 0.389251 0.280044 -0.537881
O9    O     O_R   0.809335 0.445808 0.206795 -0.669912
O10   O     O_2   0.561366 0.350293 0.021798 -0.507307
O11   O     O_R   0.711043 0.344477 0.105170 -0.684399
O12   O     O_R   0.435070 0.449940 0.339290 -0.534437
O13   O     O_2   0.733207 0.432396 0.762934 -0.508213
O14   O     O_R   0.789597 0.551231 0.766810 -0.707182
O15   O     O_2   0.177158 0.855037 0.472382 -0.544007
O16   O     O_R   0.264899 0.908910 0.382296 -0.674573
O17   O     O_2   0.757711 0.751955 0.569888 -0.504209
O18   O     O_R   0.843888 0.804070 0.478172 -0.652989
O19   O     O_2   0.752950 0.976748 0.452168 -0.506594
O20   O     O_R   0.816099 0.938574 0.555129 -0.677689
O21   O     O_R   0.419380 0.543640 0.654290 -0.550288
O22   O     O_R   0.586230 0.658380 0.469080 -0.520722
O23   O     O_R   0.559310 0.348040 0.537340 -0.500019
O24   O     O_R   0.435110 0.654980 0.544320 -0.535331
O25   O     O_R   0.419350 0.338590 0.449260 -0.533909
O26   O     O_R   0.586210 0.538520 0.349230 -0.525143
O27   O     O_R   0.559330 0.467910 0.657200 -0.491925
Zn1   Zn    Zn3+2 0.396020 0.434560 0.434560 0.952878
Zn2   Zn    Zn3+2 0.611960 0.561120 0.448760 0.995687
Zn3   Zn    Zn3+2 0.595990 0.448060 0.560420 1.021852
Zn4   Zn    Zn3+2 0.396040 0.556260 0.556260 0.950980

loop_
_geom_bond_atom_site_label_1
_geom_bond_atom_site_label_2
_ccdc_geom_bond_type
C36   H2    S    
C8    C9    A    
C66   C68   A    
O4    Zn3   S    
C52   H16   S    
C48   O9    S    
O12   Zn1   S    
C41   C42   A    
H50   O7    S    
C35   C36   A    
C24   C27   S    
C40   H6    S    
C75   C76   A    
C3    C79   S    
C79   O17   D    
C81   C82   A    
C55   O11   S    
H39   O18   S    
C51   H15   S    
C15   C19   A    
C57   O14   S    
C12   C23   A    
C29   C30   A    
C47   H11   S    
C37   H3    S    
C44   H9    S    
C36   C37   A    
C37   C38   A    
C83   H42   S    
C79   O18   S    
C30   C31   A    
C9    N3    S    
C29   H45   S    
C16   O26   A    
C49   C54   A    
C11   H12   S    
C1    C2    S    
C73   C74   A    
C84   H43   S    
C49   C50   A    
O22   Zn2   S    
C60   H22   S    
C33   O6    D    
C72   C77   A    
O3    Zn4   S    
C15   N4    S    
C84   C85   A    
O27   Zn3   S    
C22   O5    A    
C45   C56   A    
C16   C17   S    
C56   C72   S    
C64   O16   S    
C43   H8    S    
C4    O23   A    
C70   C71   A    
C23   C80   S    
C9    C10   A    
O1    Zn2   S    
O24   Zn4   S    
C59   C60   A    
C73   H33   S    
C48   O8    D    
C81   H40   S    
C10   C41   S    
C14   C17   A    
C61   C62   A    
C67   C78   A    
C44   C46   A    
C50   C51   A    
O26   Zn2   S    
C76   C77   A    
C20   O27   A    
H19   O11   S    
C66   H28   S    
C39   C40   A    
C51   C52   A    
C76   H37   S    
C64   C67   S    
C7    C8    A    
N3    N4    D    
C21   O2    A    
C72   C73   A    
C31   H48   S    
C74   C75   A    
C6    C11   A    
C32   H49   S    
C28   H34   S    
C18   C19   A    
C30   H47   S    
C58   C59   A    
C53   C54   A    
C38   H4    S    
C34   N1    S    
H46   O20   S    
C60   C61   A    
C63   H26   S    
C43   C44   A    
H27   O16   S    
C80   C85   A    
C2    C78   A    
C33   O7    S    
C83   C84   A    
C1    O24   A    
C23   C34   A    
C20   O21   A    
C62   C63   A    
C17   C18   A    
C41   C47   A    
C62   H25   S    
C78   H23   S    
C86   O20   S    
C24   C25   D    
C82   H41   S    
C34   C45   A    
C68   H29   S    
O1    Zn1   S    
C5    C86   S    
C74   H35   S    
C46   H10   S    
C65   C66   A    
C10   C11   A    
C13   C15   A    
C45   C65   S    
C75   H36   S    
C25   C58   S    
C22   O3    A    
C61   H24   S    
C39   H5    S    
C14   C35   S    
C77   H38   S    
C52   C53   A    
O1    Zn4   S    
C19   C55   S    
C58   C63   A    
C21   C25   S    
C46   C47   A    
C28   C29   A    
C54   H18   S    
C27   C32   A    
C42   H7    S    
C68   C69   A    
C31   C32   A    
O2    Zn2   S    
C87   N2    S    
C80   C81   A    
C3    C5    A    
C18   C48   S    
C4    C26   S    
C55   O10   D    
C6    C7    A    
C6    C20   S    
C57   O13   D    
C64   O15   D    
C67   C87   A    
C59   H21   S    
C71   H32   S    
C50   H14   S    
H13   O9    S    
C35   C40   A    
C65   C71   A    
C85   H44   S    
C38   C39   A    
C70   H31   S    
C13   H1    S    
C69   H30   S    
C4    O25   A    
C2    C3    A    
C22   C24   S    
C69   C70   A    
N1    N2    D    
C26   C56   A    
C5    C87   A    
O21   Zn4   S    
C1    O22   A    
O25   Zn1   S    
C82   C83   A    
C42   C43   A    
O5    Zn1   S    
C12   C26   A    
C16   O12   A    
O23   Zn3   S    
C53   H17   S    
C12   C33   S    
C13   C14   A    
C86   O19   D    
C8    C49   S    
C7    C57   S    
H20   O14   S    
C21   O4    A    
O1    Zn3   S    
C27   C28   A    
