data_mof_unit_40478.cif
_audit_creation_date              2012-12-10T17:46:58-0500
_audit_creation_method            fapswitch 2.2
_symmetry_space_group_name_H-M    P1
_symmetry_Int_Tables_number       1
_space_group_crystal_system       triclinic
_cell_length_a                    9.947073
_cell_length_b                    10.638638
_cell_length_c                    13.607739
_cell_angle_alpha                 92.010764
_cell_angle_beta                  83.05889
_cell_angle_gamma                 90.445454
_cell_volume                      1428.57267468

loop_
_atom_site_label
_atom_site_type_symbol
_atom_type_description
_atom_site_fract_x
_atom_site_fract_y
_atom_site_fract_z
_atom_type_partial_charge
C1    C     C_R   0.500536 0.739251 0.498653 0.889743
C2    C     C_R   0.532717 0.941088 0.577160 0.077049
C3    C     C_R   0.532118 0.070015 0.575693 -0.235833
C4    C     C_R   0.475764 0.501157 0.685571 0.887447
C5    C     C_R   0.499499 0.128530 0.492337 -0.105538
C6    C     C_R   0.840472 0.655302 0.638384 -0.259148
C7    C     C_R   0.899395 0.722361 0.712647 0.008083
C8    C     C_R   0.039742 0.724345 0.709510 -0.165429
C9    C     C_R   0.119660 0.655255 0.636482 -0.200354
C10   C     C_R   0.062157 0.576773 0.567294 0.171265
C11   C     C_R   0.917891 0.576933 0.567538 0.176658
C12   C     C_1   0.457543 0.507062 0.789527 -0.182837
C13   C     C_R   0.938664 0.426509 0.435384 -0.106272
C14   C     C_R   0.081533 0.426460 0.435471 -0.103027
C15   C     C_R   0.499960 0.260830 0.497136 0.877314
C16   C     C_R   0.524270 0.499567 0.314428 0.859220
C17   C     C_1   0.542673 0.502598 0.210635 -0.186849
C18   C     C_2   0.558874 0.509436 0.018984 -0.157327
C19   C     C_2   0.442391 0.517397 0.981511 -0.169357
C20   C     C_1   0.445903 0.512567 0.877467 0.017516
C21   C     C_1   0.554749 0.505880 0.122864 0.005537
C22   C     C_2   0.812780 0.787326 0.794663 0.380800
C23   C     C_R   0.442157 0.859530 0.321954 -0.216032
C24   C     C_R   0.412566 0.920309 0.237530 0.162165
C25   C     C_R   0.410536 0.051323 0.237728 -0.103525
C26   C     C_R   0.438418 0.121547 0.321407 -0.233066
C27   C     C_R   0.468231 0.061176 0.407106 0.092205
C28   C     C_R   0.469835 0.929479 0.407600 0.037371
C29   C     C_R   0.501708 0.871738 0.493709 -0.080170
H1    H     H_    0.345690 0.523805 0.028115 0.161531
H2    H     H_    0.555700 0.124809 0.640259 0.152851
H3    H     H_    0.893454 0.366244 0.382613 0.149628
H4    H     H_    0.704087 0.771935 0.803443 0.064136
H5    H     H_    0.657975 0.913750 0.679261 0.192457
H6    H     H_    0.491928 0.908662 0.723007 0.188670
H7    H     H_    0.469593 0.792956 0.127537 0.198936
H8    H     H_    0.303325 0.789641 0.170777 0.190386
H9    H     H_    0.734499 0.667491 0.637749 0.210323
H10   H     H_    0.088262 0.778922 0.764099 0.189336
H11   H     H_    0.226119 0.664610 0.637262 0.212324
H12   H     H_    0.143176 0.366066 0.382777 0.148431
H13   H     H_    0.655490 0.502050 0.972353 0.168110
H14   H     H_    0.444279 0.757944 0.319193 0.140263
H15   H     H_    0.388202 0.099082 0.172639 0.152199
H16   H     H_    0.437502 0.222965 0.318013 0.141318
N1    N     N_R   0.857120 0.501200 0.500900 -0.113903
N2    N     N_R   0.142720 0.501280 0.500940 -0.116831
N3    N     N_3   0.563497 0.880280 0.663872 -0.492088
N4    N     N_3   0.385360 0.849345 0.150867 -0.456627
O1    O     O_R   0.385310 0.683220 0.500000 -0.639955
O2    O     O_R   0.614640 0.683250 0.500010 -0.617638
O3    O     O_R   0.368830 0.499960 0.640340 -0.622834
O4    O     O_R   0.598160 0.499980 0.640350 -0.626384
O5    O     O_R   0.385360 0.316750 0.499990 -0.609563
O6    O     O_R   0.614690 0.316780 0.500000 -0.607572
O7    O     O_R   0.401840 0.500020 0.359650 -0.620369
O8    O     O_R   0.631170 0.500040 0.359660 -0.602848
O9    O     O_2   0.861543 0.857192 0.854231 -0.561614
Zn1   Zn    Zn3+2 0.346870 0.499980 0.499990 0.939901
Zn2   Zn    Zn3+2 0.653130 0.500020 0.500010 0.949816

loop_
_geom_bond_atom_site_label_1
_geom_bond_atom_site_label_2
_ccdc_geom_bond_type
C22   O9    D    
C23   C24   A    
C16   O7    A    
C6    C7    A    
C8    H10   S    
C4    O4    A    
C4    C12   S    
C7    C22   S    
H8    N4    S    
C9    C10   A    
C13   H3    S    
C19   C20   S    
O7    Zn1   S    
C16   O8    A    
O6    Zn2   S    
C12   C20   T    
C1    C29   S    
C2    C3    A    
O8    Zn2   S    
C7    C8    A    
C5    C27   A    
C23   C28   A    
C3    H2    S    
C1    O2    A    
C26   C27   A    
C14   N2    A    
N1    Zn2   S    
C4    O3    A    
C2    C29   A    
O1    Zn1   S    
C24   N4    S    
C25   H15   S    
C28   C29   A    
O3    Zn1   S    
O4    Zn2   S    
O5    Zn1   S    
C14   H12   S    
C13   N1    A    
C19   H1    S    
C5    C15   S    
H5    N3    S    
C10   C11   A    
H6    N3    S    
N2    Zn1   S    
C18   C21   S    
C15   O5    A    
C27   C28   A    
C23   H14   S    
C24   C25   A    
C18   C19   D    
C1    O1    A    
C6    C11   A    
C22   H4    S    
C16   C17   S    
C11   N1    A    
O2    Zn2   S    
C26   H16   S    
C2    N3    S    
C25   C26   A    
C13   C14   A    
C10   N2    A    
C6    H9    S    
C9    H11   S    
C17   C21   T    
H7    N4    S    
C18   H13   S    
C8    C9    A    
C3    C5    A    
C15   O6    A    
