data_mof_unit_56958.cif
_audit_creation_date              2012-12-11T16:14:49-0500
_audit_creation_method            fapswitch 2.2
_symmetry_space_group_name_H-M    P1
_symmetry_Int_Tables_number       1
_space_group_crystal_system       triclinic
_cell_length_a                    13.527344
_cell_length_b                    13.454197
_cell_length_c                    28.393688
_cell_angle_alpha                 90.378181
_cell_angle_beta                  90.366501
_cell_angle_gamma                 60.198287
_cell_volume                      4484.09475884

loop_
_atom_site_label
_atom_site_type_symbol
_atom_type_description
_atom_site_fract_x
_atom_site_fract_y
_atom_site_fract_z
_atom_type_partial_charge
C1    C     C_R   0.278263 0.621165 0.566143 0.546771
C2    C     C_1   0.644716 0.640163 0.610098 0.030053
C3    C     C_3   0.704677 0.796023 0.747354 -0.114088
C4    C     C_3   0.709808 0.716160 0.787023 0.015134
C5    C     C_3   0.785333 0.689287 0.717271 -0.118088
C6    C     C_3   0.680325 0.687071 0.697420 0.032514
C7    C     C_3   0.789061 0.611292 0.757547 0.001666
C8    C     C_3   0.685607 0.607173 0.737170 -0.074845
C9    C     C_1   0.726412 0.727347 0.837088 -0.022510
C10   C     C_1   0.661874 0.665254 0.648734 -0.000354
C11   C     C_1   0.593735 0.301783 0.619970 0.060492
C12   C     C_R   0.622195 0.601586 0.566557 0.546539
C13   C     C_R   0.723771 0.249383 0.734266 0.228034
C14   C     C_R   0.738657 0.223653 0.782914 -0.077087
C15   C     C_R   0.552699 0.233135 0.785898 0.242959
C16   C     C_R   0.540386 0.253257 0.736980 -0.063465
C17   C     C_R   0.625323 0.261070 0.711461 -0.051351
C18   C     C_R   0.654930 0.212627 0.808095 -0.054690
C19   C     C_1   0.680090 0.165645 0.855122 0.032515
C20   C     C_1   0.609896 0.281600 0.661360 0.043318
C21   C     C_1   0.699683 0.119498 0.892887 0.060899
C22   C     C_1   0.229925 0.637707 0.611870 0.063448
C23   C     C_R   0.571273 0.331615 0.571394 0.557328
C24   C     C_R   0.147743 0.592356 0.725493 -0.057172
C25   C     C_R   0.136864 0.597803 0.774246 -0.141796
C26   C     C_R   0.175043 0.756965 0.777156 0.200291
C27   C     C_R   0.204683 0.739213 0.728722 0.254839
C28   C     C_R   0.183330 0.661509 0.702591 -0.029076
C29   C     C_R   0.150854 0.678539 0.800063 -0.044379
C30   C     C_1   0.131185 0.684698 0.849826 0.034155
C31   C     C_1   0.203266 0.649163 0.652614 0.044512
C32   C     C_1   0.105415 0.698234 0.890673 0.066742
C33   C     C_1   0.642640 0.641920 0.391405 0.003694
C34   C     C_R   0.275566 0.621573 0.434554 0.552402
C35   C     C_R   0.784713 0.654173 0.288314 -0.093922
C36   C     C_R   0.800037 0.666510 0.240511 -0.099833
C37   C     C_R   0.595197 0.769716 0.229006 -0.043952
C38   C     C_R   0.579823 0.757536 0.276778 -0.079832
C39   C     C_R   0.674546 0.698216 0.306358 0.030449
C40   C     C_R   0.705307 0.722696 0.210681 0.046761
C41   C     C_1   0.721211 0.728572 0.161056 0.001764
C42   C     C_1   0.658460 0.670634 0.353425 -0.039864
C43   C     C_1   0.735864 0.733180 0.119555 0.029409
C44   C     C_1   0.639411 0.214668 0.391172 0.019858
C45   C     C_R   0.620668 0.601308 0.434336 0.546940
C46   C     C_R   0.601314 0.118251 0.280345 -0.007723
C47   C     C_R   0.604371 0.110327 0.230692 0.214544
C48   C     C_R   0.770707 0.138586 0.230877 0.175807
C49   C     C_R   0.765617 0.146800 0.279770 -0.121714
C50   C     C_R   0.680693 0.139197 0.304207 -0.074530
C51   C     C_R   0.687945 0.124095 0.206283 -0.014490
C52   C     C_1   0.693045 0.116002 0.155978 0.106854
C53   C     C_1   0.663466 0.173836 0.352550 -0.030292
C54   C     C_1   0.700372 0.097545 0.114529 0.108787
C55   C     C_1   0.209946 0.644679 0.392586 0.008326
C56   C     C_R   0.600830 0.276067 0.434123 0.561190
C57   C     C_R   0.023517 0.769038 0.294146 -0.111192
C58   C     C_R   0.991611 0.786264 0.246770 -0.118996
C59   C     C_R   0.152548 0.600061 0.227385 -0.092830
C60   C     C_R   0.184980 0.582162 0.274656 0.004409
C61   C     C_R   0.121338 0.668242 0.308046 0.018254
C62   C     C_R   0.057872 0.702785 0.213411 0.007658
C63   C     C_1   0.034157 0.724408 0.164368 -0.048320
C64   C     C_1   0.163842 0.658397 0.355098 -0.041323
C65   C     C_1   0.017343 0.741238 0.122959 0.008533
C66   C     C_R   0.720181 0.056364 0.935553 0.543091
C67   C     C_3   0.599534 0.793427 0.726463 -0.060598
C68   C     C_R   0.762277 0.740323 0.927261 0.551459
C69   C     C_R   0.058343 0.728642 0.936673 0.560640
C70   C     C_R   0.714884 0.055709 0.067750 0.537739
C71   C     C_R   0.757109 0.739638 0.070702 0.532964
C72   C     C_R   0.995969 0.761315 0.073900 0.538573
C73   C     C_3   0.605282 0.713787 0.766905 -0.070680
C74   C     C_1   0.741647 0.733522 0.878406 0.014020
Cr1   Cr    Cr6+3 0.413560 0.417690 0.499580 1.062454
Cr2   Cr    Cr6+3 0.418030 0.668340 0.500400 1.062128
Cr3   Cr    Cr6+3 0.668390 0.413960 0.499990 1.085053
Cr4   Cr    Cr6+3 0.919710 0.916540 0.003080 1.099323
Cr5   Cr    Cr6+3 0.665300 0.919470 0.999630 1.105052
Cr6   Cr    Cr6+3 0.916060 0.665490 0.000390 1.076010
H1    H     H_    0.531978 0.723820 0.787954 0.189328
H2    H     H_    0.113473 0.541497 0.792123 0.180350
H3    H     H_    0.858560 0.607086 0.310773 0.131398
H4    H     H_    0.885546 0.629542 0.226586 0.133628
H5    H     H_    0.521485 0.813127 0.206169 0.159792
H6    H     H_    0.494316 0.790838 0.290291 0.138697
H7    H     H_    0.521265 0.868753 0.712798 0.183352
H8    H     H_    0.825086 0.164004 0.298926 0.175963
H9    H     H_    0.974542 0.835866 0.319578 0.126935
H10   H     H_    0.917690 0.865742 0.236001 0.117946
H11   H     H_    0.203199 0.535738 0.201251 0.152774
H12   H     H_    0.677667 0.529378 0.732914 0.176562
H13   H     H_    0.859244 0.678506 0.696449 0.130923
H14   H     H_    0.712234 0.873906 0.752335 0.142705
O1    O     O_R   0.503010 0.303330 0.550820 -0.500601
O2    O     O_R   0.522480 0.657560 0.452870 -0.491137
O3    O     O_R   0.693670 0.502790 0.448900 -0.500198
O4    O     O_R   0.656970 0.319650 0.452000 -0.491312
O5    O     O_3   0.499990 0.499990 0.499990 -0.287875
O6    O     O_R   0.035380 0.825870 0.952240 -0.454199
O7    O     O_R   0.818010 0.012400 0.954990 -0.493586
O8    O     O_R   0.644810 0.033340 0.949080 -0.479794
O9    O     O_R   0.674910 0.816000 0.950960 -0.464745
O10   O     O_R   0.827060 0.642880 0.947470 -0.473693
O11   O     O_R   0.013800 0.673690 0.954100 -0.512371
O12   O     O_R   0.320040 0.522690 0.547470 -0.517799
O13   O     O_R   0.031250 0.825430 0.055080 -0.457927
O14   O     O_R   0.814180 0.011990 0.050320 -0.501300
O15   O     O_R   0.640680 0.032900 0.051920 -0.477205
O16   O     O_R   0.671090 0.815590 0.046300 -0.455125
O17   O     O_R   0.822940 0.642440 0.050310 -0.477691
O18   O     O_R   0.009970 0.673280 0.049430 -0.493392
O19   O     O_3   0.833690 0.833830 0.001040 -0.354412
O20   O     O_R   0.303930 0.694040 0.551750 -0.478177
O21   O     O_R   0.523510 0.657900 0.548240 -0.502275
O22   O     O_R   0.694770 0.503160 0.551780 -0.481086
O23   O     O_R   0.657990 0.319990 0.547370 -0.464365
O24   O     O_R   0.501900 0.302960 0.447930 -0.487919
O25   O     O_R   0.319020 0.522350 0.452090 -0.488246
O26   O     O_R   0.302820 0.693680 0.448870 -0.499896
C75   C     C_1   0.443802 0.259429 0.711861 0.280669
N1    N     N_1   0.367341 0.263785 0.691526 -0.206519
C76   C     C_1   0.123363 0.513949 0.699731 0.231407
N2    N     N_1   0.103370 0.451475 0.679126 -0.232997
S1    S     S_3+6 0.156952 0.880940 0.808206 0.094689
O27   O     O_2   0.266655 0.852306 0.832732 -0.202586
O28   O     O_2   0.124844 0.979388 0.775222 -0.154578
O29   O     O_3   0.053597 0.923894 0.848845 -0.498566
H15   H     H_    0.984013 0.940897 0.830816 0.319052
S2    S     S_3+6 0.274090 0.806823 0.700867 0.056765
O30   O     O_2   0.186742 0.909111 0.673970 -0.211329
O31   O     O_2   0.332273 0.844436 0.736082 -0.231955
O32   O     O_3   0.374046 0.715266 0.663288 -0.556653
H16   H     H_    0.397143 0.762878 0.645072 0.366404
C77   C     C_1   0.515263 0.110038 0.307396 0.325627
N3    N     N_1   0.446958 0.103701 0.329466 -0.222079
S3    S     S_3+6 0.501555 0.090571 0.198160 0.009873
O33   O     O_2   0.423096 0.200897 0.173488 -0.244963
O34   O     O_2   0.561503 0.998291 0.161804 -0.315208
O35   O     O_3   0.423328 0.053764 0.231964 -0.515495
H17   H     H_    0.370264 0.046522 0.209873 0.380794
S4    S     S_3+6 0.878770 0.151018 0.201040 0.026511
O36   O     O_2   0.824393 0.258646 0.172200 -0.211761
O37   O     O_2   0.961282 0.156351 0.235280 -0.265460
O38   O     O_3   0.949643 0.038411 0.164683 -0.498518
H18   H     H_    0.993115 0.972120 0.185748 0.340460
C78   C     C_1   0.286814 0.477581 0.287742 0.226922
N4    N     N_1   0.368448 0.393997 0.298241 -0.261948
C79   C     C_1   0.893201 0.512130 0.775364 0.232550
N5    N     N_1   0.975327 0.434191 0.789583 -0.197927
S5    S     S_3+6 0.830363 0.257659 0.700191 0.030133
O39   O     O_2   0.889820 0.151088 0.670520 -0.223774
O40   O     O_2   0.774617 0.359870 0.668225 -0.307192
O41   O     O_3   0.927971 0.268735 0.733217 -0.473811
H19   H     H_    0.982069 0.270480 0.710342 0.399597
C80   C     C_1   0.840112 0.206000 0.807609 0.297716
N6    N     N_1   0.920557 0.192129 0.827822 -0.128500
S6    S     S_3+6 0.443886 0.226556 0.818972 0.038710
O42   O     O_2   0.440750 0.267910 0.868553 -0.262348
O43   O     O_2   0.328360 0.299051 0.797102 -0.247694
O44   O     O_3   0.473875 0.089407 0.820198 -0.512287
H20   H     H_    0.414764 0.089531 0.840647 0.394886

loop_
_geom_bond_atom_site_label_1
_geom_bond_atom_site_label_2
_ccdc_geom_bond_type
C58   C62   A    
C15   C18   A    
C63   C65   T    
C21   C66   S    
C33   C45   S    
C66   O8    A    
S2    O31   D    
C35   C36   A    
S4    O38   S    
C68   O9    A    
C56   O4    A    
C2    C12   S    
O29   H15   S    
C17   C20   S    
C72   O18   A    
O44   H20   S    
Cr1   O1    S    
C77   N3    T    
Cr2   O5    S    
S3    O34   D    
C26   C27   A    
C29   C30   S    
C57   H9    S    
C38   H6    S    
C6    C8    S    
C33   C42   T    
C37   H5    S    
C80   N6    T    
C19   C21   T    
C37   C40   A    
Cr3   O23   S    
C5    C6    S    
C68   C74   S    
C15   C16   A    
C71   O16   A    
Cr2   O21   S    
C25   C29   A    
Cr4   O14   S    
C18   C19   S    
S5    O41   S    
C47   S3    S    
C14   C18   A    
S6    O44   S    
C46   C77   S    
C7    C79   S    
C44   C53   T    
C48   C51   A    
C78   N4    T    
C16   C17   A    
C71   O17   A    
S1    O29   S    
Cr2   O20   S    
S5    O39   D    
Cr5   O8    S    
Cr3   O3    S    
C67   C73   S    
C60   C78   S    
Cr3   O22   S    
C1    O12   A    
C12   O21   A    
C1    C22   S    
C13   C14   A    
Cr4   O7    S    
S6    O43   D    
C41   C43   T    
C66   O7    A    
Cr5   O9    S    
Cr1   O24   S    
C4    C7    S    
C73   H1    S    
C52   C54   T    
O38   H18   S    
C39   C42   S    
C34   O26   A    
S3    O35   S    
C11   C20   T    
C50   C53   S    
C75   N1    T    
C22   C31   T    
Cr5   O15   S    
C51   C52   S    
C24   C28   A    
C7    C8    S    
Cr1   O25   S    
O35   H17   S    
C13   S5    S    
C15   S6    S    
C5    C7    S    
C69   O11   A    
C47   C51   A    
Cr6   O11   S    
C24   C76   S    
C60   C61   A    
C26   S1    S    
S6    O42   D    
C61   C64   S    
C35   C39   A    
C16   C75   S    
C23   O23   A    
C37   C38   A    
C70   O15   A    
O32   H16   S    
C44   C56   S    
C54   C70   S    
C72   O13   A    
C36   C40   A    
C55   C64   T    
Cr6   O18   S    
C62   C63   S    
Cr1   O5    S    
C25   H2    S    
O41   H19   S    
C48   S4    S    
Cr3   O4    S    
Cr2   O26   S    
C24   C25   A    
C58   H10   S    
C4    C73   S    
Cr1   O12   S    
C8    H12   S    
C40   C41   S    
Cr6   O10   S    
C76   N2    T    
Cr5   O19   S    
Cr4   O6    S    
S1    O27   D    
S4    O37   D    
S2    O32   S    
C1    O20   A    
C3    C4    S    
C2    C10   T    
C59   H11   S    
C34   O25   A    
C46   C47   A    
C6    C67   S    
C59   C62   A    
C35   H3    S    
Cr5   O16   S    
C14   C80   S    
C56   O24   A    
C28   C31   S    
C3    C67   S    
C68   O10   A    
C3    C5    S    
C6    C10   S    
C5    H13   S    
C57   C61   A    
C32   C69   S    
C65   C72   S    
C49   H8    S    
S3    O33   D    
C46   C50   A    
C67   H7    S    
C13   C17   A    
S2    O30   D    
C70   O14   A    
C79   N5    T    
Cr2   O2    S    
C30   C32   T    
C57   C58   A    
C38   C39   A    
C36   H4    S    
C48   C49   A    
Cr6   O17   S    
C11   C23   S    
C8    C73   S    
C23   O1    A    
Cr3   O5    S    
C3    H14   S    
S5    O40   D    
C43   C71   S    
Cr4   O19   S    
C69   O6    A    
C59   C60   A    
Cr6   O19   S    
C26   C29   A    
C49   C50   A    
C9    C74   T    
C27   C28   A    
S1    O28   D    
C27   S2    S    
S4    O36   D    
Cr4   O13   S    
C34   C55   S    
C45   O3    A    
C4    C9    S    
C45   O2    A    
C12   O22   A    
