data_mof_unit_27311.cif
_audit_creation_date              2012-12-10T18:22:23-0500
_audit_creation_method            fapswitch 2.2
_symmetry_space_group_name_H-M    P1
_symmetry_Int_Tables_number       1
_space_group_crystal_system       triclinic
_cell_length_a                    14.912652
_cell_length_b                    14.085684
_cell_length_c                    15.753333
_cell_angle_alpha                 89.919518
_cell_angle_beta                  89.474206
_cell_angle_gamma                 90.102583
_cell_volume                      3308.91686646

loop_
_atom_site_label
_atom_site_type_symbol
_atom_type_description
_atom_site_fract_x
_atom_site_fract_y
_atom_site_fract_z
_atom_type_partial_charge
C1    C     C_R   0.327105 0.499904 0.500642 1.009357
C2    C     C_R   0.904637 0.535264 0.569078 0.127777
C3    C     C_R   0.952945 0.514552 0.493495 -0.025300
C4    C     C_R   0.499971 0.500122 0.338412 0.959848
C5    C     C_R   0.907516 0.494946 0.416479 0.011734
C6    C     C_R   0.949729 0.561857 0.643528 0.090268
C7    C     C_R   0.043107 0.561742 0.643616 -0.214279
C8    C     C_R   0.091739 0.532942 0.571672 0.014235
C9    C     C_R   0.046694 0.512656 0.495241 -0.056608
C10   C     C_R   0.095294 0.490607 0.420542 -0.007849
C11   C     C_R   0.050645 0.484499 0.343052 -0.264714
C12   C     C_3   0.588994 0.481727 0.951219 -0.521000
C13   C     C_R   0.957452 0.487349 0.340045 0.096723
C14   C     C_R   0.184835 0.524992 0.574828 0.351573
C15   C     C_R   0.231641 0.499728 0.500568 -0.314039
C16   C     C_R   0.672884 0.500215 0.497975 0.948592
C17   C     C_R   0.188218 0.478799 0.424525 0.365665
C18   C     C_R   0.550480 0.797725 0.440781 -0.161656
C19   C     C_R   0.553952 0.202705 0.443373 -0.159831
C20   C     C_R   0.452383 0.798819 0.560754 0.543251
C21   C     C_R   0.446289 0.199853 0.555053 0.544861
C22   C     C_R   0.459717 0.899359 0.566093 -0.064893
C23   C     C_3   0.586557 0.476127 0.049014 -0.488813
C24   C     C_R   0.457800 0.100393 0.564125 -0.071894
C25   C     C_R   0.508233 0.949422 0.503101 0.026171
C26   C     C_R   0.508720 0.050493 0.503303 0.006682
C27   C     C_R   0.554917 0.898641 0.439740 -0.053445
C28   C     C_R   0.556763 0.101747 0.441157 -0.025082
C29   C     C_R   0.419271 0.950950 0.632599 -0.198872
C30   C     C_R   0.416251 0.049886 0.630498 -0.205731
C31   C     C_R   0.605979 0.051126 0.378949 0.117179
C32   C     C_R   0.604840 0.950250 0.377760 0.068138
C33   C     C_R   0.501095 0.499941 0.661652 0.887144
C34   C     C_1   0.498226 0.500882 0.825607 -0.053181
C35   C     C_3   0.471128 0.609834 0.049876 0.193032
C36   C     C_3   0.420204 0.429079 0.050663 0.192093
C37   C     C_3   0.431131 0.421715 0.951237 -0.085373
C38   C     C_3   0.468002 0.605440 0.949603 -0.059035
C39   C     C_1   0.500586 0.499953 0.750408 -0.183536
C40   C     C_3   0.491754 0.505070 0.083246 0.236141
C41   C     C_3   0.493569 0.503100 0.917098 0.198227
C42   C     C_3   0.262392 0.475004 0.693668 0.117324
C43   C     C_3   0.189630 0.430229 0.749730 -0.921048
C44   C     C_3   0.224957 0.355901 0.334403 0.089398
C45   C     C_1   0.495177 0.502608 0.174792 -0.087510
C46   C     C_3   0.313158 0.311407 0.305993 -0.817131
C47   C     C_3   0.308516 0.764416 0.605956 0.120719
C48   C     C_3   0.257993 0.759479 0.690533 -0.771885
C49   C     C_3   0.295216 0.216236 0.551420 0.088481
C50   C     C_3   0.211749 0.248743 0.599102 -0.870857
C51   C     C_3   0.763678 0.363589 0.335974 0.122570
C52   C     C_3   0.713561 0.340492 0.254862 -0.832499
C53   C     C_1   0.497751 0.500850 0.249856 -0.178288
C54   C     C_R   0.813744 0.484363 0.419086 0.398766
C55   C     C_R   0.768187 0.501920 0.495391 -0.184266
C56   C     C_R   0.811961 0.529077 0.568592 -0.325377
H1    H     H_    0.077440 0.582885 0.700793 0.190160
H2    H     H_    0.605423 0.403684 0.069797 0.193314
H3    H     H_    0.637145 0.537924 0.930677 0.190429
H4    H     H_    0.614952 0.413517 0.925168 0.195359
H5    H     H_    0.772731 0.544035 0.625332 0.176404
H6    H     H_    0.327529 0.614756 0.940113 0.190255
H7    H     H_    0.383540 0.635279 0.847985 0.200263
H8    H     H_    0.307512 0.471613 0.906402 0.189356
H9    H     H_    0.309801 0.355196 0.931181 0.197002
H10   H     H_    0.315237 0.501830 0.736421 0.173201
H11   H     H_    0.295248 0.420763 0.653176 0.184345
H12   H     H_    0.087639 0.478797 0.283880 0.170207
H13   H     H_    0.133466 0.403258 0.710885 0.259759
H14   H     H_    0.218152 0.369447 0.785210 0.238966
H15   H     H_    0.163830 0.483134 0.796023 0.249601
H16   H     H_    0.177390 0.349600 0.280948 0.146009
H17   H     H_    0.197538 0.313360 0.388575 0.118067
H18   H     H_    0.361190 0.310388 0.359195 0.272592
H19   H     H_    0.301402 0.237227 0.285038 0.194745
H20   H     H_    0.342729 0.352302 0.252405 0.271669
H21   H     H_    0.937688 0.543228 0.223495 0.183057
H22   H     H_    0.935034 0.423365 0.227348 0.164311
H23   H     H_    0.586964 0.756294 0.394289 0.164168
H24   H     H_    0.281923 0.708687 0.563668 0.202079
H25   H     H_    0.292351 0.833675 0.575427 0.090474
H26   H     H_    0.281258 0.698096 0.728587 0.287931
H27   H     H_    0.268970 0.824956 0.727994 0.209351
H28   H     H_    0.184953 0.752021 0.679006 0.215467
H29   H     H_    0.289300 0.137756 0.545343 0.129413
H30   H     H_    0.294467 0.246725 0.486540 0.153273
H31   H     H_    0.198080 0.324140 0.584950 0.241810
H32   H     H_    0.152767 0.207219 0.577693 0.209068
H33   H     H_    0.219850 0.237945 0.668428 0.271136
H34   H     H_    0.592337 0.243967 0.398024 0.182765
H35   H     H_    0.723518 0.081736 0.319849 0.194612
H36   H     H_    0.632625 0.083215 0.256053 0.200263
H37   H     H_    0.610387 0.860466 0.277380 0.184093
H38   H     H_    0.701824 0.857908 0.341195 0.188582
H39   H     H_    0.376606 0.715609 0.065418 0.217436
H40   H     H_    0.389776 0.648616 0.151601 0.188162
H41   H     H_    0.301820 0.510805 0.041261 0.195195
H42   H     H_    0.324033 0.470980 0.140067 0.214133
H43   H     H_    0.385717 0.288963 0.073641 0.191604
H44   H     H_    0.496319 0.304308 0.065778 0.162127
H45   H     H_    0.387880 0.915251 0.685716 0.178730
H46   H     H_    0.553647 0.673559 0.140425 0.189239
H47   H     H_    0.602279 0.666717 0.043073 0.174740
H48   H     H_    0.729325 0.327921 0.390193 0.146564
H49   H     H_    0.832678 0.334102 0.330158 0.132637
H50   H     H_    0.743776 0.379665 0.200420 0.258080
H51   H     H_    0.717639 0.263322 0.241648 0.212179
H52   H     H_    0.642029 0.360873 0.261580 0.259823
H53   H     H_    0.871307 0.654154 0.707567 0.183156
H54   H     H_    0.943864 0.597073 0.770160 0.175695
H55   H     H_    0.380407 0.086942 0.680533 0.178338
H56   H     H_    0.467913 0.354769 0.936793 0.153573
H57   H     H_    0.521592 0.653277 0.924390 0.160167
H58   H     H_    0.640204 0.521606 0.075822 0.191690
N1    N     N_R   0.500070 0.750030 0.500040 -0.141308
N2    N     N_3   0.437789 0.335415 0.089451 -0.460350
N3    N     N_3   0.541704 0.677927 0.075264 -0.478557
N4    N     N_3   0.900563 0.588002 0.718953 -0.470489
N5    N     N_R   0.500070 0.249970 0.500040 -0.153501
N6    N     N_3   0.385032 0.644686 0.913700 -0.468208
N7    N     N_3   0.346879 0.411011 0.904500 -0.474134
N8    N     N_3   0.914748 0.485080 0.258905 -0.401088
N9    N     N_3   0.656369 0.102346 0.315892 -0.489698
N10   N     N_3   0.654677 0.902119 0.312514 -0.479426
N11   N     N_3   0.385954 0.645466 0.085430 -0.480376
N12   N     N_3   0.327584 0.454275 0.075519 -0.469062
O1    O     O_R   0.367860 0.580280 0.500020 -0.612088
O2    O     O_3   0.238773 0.453213 0.353592 -0.617000
O3    O     O_3   0.401358 0.748645 0.619593 -0.593715
O4    O     O_3   0.374426 0.244644 0.594305 -0.600017
O5    O     O_3   0.765081 0.463128 0.347066 -0.601768
O6    O     O_R   0.367860 0.419720 0.500020 -0.605217
O7    O     O_R   0.500020 0.580310 0.377140 -0.629560
O8    O     O_R   0.500020 0.419690 0.377140 -0.632683
O9    O     O_R   0.632160 0.580270 0.499980 -0.620757
O10   O     O_R   0.632160 0.419730 0.499980 -0.635268
O11   O     O_R   0.500010 0.580240 0.622850 -0.566686
O12   O     O_R   0.500010 0.419760 0.622850 -0.594893
O13   O     O_3   0.229871 0.553604 0.647256 -0.644542
Zn1   Zn    Zn3+2 0.500020 0.607200 0.499990 0.990851
Zn2   Zn    Zn3+2 0.500020 0.392800 0.499990 0.970762

loop_
_geom_bond_atom_site_label_1
_geom_bond_atom_site_label_2
_ccdc_geom_bond_type
C23   H2    S    
C55   C56   A    
C13   N8    S    
C22   C29   A    
C4    C53   S    
C32   N10   S    
H44   N2    S    
H37   N10   S    
C20   O3    S    
C1    O6    A    
H54   N4    S    
C46   H20   S    
C7    C8    A    
C2    C6    A    
C54   O5    S    
C12   C23   S    
C29   C30   A    
C47   O3    S    
C36   C37   S    
C24   C26   A    
C19   N5    A    
C10   C17   A    
C23   C40   S    
C35   N11   S    
C37   H56   S    
H21   N8    S    
C12   H3    S    
C47   C48   S    
C52   H51   S    
C33   O11   A    
C18   H23   S    
C22   C25   A    
C43   H15   S    
C44   H16   S    
C1    C15   S    
H9    N7    S    
C9    C10   A    
H6    N6    S    
C50   H32   S    
C38   N6    S    
C42   O13   S    
C52   H50   S    
C43   H13   S    
H35   N9    S    
H47   N3    S    
C34   C41   S    
C47   H24   S    
C46   H19   S    
C44   C46   S    
H53   N4    S    
O9    Zn1   S    
O11   Zn1   S    
C51   C52   S    
C49   H29   S    
C5    C54   A    
C36   C40   S    
C35   C38   S    
C38   C41   S    
H36   N9    S    
H43   N2    S    
C38   H57   S    
C51   O5    S    
C8    C9    A    
C25   C26   A    
C34   C39   T    
O10   Zn2   S    
C3    C9    A    
H39   N11   S    
C50   H33   S    
C31   C32   A    
C33   O12   A    
C51   H49   S    
C29   H45   S    
C33   C39   S    
N1    Zn1   S    
C19   C28   A    
H46   N3    S    
C50   H31   S    
C37   N7    S    
C20   C22   A    
C43   H14   S    
C42   H11   S    
N5    Zn2   S    
C35   N3    S    
C42   C43   S    
C16   O10   A    
C46   H18   S    
C11   H12   S    
C12   C41   S    
C4    O8    A    
O6    Zn2   S    
C15   C17   A    
H38   N10   S    
C54   C55   A    
C44   O2    S    
C8    C14   A    
C27   C32   A    
C56   H5    S    
C5    C13   A    
C49   H30   S    
C28   C31   A    
C36   N12   S    
C18   C27   A    
C1    O1    A    
H41   N12   S    
C3    C5    A    
O12   Zn2   S    
C18   N1    A    
C20   N1    A    
C17   O2    S    
C6    C7    A    
C25   C27   A    
C49   O4    S    
C26   C28   A    
C48   H27   S    
C30   H55   S    
C40   C45   S    
C2    C3    A    
C51   H48   S    
C16   C55   S    
C31   N9    S    
C21   N5    A    
C19   H34   S    
C2    C56   A    
C23   H58   S    
H7    N6    S    
C11   C13   A    
C48   H26   S    
H40   N11   S    
C35   C40   S    
C47   H25   S    
C37   C41   S    
C44   H17   S    
H22   N8    S    
C24   C30   A    
C21   O4    S    
C10   C11   A    
C45   C53   T    
C12   H4    S    
C48   H28   S    
H42   N12   S    
C14   O13   S    
C52   H52   S    
O7    Zn1   S    
C49   C50   S    
O1    Zn1   S    
C21   C24   A    
C42   H10   S    
C14   C15   A    
C16   O9    A    
C7    H1    S    
H8    N7    S    
C6    N4    S    
C4    O7    A    
O8    Zn2   S    
C36   N2    S    
