data_mof_unit_47070.cif
_audit_creation_date              2012-12-11T14:59:10-0500
_audit_creation_method            fapswitch 2.2
_symmetry_space_group_name_H-M    P1
_symmetry_Int_Tables_number       1
_space_group_crystal_system       triclinic
_cell_length_a                    8.40447
_cell_length_b                    15.044589
_cell_length_c                    18.697256
_cell_angle_alpha                 99.448236
_cell_angle_beta                  91.998328
_cell_angle_gamma                 98.86101
_cell_volume                      2299.81761361

loop_
_atom_site_label
_atom_site_type_symbol
_atom_type_description
_atom_site_fract_x
_atom_site_fract_y
_atom_site_fract_z
_atom_type_partial_charge
Ba1   Ba    Ba6+2 0.854120 0.540280 0.465540 1.686998
Ba2   Ba    Ba6+2 0.335710 0.459790 0.534460 1.703085
C1    C     C_3   0.646321 0.867398 0.307203 -0.351679
C2    C     C_3   0.633779 0.770138 0.321797 0.294640
C3    C     C_3   0.479243 0.235581 0.292016 1.101153
C4    C     C_3   0.531148 0.158945 0.234325 -0.311033
C5    C     C_3   0.053040 0.288122 0.734049 0.354135
C6    C     C_3   0.052731 0.269268 0.812858 0.692058
C7    C     C_3   0.531636 0.223872 0.683311 0.409476
C8    C     C_3   0.514698 0.126313 0.700709 0.280038
C9    C     C_R   0.995433 0.458390 0.048805 0.012126
C10   C     C_R   0.905114 0.408181 0.095517 -0.100421
C11   C     C_R   0.768598 0.433997 0.955273 -0.105160
C12   C     C_3   0.103032 0.771695 0.272164 0.751992
C13   C     C_R   0.931942 0.465876 0.978679 0.034571
C14   C     C_R   0.712317 0.433239 0.884403 -0.031171
C15   C     C_R   0.815190 0.464556 0.833415 0.016925
C16   C     C_R   0.975455 0.505902 0.857117 0.044155
C17   C     C_R   0.033598 0.507633 0.930352 0.083530
C18   C     C_R   0.762248 0.455479 0.759558 0.050971
C19   C     C_R   0.870887 0.486997 0.710156 -0.302616
C20   C     C_R   0.027204 0.533526 0.732952 0.054108
C21   C     C_R   0.078260 0.544823 0.807750 0.001541
C22   C     C_R   0.157135 0.498051 0.071921 0.021022
C23   C     C_3   0.015067 0.810666 0.213385 -0.311872
C24   C     C_R   0.218053 0.495065 0.143821 0.011921
C25   C     C_R   0.116521 0.453652 0.192476 -0.045314
C26   C     C_R   0.965275 0.405229 0.165166 -0.064628
C27   C     C_R   0.227563 0.595798 0.835384 0.025084
C28   C     C_R   0.285513 0.596747 0.906166 -0.079489
C29   C     C_R   0.194601 0.548304 0.953724 0.020401
C30   C     C_R   0.258252 0.540968 0.023917 0.006476
C31   C     C_R   0.422510 0.571282 0.046640 -0.116956
C32   C     C_R   0.379773 0.534359 0.167021 -0.052527
C33   C     C_R   0.481619 0.567796 0.116330 -0.120765
C34   C     C_3   0.211571 0.762497 0.633256 0.619028
C35   C     C_R   0.433906 0.541232 0.240514 -0.028273
C36   C     C_R   0.326343 0.506952 0.289500 -0.230105
C37   C     C_R   0.169160 0.461380 0.266607 0.032794
C38   C     C_R   0.759148 0.236384 0.534851 -0.246752
C39   C     C_R   0.854419 0.177926 0.559465 -0.048116
C40   C     C_R   0.794514 0.083290 0.553026 -0.128393
C41   C     C_R   0.641212 0.045195 0.513733 0.017693
C42   C     C_R   0.552654 0.108392 0.488451 -0.091161
C43   C     C_R   0.607997 0.202591 0.500255 0.038567
C44   C     C_R   0.408656 0.910963 0.467310 -0.137871
C45   C     C_3   0.111820 0.844779 0.646506 0.204687
C46   C     C_R   0.346607 0.817107 0.450588 0.033139
C47   C     C_R   0.591546 0.782990 0.501874 0.132199
C48   C     C_R   0.664058 0.873822 0.504735 -0.152122
C49   C     C_R   0.571956 0.942729 0.494848 -0.015048
C50   C     C_R   0.436466 0.753867 0.470442 -0.228284
C51   C     C_3   0.958198 0.260402 0.386074 0.362106
C52   C     C_3   0.967692 0.158342 0.375423 0.277137
C53   C     C_3   0.706381 0.724123 0.713330 0.181144
C54   C     C_3   0.655500 0.791784 0.778443 -0.175263
H1    H     H_    0.715290 0.771588 0.370115 0.070351
H2    H     H_    0.119943 0.875949 0.596954 0.073066
H3    H     H_    0.981425 0.824253 0.647818 0.062542
H4    H     H_    0.836002 0.272112 0.400466 -0.009071
H5    H     H_    0.045842 0.294129 0.431689 0.021098
H6    H     H_    0.968392 0.136433 0.429040 -0.016033
H7    H     H_    0.086072 0.146947 0.353531 0.053561
H8    H     H_    0.770514 0.904028 0.322900 0.119354
H9    H     H_    0.703363 0.862875 0.771894 0.155138
H10   H     H_    0.521954 0.785755 0.775110 0.053935
H11   H     H_    0.506932 0.745785 0.332457 0.021337
H12   H     H_    0.562080 0.904369 0.339982 0.122274
H13   H     H_    0.481809 0.090227 0.246026 0.094210
H14   H     H_    0.495652 0.159405 0.176886 0.011963
H15   H     H_    0.664350 0.167022 0.237500 0.121984
H16   H     H_    0.616179 0.867938 0.249039 0.125555
H17   H     H_    0.084045 0.877238 0.205671 0.088386
H18   H     H_    0.138211 0.351624 0.731756 0.067263
H19   H     H_    0.930592 0.299429 0.716858 -0.074598
H20   H     H_    0.099825 0.203645 0.812358 0.015297
H21   H     H_    0.652600 0.242222 0.663219 -0.233733
H22   H     H_    0.438838 0.224369 0.639792 0.085606
H23   H     H_    0.491855 0.081140 0.647095 -0.024691
H24   H     H_    0.053616 0.697836 0.268478 0.012263
H25   H     H_    0.830593 0.478634 0.653512 0.051420
H26   H     H_    0.586938 0.406792 0.870098 0.081590
H27   H     H_    0.891555 0.363722 0.197134 0.084704
H28   H     H_    0.301575 0.636324 0.802931 0.130267
H29   H     H_    0.607958 0.593858 0.130232 0.110163
H30   H     H_    0.367249 0.513660 0.345922 0.083041
H31   H     H_    0.680068 0.409309 0.990749 0.048420
H32   H     H_    0.787785 0.368385 0.079230 0.046261
H33   H     H_    0.401887 0.637642 0.922493 0.059034
H34   H     H_    0.509985 0.597284 0.011263 0.080105
H35   H     H_    0.325426 0.956612 0.459299 0.078266
H36   H     H_    0.791049 0.887706 0.517257 0.123539
H37   H     H_    0.444032 0.085826 0.453950 0.076597
H38   H     H_    0.381549 0.683098 0.466161 0.068213
H39   H     H_    0.806813 0.308218 0.539030 0.049680
H40   H     H_    0.999506 0.762579 0.160869 0.054666
H41   H     H_    0.894450 0.822967 0.228876 0.126953
H42   H     H_    0.155289 0.719079 0.582240 0.010577
O1    O     O_2   0.871030 0.438240 0.324420 -0.433885
O2    O     O_3   0.684543 0.765188 0.651230 -0.649247
O3    O     O_3   0.070841 0.820213 0.339578 -0.608341
O4    O     O_2   0.318670 0.561790 0.675630 -0.451089
O5    O     O_3   0.069120 0.554770 0.586270 -0.510312
O6    O     O_3   0.526680 0.394150 0.629950 -0.496123
O7    O     O_3   0.202743 0.710241 0.690230 -0.635896
O8    O     O_3   0.607620 0.388570 0.462320 -0.460804
O9    O     O_3   0.103380 0.345110 0.593380 -0.493617
O10   O     O_2   0.189734 0.183675 0.553062 -0.516189
O11   O     O_3   0.100984 0.215006 0.686931 -0.609816
O12   O     O_3   0.120590 0.445310 0.413740 -0.490736
O13   O     O_3   0.582100 0.611510 0.537680 -0.500605
O14   O     O_2   0.334040 0.276520 0.462890 -0.468202
O15   O     O_3   0.517856 0.205583 0.356974 -0.648631
O16   O     O_2   0.420197 0.445923 0.758822 -0.437836
O17   O     O_3   0.509740 0.287334 0.744306 -0.622489
O18   O     O_3   0.663040 0.605930 0.370050 -0.479977
O19   O     O_2   0.782817 0.557686 0.244119 -0.500454
O20   O     O_3   0.993063 0.292648 0.321156 -0.634544
O21   O     O_3   0.680969 0.713189 0.261840 -0.622381
O22   O     O_2   0.855660 0.723510 0.537160 -0.505059
O23   O     O_3   0.086340 0.654970 0.406630 -0.489682
O24   O     O_2   0.035099 0.816326 0.472531 -0.514161
P1    P     P_3+3 0.038110 0.412300 0.335300 1.026229
P2    P     P_3+3 0.679950 0.711710 0.558590 0.996476
P3    P     P_3+3 0.138284 0.774702 0.413877 0.959331
P4    P     P_3+3 0.151600 0.587780 0.664700 1.006157
P5    P     P_3+3 0.062055 0.229081 0.597014 0.930112
P6    P     P_3+3 0.639930 0.600617 0.277072 0.935873
P7    P     P_3+3 0.514606 0.272746 0.443746 1.035338
P8    P     P_3+3 0.555142 0.397755 0.723480 0.996074
O25   O     O_3   0.170866 0.917381 0.704329 -0.642144
C55   C     C_3   0.116564 0.900027 0.771538 0.289635
H43   H     H_    0.983251 0.888774 0.770674 0.095664
H44   H     H_    0.158504 0.961477 0.813024 0.046685
H45   H     H_    0.170456 0.843592 0.788800 0.087997
O26   O     O_3   0.830734 0.106937 0.333437 -0.642052
C56   C     C_3   0.876222 0.059969 0.267661 0.152791
H46   H     H_    0.920794 0.108464 0.231623 0.030759
H47   H     H_    0.768027 0.015709 0.238580 0.057057
H48   H     H_    0.966982 0.015830 0.277052 0.034722
C57   C     C_2   0.873803 0.709750 0.721106 0.385287
H49   H     H_    0.921888 0.683977 0.671198 -0.073128
O27   O     O_2   0.945900 0.714753 0.779817 -0.631098
C58   C     C_2   0.615509 0.631589 0.709339 0.461511
H50   H     H_    0.605356 0.582310 0.659720 0.040866
O28   O     O_2   0.570921 0.606491 0.765084 -0.634830
C59   C     C_2   0.704917 0.779916 0.854294 0.529005
H51   H     H_    0.658709 0.718433 0.874992 0.047899
O29   O     O_2   0.795993 0.840614 0.893853 -0.582873
O30   O     O_3   0.311336 0.243074 0.288701 -0.671578
C60   C     C_3   0.227546 0.203905 0.220805 0.055079
H52   H     H_    0.205661 0.128246 0.214487 0.032760
H53   H     H_    0.287777 0.226087 0.173560 -0.000069
H54   H     H_    0.110143 0.227396 0.217660 0.105861
O31   O     O_3   0.575397 0.321224 0.290438 -0.649656
C61   C     C_3   0.557538 0.348087 0.221976 0.130922
H55   H     H_    0.433648 0.360016 0.210194 0.018708
H56   H     H_    0.598404 0.301237 0.176900 -0.026949
H57   H     H_    0.637260 0.412386 0.222605 0.116295
O32   O     O_3   0.146530 0.345020 0.858832 -0.666429
C62   C     C_3   0.270666 0.318224 0.898728 0.118745
H58   H     H_    0.331345 0.377996 0.938143 0.075393
H59   H     H_    0.361639 0.295480 0.861923 0.079078
H60   H     H_    0.224064 0.264013 0.930009 -0.018274
O33   O     O_3   0.891911 0.260271 0.834371 -0.680536
C63   C     C_3   0.878668 0.220811 0.897794 0.157808
H61   H     H_    0.948718 0.266383 0.944863 0.062905
H62   H     H_    0.915581 0.152124 0.889478 0.046140
H63   H     H_    0.750613 0.211958 0.911468 0.047621
C64   C     C_2   0.672016 0.105296 0.730926 0.480414
H64   H     H_    0.784743 0.146886 0.723283 0.033603
O34   O     O_2   0.676024 0.037293 0.758201 -0.595140
O35   O     O_3   0.375744 0.104947 0.740247 -0.584649
C65   C     C_3   0.408732 0.117339 0.816292 0.288885
H65   H     H_    0.502767 0.177258 0.837092 0.011434
H66   H     H_    0.443921 0.054644 0.831760 0.065089
H67   H     H_    0.296775 0.127092 0.843735 -0.001285
O36   O     O_3   0.271796 0.784628 0.264192 -0.689301
C66   C     C_3   0.307724 0.746514 0.193407 0.035012
H68   H     H_    0.303861 0.796769 0.156279 0.069840
H69   H     H_    0.225411 0.682124 0.170895 0.031075
H70   H     H_    0.431691 0.731425 0.194622 0.117461
C67   C     C_2   0.896886 0.029969 0.589150 0.472359
H71   H     H_    0.022274 0.031690 0.576796 0.049405
O37   O     O_2   0.844378 0.985863 0.634765 -0.581578
O38   O     O_3   0.376401 0.788528 0.619865 -0.701031
C68   C     C_3   0.444652 0.879089 0.651488 0.221709
H72   H     H_    0.439059 0.890784 0.711341 0.117737
H73   H     H_    0.391510 0.929232 0.625005 0.059375
H74   H     H_    0.572778 0.893168 0.640964 0.146068

loop_
_geom_bond_atom_site_label_1
_geom_bond_atom_site_label_2
_ccdc_geom_bond_type
O8    P7    S    
C53   C54   S    
C43   P7    S    
O33   C63   S    
C53   C57   S    
C4    H13   S    
C32   C35   A    
C39   C40   A    
Ba2   O9    S    
C59   H51   S    
C67   H71   S    
C17   C29   A    
Ba1   O1    S    
Ba1   P1    S    
O36   C66   S    
C5    C6    S    
O35   C65   S    
C13   C17   A    
C56   H47   S    
Ba2   O14   S    
C24   C25   A    
C35   C36   A    
O15   P7    S    
O7    P4    S    
C10   C26   A    
C21   C27   A    
C61   H55   S    
C59   O29   D    
C22   C24   A    
C16   C17   A    
C67   O37   D    
C3    C4    S    
O12   P1    S    
C20   P4    S    
C64   H64   S    
Ba2   O4    S    
C54   H9    S    
C9    C22   A    
C6    H20   S    
C15   C18   A    
C37   P1    S    
C34   C45   S    
C32   C33   A    
C60   H54   S    
O5    P4    S    
C39   P5    S    
C65   H65   S    
C68   H74   S    
C42   H37   S    
C46   P3    S    
C51   H5    S    
O11   P5    S    
C1    H12   S    
C25   C37   A    
C14   C15   A    
C53   O2    S    
O3    P3    S    
C60   H52   S    
C2    O21   S    
C50   H38   S    
Ba1   O18   S    
C12   H24   S    
O14   P7    D    
C36   H30   S    
C7    C8    S    
Ba1   O5    S    
C34   O38   S    
Ba1   O8    S    
O20   P1    S    
C66   H70   S    
O21   P6    S    
C8    O35   S    
C34   O7    S    
C12   C23   S    
O6    P8    S    
C19   C20   A    
C26   H27   S    
C63   H62   S    
O16   P8    D    
C38   C43   A    
C9    C13   A    
C28   H33   S    
C62   H59   S    
C51   H4    S    
C24   C32   A    
C48   C49   A    
C5    H18   S    
C65   H66   S    
C4    H15   S    
C56   H48   S    
C44   C46   A    
Ba2   O13   S    
C10   H32   S    
C16   C21   A    
C7    O17   S    
C27   H28   S    
C58   O28   D    
C51   O20   S    
C55   H43   S    
C12   O3    S    
C5    H19   S    
C44   H35   S    
C52   H6    S    
C3    O31   S    
C47   P2    S    
C44   C49   A    
Ba2   O8    S    
C3    O30   S    
C5    O11   S    
C45   O25   S    
O2    P2    S    
Ba1   O22   S    
C2    H1    S    
C41   C42   A    
C22   C30   A    
O23   P3    S    
C27   C28   A    
Ba1   O12   S    
C52   H7    S    
C29   C30   A    
Ba2   O6    S    
C28   C29   A    
C8    H23   S    
C47   C50   A    
C52   O26   S    
C11   H31   S    
C14   H26   S    
C15   C16   A    
C7    H21   S    
C65   H67   S    
C12   O36   S    
C63   H63   S    
Ba2   P4    S    
C48   H36   S    
C38   C39   A    
C19   H25   S    
C11   C13   A    
C63   H61   S    
C40   C41   A    
C38   H39   S    
C1    C2    S    
C6    O32   S    
O31   C61   S    
C62   H60   S    
C42   C43   A    
O1    P1    D    
C23   H41   S    
C4    H14   S    
Ba2   O12   S    
C53   C58   S    
C3    O15   S    
O13   P2    S    
C20   C21   A    
C61   H57   S    
C18   P8    S    
O26   C56   S    
O4    P4    D    
C2    H11   S    
C9    C10   A    
C51   C52   S    
C40   C67   S    
C8    C64   S    
C56   H46   S    
C58   H50   S    
O32   C62   S    
C35   P6    S    
O24   P3    D    
C57   O27   D    
C1    H16   S    
Ba1   P2    S    
O9    P5    S    
C68   H72   S    
C62   H58   S    
C31   H34   S    
C30   C31   A    
C45   H2    S    
C33   H29   S    
C41   C49   S    
C36   C37   A    
C64   O34   D    
Ba2   O5    S    
C54   C59   S    
C55   H45   S    
C54   H10   S    
Ba1   Ba2   S    
C61   H56   S    
C31   C33   A    
C23   H17   S    
C7    H22   S    
C60   H53   S    
O10   P5    D    
C1    H8    S    
O19   P6    D    
Ba1   O23   S    
C68   H73   S    
C6    O33   S    
C45   H3    S    
C66   H68   S    
O22   P2    D    
C46   C50   A    
C18   C19   A    
C23   H40   S    
C55   H44   S    
C47   C48   A    
O18   P6    S    
C11   C14   A    
C25   C26   A    
O30   C60   S    
C34   H42   S    
O38   C68   S    
C57   H49   S    
Ba1   O13   S    
O25   C55   S    
C66   H69   S    
O17   P8    S    
