data_mof_unit_9618.cif
_audit_creation_date              2012-12-10T17:35:36-0500
_audit_creation_method            fapswitch 2.2
_symmetry_space_group_name_H-M    P1
_symmetry_Int_Tables_number       1
_space_group_crystal_system       triclinic
_cell_length_a                    10.717464
_cell_length_b                    12.327179
_cell_length_c                    13.198068
_cell_angle_alpha                 116.684246
_cell_angle_beta                  77.395489
_cell_angle_gamma                 101.38661
_cell_volume                      1510.50150492

loop_
_atom_site_label
_atom_site_type_symbol
_atom_type_description
_atom_site_fract_x
_atom_site_fract_y
_atom_site_fract_z
_atom_type_partial_charge
C1    C     C_R   0.511695 0.854877 0.286587 0.785474
C2    C     C_3   0.121746 0.000153 0.500986 -0.071749
C3    C     C_3   0.075262 0.123357 0.593343 0.453237
C4    C     C_3   0.039983 0.894277 0.527676 -0.338718
C5    C     C_R   0.323999 0.276775 0.020400 -0.183235
C6    C     C_R   0.453668 0.228052 0.834481 -0.044170
C7    C     C_R   0.599920 0.814879 0.085733 -0.149991
C8    C     C_R   0.626604 0.735764 0.970986 -0.136894
C9    C     C_R   0.579936 0.612661 0.933046 -0.178192
C10   C     C_R   0.500580 0.566545 0.009375 0.086791
C11   C     C_R   0.461328 0.650490 0.123474 0.078617
C12   C     C_R   0.739792 0.999553 0.499897 0.885993
C13   C     C_R   0.457730 0.440129 0.975947 0.079002
C14   C     C_R   0.367188 0.401262 0.052566 0.164382
C15   C     C_R   0.318375 0.487165 0.159300 -0.225803
C16   C     C_R   0.363230 0.610044 0.193707 -0.195443
C17   C     C_R   0.502913 0.350737 0.868737 -0.246194
C18   C     C_R   0.366371 0.190489 0.911395 -0.136778
C19   C     C_R   0.520306 0.773070 0.163557 -0.096322
C20   C     C_R   0.706465 0.347254 0.329001 -0.299148
C21   C     C_R   0.325038 0.759212 0.645886 0.618052
C22   C     C_R   0.288076 0.660936 0.676477 -0.342991
C23   C     C_R   0.480876 0.145101 0.713391 0.857979
C24   C     C_R   0.353897 0.558273 0.621239 -0.245326
C25   C     C_R   0.458640 0.551084 0.533948 -0.003528
C26   C     C_R   0.493724 0.652992 0.504945 0.199743
C27   C     C_R   0.529956 0.446931 0.474756 -0.017207
C28   C     C_R   0.634667 0.447075 0.388171 0.166927
C29   C     C_R   0.667461 0.546848 0.361154 -0.272193
C30   C     C_R   0.598796 0.647291 0.418189 -0.167415
C31   C     C_R   0.502522 0.341819 0.497412 0.011870
C32   C     C_R   0.674719 0.247228 0.355552 0.065781
C33   C     C_R   0.260054 0.000200 0.500274 0.859944
C34   C     C_3   0.955832 0.981904 0.381558 0.384603
C35   C     C_3   0.099883 0.981980 0.381792 -0.550149
C36   C     C_3   0.930421 0.123635 0.593145 0.127813
C37   C     C_3   0.897208 0.894004 0.527830 -0.338373
C38   C     C_3   0.877664 0.999545 0.500868 -0.033976
Cu1   Cu    Cu3+1 0.529690 0.098270 0.475420 0.949438
Cu2   Cu    Cu3+1 0.470310 0.901730 0.524580 0.987182
H1    H     H_    0.944951 0.057647 0.361212 0.082351
H2    H     H_    0.053582 0.904055 0.612755 0.239945
H3    H     H_    0.326942 0.095622 0.885781 0.180929
H4    H     H_    0.245105 0.459293 0.216656 0.142498
H5    H     H_    0.254634 0.246645 0.078411 0.135086
H6    H     H_    0.575701 0.373889 0.808900 0.146465
H7    H     H_    0.644476 0.908553 0.114072 0.156885
H8    H     H_    0.605454 0.556887 0.842927 0.129841
H9    H     H_    0.687294 0.769308 0.911518 0.146148
H10   H     H_    0.317192 0.672800 0.274970 0.165811
H11   H     H_    0.729762 0.169895 0.310170 0.126716
H12   H     H_    0.747665 0.547602 0.295083 0.170088
H13   H     H_    0.786734 0.346674 0.262660 0.144788
H14   H     H_    0.424611 0.333546 0.561506 0.129074
H15   H     H_    0.320668 0.486155 0.648966 0.159468
H16   H     H_    0.208010 0.663860 0.743543 0.150929
H17   H     H_    0.632336 0.718789 0.391305 0.221625
H18   H     H_    0.133811 0.894336 0.314607 0.228988
H19   H     H_    0.156959 0.056573 0.360125 0.147107
H20   H     H_    0.920848 0.198331 0.570361 0.033945
H21   H     H_    0.131375 0.199770 0.573984 0.034559
H22   H     H_    0.842426 0.903842 0.612953 0.215544
H23   H     H_    0.860459 0.804197 0.462819 0.200174
H24   H     H_    0.071310 0.804721 0.462232 0.171874
N1    N     N_R   0.574690 0.246280 0.438200 -0.184390
N2    N     N_R   0.426100 0.754320 0.561190 -0.221474
O1    O     O_R   0.537340 0.972510 0.318130 -0.582995
O2    O     O_R   0.487200 0.806530 0.359650 -0.611952
O3    O     O_R   0.707380 0.082980 0.479220 -0.608083
O4    O     O_R   0.657240 0.917000 0.520740 -0.604901
O5    O     O_R   0.512800 0.193470 0.640350 -0.594671
O6    O     O_R   0.462660 0.027490 0.681870 -0.532104
O7    O     O_R   0.342760 0.083000 0.479260 -0.604325
O8    O     O_R   0.292620 0.917020 0.520780 -0.545165
O9    O     O_3   0.858740 0.144312 0.701824 -0.681211
H25   H     H_    0.874316 0.233182 0.751033 0.347426
F1    F     F_    0.097188 0.143073 0.700512 -0.639474
F2    F     F_    0.910145 0.873134 0.296578 -0.669597
O10   O     O_3   0.260761 0.861737 0.700625 -0.708561
H26   H     H_    0.190295 0.851151 0.759296 0.291610

loop_
_geom_bond_atom_site_label_1
_geom_bond_atom_site_label_2
_ccdc_geom_bond_type
C2    C35   S    
C12   O3    A    
C21   N2    A    
C37   H22   S    
C7    C8    A    
C24   H15   S    
C11   C19   A    
C29   C30   A    
Cu2   O4    S    
C35   H18   S    
C28   C29   A    
C16   H10   S    
C15   H4    S    
C15   C16   A    
C30   H17   S    
C1    O2    A    
C35   H19   S    
C34   C35   S    
C8    C9    A    
C9    C10   A    
Cu2   N2    S    
C13   C14   A    
Cu1   N1    S    
C34   H1    S    
C37   H23   S    
C3    H21   S    
C6    C18   A    
C1    C19   S    
C27   C31   A    
C26   N2    A    
C23   O5    A    
C17   H6    S    
Cu1   Cu2   S    
C22   H16   S    
C5    C18   A    
C20   C28   A    
C25   C26   A    
C5    H5    S    
C7    H7    S    
C2    C4    S    
O9    H25   S    
C32   H11   S    
C37   C38   S    
C36   O9    S    
C11   C16   A    
C21   O10   S    
Cu1   O3    S    
C24   C25   A    
C5    C14   A    
C2    C33   S    
C33   O7    A    
C26   C30   A    
C7    C19   A    
C22   C24   A    
C3    F1    S    
C20   C32   A    
C31   N1    A    
C6    C17   A    
C12   O4    A    
Cu2   O6    S    
C34   C38   S    
Cu1   O1    S    
C23   O6    A    
C20   H13   S    
C36   H20   S    
C10   C13   A    
C25   C27   A    
C4    H24   S    
C13   C17   A    
C36   C38   S    
C2    C3    S    
C18   H3    S    
C34   F2    S    
C4    H2    S    
C3    C36   S    
C6    C23   S    
C1    O1    A    
Cu2   O8    S    
Cu1   O7    S    
C31   H14   S    
C12   C38   S    
C10   C11   A    
O10   H26   S    
C33   O8    A    
C4    C37   S    
C9    H8    S    
Cu2   O2    S    
C27   C28   A    
Cu1   O5    S    
C14   C15   A    
C21   C22   A    
C8    H9    S    
C32   N1    A    
C29   H12   S    
