data_mof_unit_46952.cif
_audit_creation_date              2013-03-05T16:19:20-0500
_audit_creation_method            fapswitch 2.2
_symmetry_space_group_name_H-M    P1
_symmetry_Int_Tables_number       1
_space_group_crystal_system       triclinic
_cell_length_a                    11.281049
_cell_length_b                    10.048145
_cell_length_c                    23.493861
_cell_angle_alpha                 88.637415
_cell_angle_beta                  91.732527
_cell_angle_gamma                 89.65245
_cell_volume                      2661.08263425

loop_
_atom_site_label
_atom_site_type_symbol
_atom_site_description
_atom_site_fract_x
_atom_site_fract_y
_atom_site_fract_z
_atom_type_partial_charge
O1    O     O_R   0.314910 0.616040 0.499990 -0.580425
O2    O     O_R   0.314910 0.383960 0.499990 -0.589119
C1    C     C_R   0.258773 0.500210 0.498596 0.994383
O3    O     O_R   0.500080 0.616070 0.416130 -0.601810
O4    O     O_R   0.500080 0.383930 0.416130 -0.613690
C2    C     C_R   0.501388 0.501171 0.389080 0.950712
Zn1   Zn    Zn3+2 0.500150 0.654960 0.499970 1.042506
Zn2   Zn    Zn3+2 0.500150 0.345040 0.499970 1.034850
O5    O     O_R   0.685320 0.616040 0.499970 -0.593179
O6    O     O_R   0.685320 0.383960 0.499970 -0.538901
O7    O     O_R   0.500150 0.616010 0.583820 -0.596790
O8    O     O_R   0.500150 0.383990 0.583820 -0.559261
C3    C     C_R   0.742898 0.499313 0.500493 0.897176
C4    C     C_R   0.501806 0.498907 0.610760 0.875029
C5    C     C_R   0.519328 0.642873 0.881268 0.571733
N1    N     N_R   0.483816 0.529557 0.854652 -0.352065
C6    C     C_R   0.462966 0.414320 0.884845 0.584381
C7    C     C_R   0.470645 0.412108 0.944664 -0.123379
C8    C     C_R   0.522208 0.523182 0.971724 -0.068277
C9    C     C_R   0.551157 0.638830 0.939611 -0.124440
C10   C     C_R   0.434828 0.300566 0.978043 0.335458
C11   C     C_R   0.457133 0.298587 0.036815 -0.164190
C12   C     C_R   0.511287 0.406418 0.063542 -0.075899
C13   C     C_R   0.544762 0.518567 0.031064 -0.006259
C14   C     C_R   0.599539 0.626639 0.058098 -0.091277
C15   C     C_R   0.632044 0.738649 0.025814 -0.171073
C16   C     C_R   0.609716 0.745806 0.966978 0.334718
C17   C     C_R   0.526950 0.407635 0.122786 0.606200
N2    N     N_R   0.578743 0.514489 0.148487 -0.321638
C18   C     C_R   0.618608 0.620909 0.117338 0.641860
O9    O     O_2   0.523113 0.758456 0.851005 -0.448513
O10   O     O_2   0.440908 0.301057 0.856834 -0.456324
H1    H     H_    0.428022 0.213557 0.061824 0.226524
O11   O     O_2   0.487183 0.304674 0.154716 -0.508834
O12   O     O_2   0.673267 0.722216 0.143936 -0.497639
H2    H     H_    0.676868 0.820853 0.046097 0.228338
C19   C     C_R   0.632208 0.427422 0.244514 0.352912
C20   C     C_R   0.600318 0.412751 0.301680 -0.087120
C21   C     C_R   0.519647 0.503380 0.326003 -0.264191
C22   C     C_R   0.462566 0.599365 0.289444 0.256625
C23   C     C_R   0.489649 0.608350 0.231514 0.003771
C24   C     C_R   0.573720 0.522882 0.209256 0.115816
C25   C     C_R   0.387581 0.476116 0.762402 -0.055047
H3    H     H_    0.308582 0.445583 0.784213 0.190344
C26   C     C_R   0.393798 0.459595 0.703635 0.021845
C27   C     C_R   0.497134 0.498847 0.674374 -0.166467
C28   C     C_R   0.593817 0.548072 0.707052 0.324711
C29   C     C_R   0.585408 0.563178 0.765492 -0.109403
H4    H     H_    0.662681 0.594096 0.790212 0.206225
C30   C     C_R   0.483222 0.527536 0.793506 0.150127
C31   C     C_3   0.077531 0.617289 0.537450 0.125277
C32   C     C_3   0.077733 0.358745 0.523381 0.111523
C33   C     C_3   0.935651 0.626405 0.532886 0.112322
C34   C     C_3   0.937347 0.366931 0.531559 0.147652
C35   C     C_3   0.066675 0.524575 0.431488 0.392306
C36   C     C_3   0.122330 0.500043 0.496769 -0.180713
C37   C     C_3   0.882002 0.499115 0.499112 -0.033781
C38   C     C_3   0.921761 0.507574 0.433289 -0.012750
C39   C     C_3   0.379021 0.082424 0.483341 -0.141121
C40   C     C_3   0.381798 0.922159 0.477136 -0.159751
H5    H     H_    0.317454 0.101103 0.517563 0.141594
H6    H     H_    0.310276 0.880063 0.502476 0.190780
H7    H     H_    0.540469 0.108165 0.412427 0.118034
H8    H     H_    0.553593 0.895918 0.412760 0.138496
C41   C     C_3   0.578391 0.081819 0.454805 -0.030823
C42   C     C_3   0.583404 0.923441 0.456403 -0.017990
C43   C     C_3   0.535661 0.078401 0.557475 0.297646
C44   C     C_3   0.515402 0.916289 0.559285 0.309754
N3    N     N_3   0.499750 0.138610 0.498760 -0.104942
N4    N     N_3   0.499750 0.861390 0.498760 -0.088042
N5    N     N_R   0.367333 0.193531 0.954186 0.260102
O13   O     O_R   0.269245 0.219715 0.925395 -0.298641
O14   O     O_R   0.389386 0.071378 0.971094 -0.307316
N6    N     N_3   0.296070 0.396206 0.675893 -0.418214
H9    H     H_    0.307219 0.404856 0.632564 0.180442
H10   H     H_    0.219248 0.449866 0.684462 0.209511
N7    N     N_R   0.708566 0.558002 0.684435 0.185918
O15   O     O_R   0.759493 0.447183 0.671462 -0.381467
O16   O     O_R   0.775024 0.658127 0.698549 -0.336739
N8    N     N_3   0.132369 0.748363 0.525153 -0.451662
H11   H     H_    0.112150 0.816292 0.556561 0.161401
H12   H     H_    0.111228 0.795047 0.486496 0.203896
N9    N     N_3   0.113776 0.248264 0.487047 -0.428597
H13   H     H_    0.101499 0.155324 0.506966 0.146722
H14   H     H_    0.075848 0.244897 0.446903 0.196699
N10   N     N_3   0.118183 0.583479 0.596480 -0.437878
H15   H     H_    0.093509 0.656846 0.624696 0.207110
H16   H     H_    0.210672 0.587224 0.598642 0.185415
N11   N     N_3   0.136558 0.326861 0.579144 -0.460736
H17   H     H_    0.094502 0.246158 0.598672 0.175068
H18   H     H_    0.219652 0.284894 0.573331 0.211621
N12   N     N_3   0.890607 0.628885 0.591025 -0.377498
H19   H     H_    0.801409 0.605397 0.591511 0.288556
H20   H     H_    0.902743 0.721524 0.609686 0.258617
N13   N     N_3   0.907085 0.371991 0.592593 -0.349115
H21   H     H_    0.899002 0.277833 0.611980 0.257767
H22   H     H_    0.968721 0.420131 0.618492 0.255317
N14   N     N_3   0.895410 0.752122 0.504971 -0.383832
H23   H     H_    0.933382 0.772457 0.466464 0.230036
H24   H     H_    0.914877 0.834150 0.530106 0.215100
N15   N     N_3   0.882638 0.244208 0.512110 -0.371308
H25   H     H_    0.902551 0.217716 0.471616 0.165261
H26   H     H_    0.915791 0.163911 0.536965 0.201934
N16   N     N_R   0.108495 0.655738 0.410107 0.196595
O17   O     O_R   0.042174 0.746598 0.384704 -0.405875
O18   O     O_R   0.221298 0.666234 0.402778 -0.312769
N17   N     N_R   0.114902 0.432665 0.389196 0.187368
O19   O     O_R   0.070087 0.439477 0.337413 -0.308034
O20   O     O_R   0.223319 0.389125 0.394520 -0.367944
N18   N     N_3   0.858403 0.619201 0.403499 -0.413820
H27   H     H_    0.767817 0.598401 0.400844 0.155527
H28   H     H_    0.880628 0.622303 0.360559 0.271140
N19   N     N_3   0.878487 0.387431 0.403500 -0.470621
H29   H     H_    0.852053 0.410751 0.361400 0.231170
H30   H     H_    0.940118 0.313853 0.396815 0.204813
N20   N     N_3   0.321893 0.155439 0.434694 -0.318586
H31   H     H_    0.240389 0.112195 0.424499 0.190982
H32   H     H_    0.368938 0.159008 0.397370 0.213490
N21   N     N_3   0.347828 0.881385 0.419314 -0.303141
H33   H     H_    0.256209 0.894999 0.413819 0.240913
H34   H     H_    0.382194 0.944990 0.388436 0.203696
N22   N     N_R   0.660134 0.118269 0.572503 0.244785
O21   O     O_R   0.750469 0.037499 0.573455 -0.398587
O22   O     O_R   0.678522 0.232850 0.595452 -0.297525
N23   N     N_R   0.613988 0.851782 0.591587 0.269121
O23   O     O_R   0.699041 0.796041 0.565904 -0.340554
O24   O     O_R   0.629115 0.872126 0.645913 -0.342340
N24   N     N_3   0.465301 0.138840 0.602494 -0.390184
H35   H     H_    0.489296 0.097597 0.642518 0.233613
H36   H     H_    0.373697 0.140606 0.597876 0.133128
N25   N     N_3   0.408685 0.878088 0.592176 -0.454900
H37   H     H_    0.423889 0.877979 0.636247 0.225141
H38   H     H_    0.334798 0.939344 0.585388 0.109644
N26   N     N_3   0.693277 0.144992 0.454174 -0.373741
H39   H     H_    0.728187 0.136607 0.413687 0.158859
H40   H     H_    0.750446 0.088267 0.479609 0.245279
N27   N     N_3   0.702175 0.866359 0.458842 -0.336921
H41   H     H_    0.696189 0.778846 0.436516 0.232648
H42   H     H_    0.756385 0.917341 0.430581 0.148046
N28   N     N_R   0.655747 0.857513 0.935669 0.260502
O25   O     O_R   0.730898 0.837509 0.895746 -0.290388
O26   O     O_R   0.644052 0.976999 0.955018 -0.301524
N29   N     N_R   0.720051 0.341369 0.221061 0.241800
O27   O     O_R   0.794152 0.388742 0.184458 -0.329032
O28   O     O_R   0.723540 0.214706 0.234017 -0.297073
N30   N     N_3   0.645365 0.299405 0.332989 -0.392946
H43   H     H_    0.675737 0.329455 0.372698 0.210560
H44   H     H_    0.574808 0.233933 0.337701 0.225702
N31   N     N_R   0.361085 0.670309 0.307042 0.246197
O29   O     O_R   0.258495 0.615455 0.297503 -0.243174
O30   O     O_R   0.365966 0.799357 0.307515 -0.401028
N32   N     N_3   0.424982 0.697809 0.193202 -0.400106
H45   H     H_    0.438681 0.795351 0.206235 0.265472
H46   H     H_    0.334598 0.676163 0.194426 0.254631

loop_
_geom_bond_atom_site_label_1
_geom_bond_atom_site_label_2
_geom_bond_distance
_ccdc_geom_bond_type
C35   C36   1.652002 S    
H7    C41   1.097592 S    
N15   H25   1.025015 S    
N2    C24   1.435000 S    
C44   N25   1.497175 S    
C7    C10   1.420297 A    
C23   C24   1.397116 A    
C34   N15   1.459211 S    
C8    C9    1.415634 A    
N24   H35   1.045901 S    
Zn1   N4    2.073734 S    
N16   O18   1.293875 A    
C4    C27   1.497033 S    
C23   N32   1.436750 S    
C42   N4    1.517899 S    
N7    O15   1.296868 A    
Zn1   O7    1.999310 S    
N27   H42   1.043742 S    
C15   C16   1.397629 A    
N2    C18   1.367394 A    
N6    H10   1.045152 S    
C18   O12   1.349627 S    
C10   N5    1.436453 S    
C17   N2    1.369625 A    
N28   O26   1.301222 A    
C31   C36   1.622454 S    
N31   O30   1.298489 A    
O4    C2    1.325541 A    
O7    C4    1.322538 A    
N10   H16   1.044019 S    
C3    C37   1.570550 S    
N29   O27   1.301435 A    
N20   H31   1.043087 S    
C40   N21   1.468682 S    
C40   H6    1.097972 S    
C7    C8    1.416849 A    
C19   C24   1.401086 A    
O5    C3    1.336900 A    
C31   N8    1.484378 S    
C20   N30   1.423717 S    
N18   H27   1.044620 S    
N13   H21   1.045923 S    
N1    C6    1.368801 A    
C38   N19   1.487343 S    
C12   C13   1.405842 A    
N11   H18   1.039644 S    
C41   N26   1.446922 S    
C29   C30   1.389232 A    
C17   O11   1.350338 S    
C39   C40   1.620593 S    
N15   H26   1.045257 S    
O1    Zn1   2.128321 S    
C10   C11   1.395674 A    
N17   O20   1.297916 A    
C32   N11   1.477914 S    
O3    Zn1   2.017186 S    
C31   N10   1.478608 S    
N16   O17   1.299330 A    
C32   C34   1.602932 S    
N30   H44   1.042510 S    
N21   H34   1.040667 S    
C5    C9    1.405985 A    
C39   H5    1.096991 S    
N6    H9    1.031162 S    
N30   H43   1.036452 S    
C43   C44   1.645987 S    
C28   C29   1.390955 A    
N28   O25   1.301482 A    
N8    H12   1.032962 S    
C21   C22   1.414983 A    
N5    O14   1.301290 A    
C33   C37   1.631088 S    
N10   H15   1.045127 S    
C39   N20   1.472992 S    
N26   H40   1.026612 S    
C14   C15   1.399179 A    
C26   C27   1.424173 A    
C35   N16   1.484013 S    
C35   N17   1.485381 S    
C26   N6    1.425050 S    
O1    C1    1.328994 A    
H8    C42   1.111163 S    
C32   N9    1.478843 S    
C25   H3    1.083688 S    
C19   C20   1.405471 A    
C1    C36   1.538533 S    
N9    H13   1.046431 S    
C40   N4    1.528404 S    
Zn2   O8    2.017567 S    
C2    C21   1.502007 S    
C33   N12   1.472407 S    
N12   H20   1.046308 S    
C6    C7    1.405067 A    
Zn2   N3    2.075141 S    
N7    O16   1.301612 A    
C12   C17   1.398077 A    
C13   C14   1.407720 A    
C25   C26   1.398317 A    
C34   N13   1.485967 S    
C39   N3    1.514623 S    
O3    C2    1.331259 A    
C29   H4    1.083951 S    
N9    H14   1.025195 S    
O8    C4    1.329885 A    
C41   C42   1.591578 S    
N14   H24   1.045837 S    
N23   O23   1.281788 A    
C28   N7    1.417256 S    
N17   O19   1.303378 A    
N22   O22   1.298048 A    
N25   H37   1.044348 S    
C43   N22   1.496811 S    
N19   H29   1.045191 S    
C15   H2    1.083637 S    
C14   C18   1.401629 A    
N29   O28   1.301647 A    
C11   H1    1.083624 S    
C27   C28   1.413380 A    
C22   C23   1.404801 A    
C19   N29   1.441714 S    
C38   N18   1.476980 S    
Zn2   O6    2.127535 S    
O2    Zn2   2.123662 S    
N32   H46   1.044954 S    
N8    H11   1.046266 S    
N25   H38   1.039278 S    
O6    C3    1.332240 A    
N24   H36   1.035805 S    
O4    Zn2   1.998954 S    
N21   H33   1.045475 S    
N13   H22   1.039319 S    
C25   C30   1.393594 A    
C5    O9    1.348836 S    
N26   H39   1.045480 S    
C9    C16   1.421627 A    
C33   N14   1.472264 S    
N27   H41   1.036070 S    
C16   N28   1.435787 S    
O2    C1    1.324590 A    
N22   O21   1.298232 A    
N5    O13   1.301510 A    
N31   O29   1.300522 A    
C37   C38   1.623571 S    
C20   C21   1.424843 A    
C42   N27   1.453260 S    
C32   C36   1.626419 S    
C41   N3    1.502118 S    
N12   H19   1.035280 S    
N20   H32   1.038613 S    
C22   N31   1.422114 S    
C8    C13   1.409182 A    
N1    C30   1.436982 S    
N18   H28   1.046636 S    
C43   N3    1.535105 S    
Zn1   O5    2.122872 S    
N32   H45   1.044770 S    
C44   N4    1.542979 S    
N14   H23   1.029271 S    
C35   C38   1.646418 S    
N23   O24   1.303670 A    
C6    O10   1.348838 S    
C11   C12   1.399534 A    
C31   C33   1.602825 S    
N11   H17   1.045598 S    
C43   N24   1.480862 S    
C44   N23   1.466213 S    
C5    N1    1.368295 A    
N19   H30   1.029821 S    
C34   C37   1.627285 S    
