data_mof_unit_35673.cif
_audit_creation_date              2013-03-05T15:43:33-0500
_audit_creation_method            fapswitch 2.2
_symmetry_space_group_name_H-M    P1
_symmetry_Int_Tables_number       1
_space_group_crystal_system       triclinic
_cell_length_a                    10.067938
_cell_length_b                    10.643455
_cell_length_c                    12.989574
_cell_angle_alpha                 91.014351
_cell_angle_beta                  71.188298
_cell_angle_gamma                 93.894916
_cell_volume                      1314.52370081

loop_
_atom_site_label
_atom_site_type_symbol
_atom_site_description
_atom_site_fract_x
_atom_site_fract_y
_atom_site_fract_z
_atom_type_partial_charge
O1    O     O_R   0.386950 0.680940 0.500020 -0.562380
O2    O     O_R   0.613110 0.680900 0.499980 -0.582349
C1    C     C_R   0.504420 0.737565 0.501468 0.994422
O3    O     O_R   0.330780 0.500000 0.653640 -0.606842
O4    O     O_R   0.556930 0.499960 0.653610 -0.616269
C2    C     C_R   0.423500 0.474111 0.700547 0.862318
Zn1   Zn    Zn3+2 0.349000 0.500030 0.500020 1.055190
Zn2   Zn    Zn3+2 0.651000 0.499970 0.499980 1.005271
O5    O     O_R   0.386890 0.319100 0.500020 -0.618949
O6    O     O_R   0.613050 0.319060 0.499980 -0.577721
O7    O     O_R   0.443070 0.500040 0.346390 -0.545861
O8    O     O_R   0.669220 0.500000 0.346360 -0.626341
C3    C     C_R   0.498051 0.261858 0.491742 0.914966
C4    C     C_R   0.578193 0.509109 0.295438 0.932252
C5    C     C_R   0.804842 0.535064 0.996771 0.006167
C6    C     C_R   0.626862 0.524163 0.176167 -0.168573
C7    C     C_R   0.249240 0.367804 0.871318 -0.061082
C8    C     C_R   0.209526 0.364886 0.987031 -0.007108
C9    C     C_R   0.307761 0.411338 0.037326 -0.199465
C10   C     C_R   0.448758 0.444447 0.974709 0.103697
C11   C     C_R   0.486587 0.422597 0.863771 0.062797
C12   C     C_R   0.556137 0.485731 0.018135 -0.037269
C13   C     C_R   0.700365 0.486646 0.951841 0.049790
C14   C     C_R   0.733459 0.429864 0.847465 0.188017
C15   C     C_R   0.623898 0.387059 0.808643 -0.077822
C16   C     C_R   0.524480 0.528092 0.124974 0.242431
C17   C     C_R   0.770417 0.539301 0.111246 -0.096662
C18   C     C_R   0.382254 0.424707 0.813603 -0.194974
H1    H     H_    0.276686 0.409485 0.124999 0.188916
C19   C     C_2   0.604397 0.069088 0.409722 0.267456
C20   C     C_2   0.488968 0.129632 0.465348 -0.309096
C21   C     C_2   0.596075 0.931963 0.407424 0.316856
C22   C     C_2   0.521334 0.870521 0.499067 -0.368312
H2    H     H_    0.474185 0.919182 0.575148 0.129632
C23   C     C_2   0.094089 0.426863 0.438845 0.329205
N1    N     N_2   0.148270 0.498670 0.498870 -0.183423
H3    H     H_    0.091227 0.571447 0.539087 0.184370
C24   C     C_2   0.949978 0.438792 0.430248 -0.138796
N2    N     N_2   0.852610 0.498640 0.498840 -0.209304
H4    H     H_    0.925128 0.389655 0.364554 0.195928
H5    H     H_    0.873501 0.537458 0.565390 0.192925
C25   C     C_2   0.882510 0.567915 0.161015 0.459358
H6    H     H_    0.903281 0.499739 0.213758 0.074583
O9    O     O_2   0.952916 0.667955 0.142801 -0.491265
C26   C     C_2   0.342453 0.069883 0.489683 0.469783
H7    H     H_    0.258413 0.100959 0.559533 0.103625
O10   O     O_2   0.313583 0.991046 0.429302 -0.473168
Br1   Br    Br    0.685441 0.847407 0.273000 -0.297447
Br2   Br    Br    0.200956 0.299198 0.351144 -0.423980
Br3   Br    Br    0.921157 0.391818 0.761512 -0.545418
C27   C     C_2   0.944590 0.588564 0.927512 0.597949
H8    H     H_    0.038659 0.573718 0.947925 0.074650
O11   O     O_2   0.954575 0.654638 0.849106 -0.515897
Br4   Br    Br    0.368281 0.634293 0.184737 -0.368098
C28   C     C_2   0.179524 0.283135 0.809386 0.570270
H9    H     H_    0.200240 0.298139 0.723238 0.075577
O12   O     O_2   0.107709 0.188822 0.850821 -0.458551
C29   C     C_2   0.068982 0.316758 0.058971 0.470880
H10   H     H_    0.054089 0.295113 0.143477 0.101736
O13   O     O_2   0.967335 0.305449 0.027088 -0.520386
C30   C     C_2   0.647382 0.289729 0.721490 0.538235
H11   H     H_    0.748529 0.284222 0.658978 0.121358
O14   O     O_2   0.552862 0.212081 0.720171 -0.597602
Br5   Br    Br    0.785523 0.152807 0.336223 -0.400202

loop_
_geom_bond_atom_site_label_1
_geom_bond_atom_site_label_2
_geom_bond_distance
_ccdc_geom_bond_type
C7    C8    1.425629 A    
C23   Br2   1.911818 S    
O4    Zn2   1.913230 S    
Zn1   O7    1.913230 S    
C13   C14   1.421779 A    
Zn2   N2    2.026081 S    
C5    C27   1.485312 S    
Zn1   N1    2.024872 S    
C7    C28   1.484751 S    
C5    C17   1.414443 A    
C23   N1    1.298528 D    
C19   C20   1.353362 D    
Zn2   O8    1.944081 S    
C21   C22   1.339394 D    
C28   H9    1.082826 S    
C5    C13   1.422758 A    
C22   H2    1.087634 S    
N2    H5    1.027150 S    
C15   C30   1.493252 S    
C26   H7    1.086659 S    
C10   C11   1.386344 A    
C19   C21   1.456523 S    
C21   Br1   1.926021 S    
C17   C25   1.483624 S    
C11   C15   1.410680 A    
O4    C2    1.295980 A    
C25   O9    1.220820 D    
C6    C17   1.418856 A    
O3    Zn1   1.944081 S    
C16   Br4   1.943324 S    
O3    C2    1.313893 A    
N1    H3    1.027304 S    
C24   H4    1.080923 S    
C11   C18   1.404889 A    
C10   C12   1.414201 A    
O2    C1    1.279525 A    
C19   Br5   1.928069 S    
C28   O12   1.220510 D    
C6    C16   1.398334 A    
C30   H11   1.083024 S    
O7    C4    1.304541 A    
C4    C6    1.474633 S    
C25   H6    1.081785 S    
C1    C22   1.413475 S    
C29   O13   1.219898 D    
C27   H8    1.084433 S    
C9    H1    1.079531 S    
Zn1   O5    1.988398 S    
C2    C18   1.486592 S    
C23   C24   1.504566 S    
C24   N2    1.289201 D    
C14   C15   1.400323 A    
Zn2   O6    1.937425 S    
C8    C9    1.410061 A    
C20   C26   1.503076 S    
C26   O10   1.222425 D    
C14   Br3   1.925851 S    
O5    C3    1.283733 A    
C12   C13   1.429030 A    
C12   C16   1.393899 A    
O1    C1    1.295929 A    
C29   H10   1.085630 S    
O1    Zn1   1.937425 S    
C7    C18   1.407351 A    
C3    C20   1.446436 S    
C30   O14   1.221507 D    
O2    Zn2   1.988396 S    
C9    C10   1.413662 A    
O8    C4    1.300809 A    
C8    C29   1.484439 S    
C27   O11   1.221334 D    
O6    C3    1.305549 A    
