data_mof_unit_46391.cif
_audit_creation_date              2012-12-10T17:31:12-0500
_audit_creation_method            fapswitch 2.2
_symmetry_space_group_name_H-M    P1
_symmetry_Int_Tables_number       1
_space_group_crystal_system       triclinic
_cell_length_a                    11.997386
_cell_length_b                    12.893875
_cell_length_c                    15.43175
_cell_angle_alpha                 87.177632
_cell_angle_beta                  115.712017
_cell_angle_gamma                 93.421088
_cell_volume                      2146.25974239

loop_
_atom_site_label
_atom_site_type_symbol
_atom_type_description
_atom_site_fract_x
_atom_site_fract_y
_atom_site_fract_z
_atom_type_partial_charge
Br1   Br    Br    0.953212 0.430563 0.023792 -0.514557
Br2   Br    Br    0.096794 0.690936 0.999653 -0.503104
C1    C     C_R   0.477154 0.299456 0.498231 0.894033
C2    C     C_R   0.643394 0.970858 0.488853 -0.206326
C3    C     C_R   0.363484 0.136646 0.507129 -0.190860
C4    C     C_R   0.636415 0.863333 0.492702 -0.189638
C5    C     C_R   0.555891 0.132853 0.490277 -0.268708
C6    C     C_R   0.444032 0.867131 0.509591 -0.269289
C7    C     C_R   0.550102 0.026087 0.494590 0.184119
C8    C     C_R   0.449794 0.973892 0.505236 0.184514
C9    C     C_R   0.999091 0.592472 0.404265 -0.327980
C10   C     C_R   0.000632 0.407096 0.595279 -0.316762
C11   C     C_R   0.120819 0.584548 0.414598 0.032886
C12   C     C_R   0.522828 0.700542 0.501736 0.891201
C13   C     C_R   0.879053 0.415215 0.585169 0.030870
C14   C     C_R   0.163129 0.460975 0.542552 -0.048837
C15   C     C_R   0.836711 0.538840 0.457235 -0.052895
C16   C     C_R   0.576862 0.496633 0.680625 0.900569
C17   C     C_R   0.423814 0.506827 0.319364 0.901186
C18   C     C_R   0.041410 0.466485 0.534894 0.088651
C19   C     C_R   0.958358 0.533224 0.464757 0.087432
C20   C     C_R   0.627277 0.504420 0.784845 -0.122185
C21   C     C_R   0.381267 0.529630 0.216674 -0.118767
C22   C     C_R   0.790516 0.479678 0.945423 0.300329
C23   C     C_R   0.663461 0.527447 0.119494 -0.246189
C24   C     C_R   0.247893 0.619800 0.069540 0.297879
C25   C     C_R   0.747787 0.476330 0.845833 -0.197432
C26   C     C_R   0.272322 0.581531 0.162193 -0.178663
C27   C     C_R   0.551846 0.541402 0.822903 -0.259701
C28   C     C_R   0.463992 0.514466 0.178081 -0.254671
C29   C     C_R   0.592000 0.547398 0.921978 0.058321
C30   C     C_R   0.448429 0.560220 0.090263 0.052993
C31   C     C_R   0.711804 0.512782 0.984318 0.091519
C32   C     C_R   0.335845 0.608939 0.032625 0.082018
C33   C     C_R   0.510820 0.577700 0.959962 0.095167
C34   C     C_R   0.399362 0.628022 0.903560 -0.237833
C35   C     C_R   0.541176 0.554655 0.057538 0.096220
C36   C     C_R   0.748003 0.509006 0.083490 -0.171812
C37   C     C_R   0.314775 0.645266 0.940159 -0.172454
C38   C     C_R   0.536120 0.811863 0.502262 -0.054026
C39   C     C_R   0.463817 0.188123 0.497628 -0.056127
C40   C     C_R   0.356491 0.029119 0.510956 -0.206877
H1    H     H_    0.839807 0.487225 0.133989 0.195234
H2    H     H_    0.807253 0.448518 0.816319 0.184700
H3    H     H_    0.696858 0.522093 0.196743 0.147764
H4    H     H_    0.377049 0.657952 0.831634 0.151235
H5    H     H_    0.366857 0.827332 0.517934 0.162688
H6    H     H_    0.633087 0.172654 0.481967 0.163635
H7    H     H_    0.707937 0.820748 0.486901 0.163209
H8    H     H_    0.291952 0.179225 0.512921 0.163121
H9    H     H_    0.279140 0.989340 0.518904 0.142574
H10   H     H_    0.720736 0.010633 0.480890 0.143134
H11   H     H_    0.772189 0.590337 0.403895 0.125681
H12   H     H_    0.231437 0.684550 0.894125 0.195934
H13   H     H_    0.227594 0.409410 0.595835 0.128544
H14   H     H_    0.848625 0.369597 0.632284 0.133800
H15   H     H_    0.151233 0.630089 0.367432 0.134722
H16   H     H_    0.937374 0.644342 0.349285 0.152209
H17   H     H_    0.062227 0.354980 0.650042 0.153132
H18   H     H_    0.542121 0.467082 0.218783 0.167336
H19   H     H_    0.458640 0.559996 0.773768 0.167178
H20   H     H_    0.208272 0.595041 0.192421 0.187047
N1    N     N_R   0.799120 0.480200 0.517090 -0.098367
N2    N     N_R   0.200880 0.519800 0.482910 -0.099841
O1    O     O_R   0.580150 0.341050 0.504560 -0.626931
O2    O     O_R   0.419850 0.658950 0.495440 -0.628998
O3    O     O_R   0.388090 0.353760 0.493600 -0.618669
O4    O     O_R   0.611910 0.646240 0.506400 -0.619491
O5    O     O_R   0.650890 0.490020 0.640860 -0.614002
O6    O     O_R   0.349110 0.509980 0.359140 -0.611383
O7    O     O_R   0.458830 0.502730 0.629890 -0.623950
O8    O     O_R   0.541170 0.497270 0.370110 -0.623256
Zn1   Zn    Zn3+2 0.628240 0.491510 0.507320 0.948927
Zn2   Zn    Zn3+2 0.371760 0.508490 0.492680 0.948875

loop_
_geom_bond_atom_site_label_1
_geom_bond_atom_site_label_2
_ccdc_geom_bond_type
C3    C40   A    
C20   C27   A    
C23   H3    S    
C8    C40   A    
C33   C34   A    
C22   C25   A    
C2    H10   S    
C33   C35   A    
C37   H12   S    
C11   H15   S    
O2    Zn2   S    
O1    Zn1   S    
C23   C35   A    
C10   H17   S    
C25   H2    S    
C24   C32   A    
C28   H18   S    
O6    Zn2   S    
C29   C31   A    
C34   H4    S    
C9    H16   S    
C7    C8    A    
C40   H9    S    
C16   O5    A    
C17   O8    A    
C1    O1    A    
C27   H19   S    
C32   C37   A    
C21   C28   A    
C2    C4    A    
N1    Zn1   S    
O4    Zn1   S    
C21   C26   A    
C9    C19   A    
C15   C19   A    
C30   C32   A    
C17   C21   S    
C23   C36   A    
C10   C13   A    
C14   C18   A    
C10   C18   A    
C12   O2    A    
Br2   C24   S    
O3    Zn2   S    
C30   C35   A    
O5    Zn1   S    
C20   C25   A    
C29   C33   A    
C3    H8    S    
C15   H11   S    
C16   O7    A    
C5    C7    A    
C3    C39   A    
C1    C39   S    
C12   O4    A    
C16   C20   S    
C34   C37   A    
C1    O3    A    
C22   C31   A    
O8    Zn1   S    
O7    Zn2   S    
N2    Zn2   S    
C14   N2    A    
C24   C26   A    
C31   C36   A    
C5    H6    S    
C6    H5    S    
C36   H1    S    
C27   C29   A    
C13   H14   S    
C28   C30   A    
C9    C11   A    
C11   N2    A    
C4    C38   A    
C5    C39   A    
C4    H7    S    
C14   H13   S    
C12   C38   S    
C18   C19   A    
Br1   C22   S    
C6    C8    A    
C13   N1    A    
C17   O6    A    
C6    C38   A    
C2    C7    A    
C15   N1    A    
C26   H20   S    
