data_mof_unit_68100.cif
_audit_creation_date              2013-03-05T15:58:24-0500
_audit_creation_method            fapswitch 2.2
_symmetry_space_group_name_H-M    P1
_symmetry_Int_Tables_number       1
_space_group_crystal_system       triclinic
_cell_length_a                    7.397338
_cell_length_b                    16.158227
_cell_length_c                    14.565885
_cell_angle_alpha                 90.000132
_cell_angle_beta                  89.998914
_cell_angle_gamma                 89.997785
_cell_volume                      1741.02915757

loop_
_atom_site_label
_atom_site_type_symbol
_atom_site_description
_atom_site_fract_x
_atom_site_fract_y
_atom_site_fract_z
_atom_type_partial_charge
O1    O     O_R   0.388780 0.834790 0.412340 -0.594943
O2    O     O_R   0.111220 0.165210 0.912340 -0.594996
O3    O     O_R   0.888780 0.665210 0.587660 -0.594950
O4    O     O_R   0.611220 0.334790 0.087660 -0.594901
O5    O     O_R   0.059040 0.845930 0.587040 -0.536815
O6    O     O_R   0.440960 0.154070 0.087040 -0.536869
O7    O     O_R   0.559040 0.654070 0.412960 -0.536842
O8    O     O_R   0.940960 0.345930 0.912960 -0.536807
C1    C     C_R   0.226212 0.863412 0.619473 0.971052
C2    C     C_R   0.273782 0.136582 0.119465 0.971072
C3    C     C_R   0.726221 0.636579 0.380538 0.970999
C4    C     C_R   0.773785 0.363420 0.880537 0.970922
O9    O     O_R   0.059070 0.845930 0.412970 -0.531405
O10   O     O_R   0.440930 0.154070 0.912970 -0.531685
O11   O     O_R   0.559070 0.654070 0.587030 -0.531477
O12   O     O_R   0.940930 0.345930 0.087030 -0.531381
O13   O     O_R   0.888760 0.665210 0.412340 -0.569099
O14   O     O_R   0.611240 0.334790 0.912340 -0.569153
O15   O     O_R   0.388760 0.834790 0.587660 -0.569152
O16   O     O_R   0.111240 0.165210 0.087660 -0.569117
C5    C     C_R   0.227750 0.863783 0.380584 0.910159
C6    C     C_R   0.272250 0.136208 0.880594 0.910259
C7    C     C_R   0.727752 0.636218 0.619417 0.910173
C8    C     C_R   0.772248 0.363779 0.119420 0.910181
O17   O     O_3   0.222280 0.690700 0.500000 -0.275365
O18   O     O_3   0.277720 0.309300 0.000000 -0.275291
O19   O     O_3   0.722280 0.809300 0.500000 -0.275324
O20   O     O_3   0.777720 0.190700 0.000000 -0.275523
V1    V     V_3+5 0.947430 0.761000 0.500000 1.290015
V2    V     V_3+5 0.552570 0.239000 0.000000 1.289816
V3    V     V_3+5 0.447430 0.739000 0.500000 1.289955
V4    V     V_3+5 0.052570 0.261000 0.000000 1.289944
C9    C     C_3   0.861242 0.585472 0.780309 -0.341467
C10   C     C_3   0.638742 0.414532 0.280310 -0.341488
C11   C     C_3   0.361267 0.914536 0.219702 -0.341435
C12   C     C_3   0.138783 0.085462 0.719710 -0.341521
H1    H     H_    0.774050 0.619939 0.829088 0.171074
H2    H     H_    0.725914 0.380058 0.329091 0.171055
H3    H     H_    0.274103 0.880065 0.170918 0.171078
H4    H     H_    0.226000 0.119894 0.670917 0.171129
C13   C     C_3   0.906015 0.503984 0.833444 -0.407062
C14   C     C_3   0.593976 0.496024 0.333438 -0.407088
C15   C     C_3   0.406034 0.996027 0.166575 -0.407158
C16   C     C_3   0.093965 0.003973 0.666591 -0.407127
H5    H     H_    0.900100 0.516706 0.908478 0.205688
H6    H     H_    0.599861 0.483303 0.408473 0.205683
H7    H     H_    0.400158 0.983303 0.091541 0.205783
H8    H     H_    0.099834 0.016688 0.591554 0.205676
H9    H     H_    0.046316 0.484077 0.819342 0.239474
H10   H     H_    0.453689 0.515943 0.319326 0.239469
H11   H     H_    0.546317 0.015943 0.180691 0.239463
H12   H     H_    0.953672 0.984074 0.680719 0.239616
H13   H     H_    0.961778 0.502389 0.626204 0.163406
H14   H     H_    0.538247 0.497633 0.126222 0.163357
H15   H     H_    0.461743 0.997636 0.373789 0.163343
H16   H     H_    0.038188 0.002379 0.873790 0.163361
C17   C     C_3   0.820167 0.488506 0.644246 -0.426307
C18   C     C_3   0.679871 0.511495 0.144251 -0.426307
C19   C     C_3   0.320120 0.011501 0.355759 -0.426356
C20   C     C_3   0.179814 0.988496 0.855775 -0.426316
C21   C     C_3   0.547028 0.541678 0.737032 -0.237228
C22   C     C_3   0.952980 0.458307 0.237049 -0.237219
C23   C     C_3   0.047021 0.958318 0.262957 -0.237211
C24   C     C_3   0.452978 0.041641 0.763004 -0.237376
C25   C     C_3   0.738778 0.566038 0.692927 -0.135207
C26   C     C_3   0.761229 0.433958 0.192934 -0.135221
C27   C     C_3   0.238769 0.933965 0.307074 -0.135201
C28   C     C_3   0.261228 0.066021 0.807095 -0.135125
C29   C     C_3   0.768276 0.433476 0.807716 -0.131114
C30   C     C_3   0.731747 0.566522 0.307720 -0.131087
C31   C     C_3   0.268255 0.066528 0.192288 -0.131110
C32   C     C_3   0.231722 0.933460 0.692307 -0.131188
C33   C     C_3   0.809168 0.407009 0.703112 0.121776
C34   C     C_3   0.690927 0.592994 0.203112 0.121923
C35   C     C_3   0.309063 0.093000 0.296898 0.122005
C36   C     C_3   0.190865 0.906992 0.796915 0.121896
C37   C     C_3   0.579796 0.475208 0.814122 -0.355412
C38   C     C_3   0.920209 0.524776 0.314143 -0.355475
C39   C     C_3   0.079796 0.024785 0.185863 -0.355496
C40   C     C_3   0.420202 0.975185 0.685904 -0.355314
H17   H     H_    0.577575 0.502443 0.884304 0.181410
H18   H     H_    0.922386 0.497541 0.384324 0.181479
H19   H     H_    0.077618 0.997547 0.115683 0.181416
H20   H     H_    0.422421 0.002441 0.615728 0.181230
H21   H     H_    0.464971 0.431527 0.818599 0.244796
H22   H     H_    0.035048 0.568447 0.318634 0.244803
H23   H     H_    0.964955 0.068459 0.181371 0.244800
H24   H     H_    0.535034 0.931504 0.681421 0.244858
H25   H     H_    0.758686 0.479223 0.575643 0.209745
H26   H     H_    0.741343 0.520763 0.075642 0.209741
H27   H     H_    0.258645 0.020769 0.424367 0.209735
H28   H     H_    0.241257 0.979223 0.924389 0.209775
C41   C     C_2   0.020039 0.644225 0.775896 1.086218
O21   O     O_2   0.048755 0.687611 0.842797 -0.553305
O22   O     O_R   0.136677 0.651605 0.701528 -0.745322
H29   H     H_    0.130326 0.604598 0.656801 0.306220
C42   C     C_2   0.479921 0.355795 0.275890 1.086067
O23   O     O_2   0.451157 0.312414 0.342792 -0.553272
O24   O     O_R   0.363319 0.348422 0.201509 -0.745271
H30   H     H_    0.369695 0.395429 0.156783 0.306223
C43   C     C_2   0.520087 0.855793 0.224130 1.086129
O25   O     O_2   0.548833 0.812397 0.157240 -0.553259
O26   O     O_R   0.636712 0.848431 0.298504 -0.745317
H31   H     H_    0.630319 0.895438 0.343230 0.306212
C44   C     C_2   0.980051 0.144261 0.724121 1.086613
O27   O     O_2   0.951484 0.187708 0.657250 -0.553354
O28   O     O_R   0.863291 0.151607 0.798448 -0.745451
H32   H     H_    0.869644 0.104597 0.843170 0.306092
N1    N     N_R   0.666750 0.353971 0.662814 0.247698
O29   O     O_R   0.679417 0.329580 0.577777 -0.315897
O30   O     O_R   0.522236 0.334077 0.707806 -0.373612
N2    N     N_R   0.833426 0.645997 0.162825 0.247640
O31   O     O_R   0.820912 0.670327 0.077762 -0.316087
O32   O     O_R   0.977839 0.665943 0.207875 -0.373747
N3    N     N_R   0.166556 0.146005 0.337183 0.247633
O33   O     O_R   0.179073 0.170335 0.422244 -0.316180
O34   O     O_R   0.022135 0.165945 0.292142 -0.373797
N4    N     N_R   0.333333 0.853978 0.837218 0.247702
O35   O     O_R   0.320759 0.829645 0.922277 -0.315960
O36   O     O_R   0.477791 0.834039 0.792196 -0.373702
C45   C     C_2   0.987996 0.360823 0.689260 1.101595
O37   O     O_2   0.042125 0.348310 0.610959 -0.530672
O38   O     O_R   0.091834 0.332420 0.762558 -0.782173
H33   H     H_    0.200025 0.298692 0.742340 0.360637
C46   C     C_2   0.512155 0.639219 0.189238 1.101372
O39   O     O_2   0.458130 0.651780 0.110931 -0.530740
O40   O     O_R   0.408246 0.667598 0.262520 -0.782126
H34   H     H_    0.300124 0.701366 0.242295 0.360518
C47   C     C_2   0.487827 0.139224 0.310774 1.101380
O41   O     O_2   0.541869 0.151769 0.389082 -0.530873
O42   O     O_R   0.591706 0.167625 0.237491 -0.782118
H35   H     H_    0.699848 0.201375 0.257721 0.360498
C48   C     C_2   0.012081 0.860781 0.810773 1.101456
O43   O     O_2   0.957992 0.848245 0.889075 -0.530641
O44   O     O_R   0.908238 0.832380 0.737477 -0.782169
H36   H     H_    0.800070 0.798641 0.757696 0.360519
C49   C     C_2   0.411879 0.506140 0.668060 1.098828
O45   O     O_2   0.271132 0.477045 0.696789 -0.705662
O46   O     O_R   0.444490 0.504252 0.573573 -0.788569
H37   H     H_    0.341626 0.478390 0.537582 0.356343
C50   C     C_2   0.088144 0.493851 0.168080 1.098808
O47   O     O_2   0.228868 0.522969 0.196812 -0.705627
O48   O     O_R   0.055560 0.495725 0.073591 -0.788496
H38   H     H_    0.158445 0.521579 0.037599 0.356297
C51   C     C_2   0.911852 0.993863 0.331926 1.098800
O49   O     O_2   0.771127 0.022984 0.303193 -0.705626
O50   O     O_R   0.944430 0.995732 0.426415 -0.788499
H39   H     H_    0.841543 0.021587 0.462407 0.356289
C52   C     C_2   0.588116 0.006104 0.831985 1.098862
O51   O     O_2   0.728884 0.977012 0.803267 -0.705551
O52   O     O_R   0.555490 0.004237 0.926471 -0.788393
H40   H     H_    0.658733 0.978696 0.962512 0.356090
C53   C     C_2   0.459301 0.615940 0.784944 0.998841
O53   O     O_2   0.470914 0.684535 0.751285 -0.562681
O54   O     O_R   0.374554 0.607312 0.870513 -0.779039
H41   H     H_    0.354616 0.662246 0.902440 0.414088
C54   C     C_2   0.040676 0.384029 0.284953 0.998713
O55   O     O_2   0.029232 0.315456 0.251220 -0.562580
O56   O     O_R   0.125207 0.392610 0.370582 -0.778921
H42   H     H_    0.145184 0.337653 0.402455 0.414151
C55   C     C_2   0.959328 0.884048 0.215048 0.998807
O57   O     O_2   0.970865 0.815465 0.248740 -0.562613
O58   O     O_R   0.874701 0.892652 0.129451 -0.778987
H43   H     H_    0.854726 0.837707 0.097552 0.414146
C56   C     C_2   0.540748 0.115873 0.715076 0.999137
O59   O     O_2   0.528718 0.184520 0.748560 -0.562829
O60   O     O_R   0.625980 0.107138 0.629653 -0.779321
H44   H     H_    0.645791 0.162020 0.597600 0.413939

loop_
_geom_bond_atom_site_label_1
_geom_bond_atom_site_label_2
_geom_bond_distance
_ccdc_geom_bond_type
O17   V3    1.839325 S    
C31   C35   1.611176 S    
C4    C29   1.551818 S    
O1    C5    1.361008 A    
C56   O59   1.214956 D    
H15   C19   1.103035 S    
O19   V1    1.839270 S    
O13   V1    2.052910 S    
O3    C7    1.361011 A    
O22   H29   1.001781 S    
C10   C14   1.562800 S    
C1    C32   1.551849 S    
C14   C30   1.573736 S    
C32   C36   1.611193 S    
O15   V3    2.052872 S    
C10   C26   1.593516 S    
N4    O36   1.294491 A    
N2    O32   1.294500 A    
C55   O57   1.214994 D    
C3    C30   1.551798 S    
C9    C25   1.593534 S    
O38   H33   1.012029 S    
C23   C39   1.572658 S    
O7    C3    1.353606 A    
C44   O28   1.390024 S    
C54   O55   1.215030 D    
C17   H25   1.108099 S    
O44   H36   1.012033 S    
C24   C28   1.606098 S    
O9    V1    2.042623 S    
C52   O52   1.397599 S    
O56   H42   1.012879 S    
C51   O49   1.216637 D    
O4    C8    1.361028 A    
C34   C46   1.532152 S    
C30   C38   1.551533 S    
O48   H38   1.014196 S    
O1    V3    2.052856 S    
C10   C42   1.511714 S    
O2    V4    2.052843 S    
C14   H6    1.112966 S    
C17   C33   1.573520 S    
O3    V1    2.052872 S    
N4    O35   1.303180 A    
N1    O30   1.294454 A    
C55   O58   1.402043 S    
C29   C37   1.551528 S    
C1    O15   1.369074 A    
O50   H39   1.014198 S    
C2    O16   1.369045 A    
N3    O34   1.294438 A    
O2    C6    1.360992 A    
O52   H40   1.014488 S    
C29   C33   1.611170 S    
O14   V2    2.052903 S    
C37   H17   1.113082 S    
C53   O54   1.402098 S    
C11   C15   1.562798 S    
N1    O29   1.303188 A    
C40   H20   1.113145 S    
C19   C27   1.560350 S    
C2    C31   1.551814 S    
C38   H22   1.106308 S    
O11   C7    1.364819 A    
C49   O45   1.216613 D    
C37   H21   1.106310 S    
O12   C8    1.364812 A    
C39   H23   1.106308 S    
C5    C27   1.561764 S    
O10   C6    1.364802 A    
C24   C40   1.572599 S    
C56   O60   1.401991 S    
O10   V2    2.042639 S    
C13   H9    1.105791 S    
N2    O31   1.303182 A    
C51   O50   1.397595 S    
C18   C26   1.560343 S    
C42   O23   1.219114 D    
O5    V1    2.042638 S    
C20   H28   1.108105 S    
C41   O22   1.389982 S    
O46   H37   1.014152 S    
C23   C27   1.606148 S    
O7    V3    2.042578 S    
C22   C26   1.606164 S    
O8    V4    2.042600 S    
C43   O25   1.219080 D    
C12   H4    1.109473 S    
C34   N2    1.479537 S    
C21   C49   1.529257 S    
C42   O24   1.389976 S    
C21   C37   1.572637 S    
O60   H44   1.012846 S    
H13   C17   1.103059 S    
O18   V4    1.839324 S    
C35   C47   1.532152 S    
C20   C36   1.573553 S    
C9    H1    1.109477 S    
C31   C39   1.551541 S    
H16   C20   1.103054 S    
C21   C53   1.532304 S    
C11   H3    1.109480 S    
O5    C1    1.353615 A    
C24   C56   1.532208 S    
C46   O40   1.392987 S    
C21   C25   1.606121 S    
C49   O46   1.397587 S    
C38   H18   1.113067 S    
O24   H30   1.001771 S    
C11   C27   1.593506 S    
O8    C4    1.353592 A    
H14   C18   1.103048 S    
C22   C54   1.532360 S    
O9    C5    1.364815 A    
C41   O21   1.219090 D    
C19   H27   1.108094 S    
C33   N1    1.479523 S    
C18   H26   1.108101 S    
C6    C28   1.561720 S    
C45   O37   1.225554 D    
C14   H10   1.105781 S    
O6    V2    2.042623 S    
C33   C45   1.532152 S    
C46   O39   1.225521 D    
C12   C16   1.562799 S    
C35   N3    1.479533 S    
O28   H32   1.001764 S    
O42   H35   1.012036 S    
C19   C35   1.573514 S    
O26   H31   1.001770 S    
C18   C34   1.573503 S    
C13   C29   1.573744 S    
C47   O41   1.225537 D    
O16   V4    2.052888 S    
C23   C55   1.532330 S    
C3    O13   1.369058 A    
C15   C31   1.573734 S    
C12   C44   1.511760 S    
C10   H2    1.109484 S    
C22   C38   1.572666 S    
C17   C25   1.560340 S    
C11   C43   1.511721 S    
C9    C41   1.511732 S    
O6    C2    1.353620 A    
C36   C48   1.532135 S    
C12   C28   1.593501 S    
O11   V3    2.042600 S    
C40   H24   1.106321 S    
C8    C26   1.561767 S    
O12   V4    2.042575 S    
C44   O27   1.219111 D    
C43   O26   1.389974 S    
C24   C52   1.529246 S    
C9    C13   1.562808 S    
C7    C25   1.561755 S    
C50   O48   1.397598 S    
C32   C40   1.551527 S    
C50   O47   1.216642 D    
C39   H19   1.113077 S    
C16   H12   1.105786 S    
N3    O33   1.303157 A    
C48   O43   1.225538 D    
C15   H11   1.105776 S    
O20   V2    1.839270 S    
C16   C32   1.573788 S    
C30   C34   1.611164 S    
C36   N4    1.479547 S    
C45   O38   1.393030 S    
O58   H43   1.012889 S    
C16   H8    1.112975 S    
C20   C28   1.560358 S    
C54   O56   1.402116 S    
C4    O14   1.369082 A    
O54   H41   1.012866 S    
C48   O44   1.393034 S    
C13   H5    1.112970 S    
C22   C50   1.529309 S    
C53   O53   1.215007 D    
C52   O51   1.216635 D    
C15   H7    1.112961 S    
C23   C51   1.529300 S    
O4    V2    2.052876 S    
O40   H34   1.012021 S    
C47   O42   1.393015 S    
