data_mof_unit_7312.cif
_audit_creation_date              2012-12-10T17:44:48-0500
_audit_creation_method            fapswitch 2.2
_symmetry_space_group_name_H-M    P1
_symmetry_Int_Tables_number       1
_space_group_crystal_system       triclinic
_cell_length_a                    14.992634
_cell_length_b                    13.872139
_cell_length_c                    19.314333
_cell_angle_alpha                 90.740509
_cell_angle_beta                  85.307884
_cell_angle_gamma                 90.459149
_cell_volume                      4003.09886367

loop_
_atom_site_label
_atom_site_type_symbol
_atom_type_description
_atom_site_fract_x
_atom_site_fract_y
_atom_site_fract_z
_atom_type_partial_charge
C1    C     C_R   0.329050 0.499584 0.500903 0.803026
C2    C     C_R   0.670979 0.500502 0.500100 0.822052
C3    C     C_R   0.807388 0.542810 0.555690 -0.135055
C4    C     C_R   0.192558 0.456640 0.446286 -0.142556
C5    C     C_R   0.900773 0.546645 0.555789 -0.013965
C6    C     C_R   0.099377 0.456529 0.445167 -0.017040
C7    C     C_R   0.953660 0.504744 0.499142 -0.021443
C8    C     C_R   0.046824 0.500805 0.501057 -0.023844
C9    C     C_R   0.913016 0.467529 0.440359 -0.065774
C10   C     C_R   0.087743 0.539889 0.559152 -0.067747
C11   C     C_R   0.941737 0.588441 0.612532 0.329400
C12   C     C_R   0.058437 0.416540 0.387859 0.329608
C13   C     C_R   0.034718 0.581144 0.616102 0.387392
C14   C     C_R   0.966302 0.428313 0.382821 0.390707
C15   C     C_R   0.430114 0.796843 0.534046 0.558538
C16   C     C_R   0.568558 0.203440 0.463257 0.486283
C17   C     C_R   0.565527 0.795303 0.458305 0.496300
C18   C     C_R   0.429889 0.203527 0.534240 0.548024
C19   C     C_R   0.559189 0.897581 0.453408 -0.204679
C20   C     C_R   0.415436 0.103160 0.517045 -0.201508
C21   C     C_R   0.415137 0.896167 0.516914 -0.189807
C22   C     C_R   0.567513 0.100675 0.466137 -0.176287
C23   C     C_R   0.487318 0.947903 0.486965 -0.051056
C24   C     C_R   0.488840 0.051102 0.488983 -0.045699
C25   C     C_R   0.621804 0.954028 0.413849 0.423547
C26   C     C_R   0.332045 0.051681 0.527251 0.362872
C27   C     C_R   0.331993 0.946789 0.527746 0.296900
C28   C     C_R   0.641370 0.043213 0.442612 0.390751
C29   C     C_R   0.499552 0.499519 0.367506 0.835104
C30   C     C_R   0.500531 0.500392 0.632305 0.803198
C31   C     C_R   0.496997 0.585770 0.255404 -0.107760
C32   C     C_R   0.560919 0.437143 0.738603 -0.169028
C33   C     C_R   0.449643 0.562991 0.749964 -0.104993
C34   C     C_R   0.508843 0.411566 0.253474 -0.149176
C35   C     C_R   0.499899 0.585666 0.183188 -0.111735
C36   C     C_R   0.563438 0.436226 0.810667 -0.122819
C37   C     C_R   0.452950 0.563244 0.821709 -0.135616
C38   C     C_R   0.512905 0.411599 0.181100 -0.120539
C39   C     C_R   0.508162 0.498655 0.145380 0.037413
C40   C     C_R   0.509685 0.499740 0.852757 0.042826
C41   C     C_R   0.501381 0.498748 0.291240 -0.051371
C42   C     C_R   0.503942 0.500636 0.707874 -0.015669
C43   C     C_R   0.511519 0.499691 0.928737 0.425981
C44   C     C_R   0.510361 0.499026 0.069114 0.426515
C45   C     C_R   0.819535 0.468266 0.441749 -0.061259
C46   C     C_R   0.181311 0.538159 0.557848 -0.025889
C47   C     C_R   0.767657 0.502681 0.499526 -0.043913
C48   C     C_R   0.232575 0.498199 0.501710 -0.045286
Cu1   Cu    Cu3+1 0.500000 0.597420 0.500000 1.108351
Cu2   Cu    Cu3+1 0.500000 0.402580 0.500000 1.103276
H1    H     H_    0.491283 0.654143 0.283074 0.199093
H2    H     H_    0.603810 0.388738 0.706791 0.185622
H3    H     H_    0.402944 0.609928 0.727935 0.217400
H4    H     H_    0.511948 0.343291 0.279698 0.192941
H5    H     H_    0.496434 0.653914 0.156972 0.179502
H6    H     H_    0.608016 0.386724 0.833314 0.176162
H7    H     H_    0.409702 0.611936 0.852932 0.176835
H8    H     H_    0.518618 0.343414 0.153210 0.172769
H9    H     H_    0.785418 0.440583 0.398914 0.215820
H10   H     H_    0.216052 0.567710 0.599871 0.225704
H11   H     H_    0.764186 0.568256 0.599711 0.146600
H12   H     H_    0.235559 0.428358 0.403102 0.144952
N1    N     N_R   0.541080 0.421735 0.030678 -0.207858
N2    N     N_R   0.480983 0.576907 0.967205 -0.209408
N3    N     N_R   0.541896 0.422164 0.961720 -0.208980
N4    N     N_R   0.480665 0.576703 0.036020 -0.209866
N5    N     N_R   0.500000 0.743810 0.500000 -0.289653
N6    N     N_R   0.500000 0.256190 0.500000 -0.295886
O1    O     O_R   0.370260 0.582280 0.500020 -0.554786
O2    O     O_R   0.629740 0.417720 0.499980 -0.518267
O3    O     O_R   0.629740 0.582280 0.499980 -0.512996
O4    O     O_R   0.370260 0.417720 0.500020 -0.547156
O5    O     O_R   0.499990 0.582300 0.400140 -0.557074
O6    O     O_R   0.500010 0.417700 0.599860 -0.524153
O7    O     O_R   0.500010 0.582300 0.599860 -0.517577
O8    O     O_R   0.499990 0.417700 0.400140 -0.551365
O9    O     O_3   0.892174 0.637081 0.665005 -0.627434
H13   H     H_    0.847788 0.677329 0.643652 0.344690
O10   O     O_3   0.107140 0.365506 0.336143 -0.626785
H14   H     H_    0.149019 0.323029 0.358334 0.340954
S1    S     S_3+6 0.083966 0.625403 0.691691 0.087601
O11   O     O_2   0.141259 0.547989 0.718503 -0.274755
O12   O     O_2   0.141657 0.711426 0.671986 -0.222264
O13   O     O_3   0.007322 0.658090 0.756026 -0.419410
H15   H     H_    0.042506 0.683223 0.793654 0.384264
S2    S     S_3+6 0.918892 0.390865 0.304822 0.076463
O14   O     O_2   0.866642 0.299316 0.318711 -0.208236
O15   O     O_2   0.857180 0.467567 0.282777 -0.311601
O16   O     O_3   0.997570 0.370969 0.239090 -0.414866
H16   H     H_    0.964172 0.347329 0.199994 0.387158
S3    S     S_3+6 0.394984 0.766799 0.621021 0.064677
O17   O     O_2   0.338156 0.844972 0.656077 -0.285158
O18   O     O_2   0.342616 0.674346 0.623881 -0.273351
O19   O     O_3   0.487416 0.755540 0.664126 -0.529944
H17   H     H_    0.469938 0.777509 0.712302 0.372727
S4    S     S_3+6 0.662477 0.254444 0.410264 0.085199
O20   O     O_2   0.738013 0.270172 0.455700 -0.214204
O21   O     O_2   0.693175 0.183396 0.353953 -0.232044
O22   O     O_3   0.646862 0.357408 0.369015 -0.555771
H18   H     H_    0.684314 0.353353 0.324396 0.385556
S5    S     S_3+6 0.671934 0.744497 0.423511 0.096843
O23   O     O_2   0.727334 0.810167 0.375851 -0.204475
O24   O     O_2   0.727170 0.726844 0.483589 -0.265531
O25   O     O_3   0.660101 0.642751 0.376991 -0.515657
H19   H     H_    0.721865 0.620769 0.363522 0.373642
S6    S     S_3+6 0.389827 0.238666 0.620297 0.099264
O26   O     O_2   0.335832 0.329410 0.621006 -0.237012
O27   O     O_2   0.333556 0.160518 0.655400 -0.237279
O28   O     O_3   0.478730 0.255507 0.666807 -0.528352
H20   H     H_    0.453217 0.263851 0.715447 0.377662
S7    S     S_3+6 0.609660 0.955819 0.323449 0.086703
O29   O     O_2   0.699066 0.976330 0.285260 -0.174081
O30   O     O_2   0.573895 0.860819 0.299001 -0.265759
O31   O     O_3   0.537947 0.043675 0.307008 -0.533657
H21   H     H_    0.539281 0.045777 0.255694 0.387979
S8    S     S_3+6 0.229940 0.118564 0.526639 0.103594
O32   O     O_2   0.177569 0.111064 0.596114 -0.180279
O33   O     O_2   0.248286 0.223154 0.511445 -0.290983
O34   O     O_3   0.166691 0.076241 0.464983 -0.438131
H22   H     H_    0.110215 0.113048 0.471585 0.393444
S9    S     S_3+6 0.230172 0.879310 0.522364 0.127987
O35   O     O_2   0.198741 0.892457 0.451269 -0.176408
O36   O     O_2   0.242179 0.773058 0.531380 -0.252188
O37   O     O_3   0.149927 0.917741 0.581924 -0.403288
H23   H     H_    0.174454 0.907451 0.627290 0.396404
S10   S     S_3+6 0.739301 0.048479 0.487706 0.106522
O38   O     O_2   0.816974 0.080298 0.439015 -0.161203
O39   O     O_2   0.727391 0.117454 0.548389 -0.243155
O40   O     O_3   0.760800 0.938191 0.517114 -0.490895
H24   H     H_    0.818340 0.945250 0.538528 0.399894

loop_
_geom_bond_atom_site_label_1
_geom_bond_atom_site_label_2
_ccdc_geom_bond_type
N1    N3    A    
C9    C45   A    
S5    O23   D    
C13   S1    S    
C44   N4    A    
S7    O29   D    
O31   H21   S    
C27   S9    S    
C7    C8    A    
C29   O8    A    
O9    H13   S    
C25   C28   A    
C26   C27   A    
S10   O38   D    
S6    O27   D    
C33   C42   A    
C32   C36   A    
C5    C11   A    
C37   C40   A    
Cu2   O6    S    
C6    C12   A    
C38   C39   A    
C30   O6    A    
S2    O15   D    
C29   O5    A    
S6    O26   D    
C18   N6    A    
S4    O22   S    
C4    H12   S    
S8    O32   D    
C17   S5    S    
C32   H2    S    
S9    O37   S    
Cu2   O4    S    
C11   O9    S    
C38   H8    S    
C40   C43   S    
C20   C24   A    
S4    O21   D    
C10   C46   A    
C16   C22   A    
C23   C24   A    
Cu1   O7    S    
C16   N6    A    
Cu1   N5    S    
C18   C20   A    
C46   H10   S    
C45   C47   A    
C21   C27   A    
S5    O24   D    
Cu1   O1    S    
C34   C41   A    
O25   H19   S    
S1    O12   D    
C28   S10   S    
C43   N2    A    
S1    O11   D    
C26   S8    S    
C3    H11   S    
C44   N1    A    
C33   H3    S    
C46   C48   A    
C17   N5    A    
C1    O4    A    
C16   S4    S    
C35   H5    S    
C36   C40   A    
O13   H15   S    
C14   S2    S    
C4    C6    A    
S3    O17   D    
C5    C7    A    
S2    O14   D    
C6    C8    A    
S10   O40   S    
S2    O16   S    
C1    O1    A    
N2    N4    A    
C19   C23   A    
C9    C14   A    
C18   S6    S    
C36   H6    S    
Cu2   O8    S    
S3    O18   D    
O22   H18   S    
C43   N3    A    
C15   N5    A    
S4    O20   D    
S7    O30   D    
S9    O35   D    
C12   C14   A    
C34   H4    S    
S5    O25   S    
C21   C23   A    
Cu1   O5    S    
C2    O3    A    
S1    O13   S    
O40   H24   S    
C4    C48   A    
C7    C9    A    
C45   H9    S    
S10   O39   D    
C31   C41   A    
C29   C41   S    
C34   C38   A    
C31   H1    S    
C3    C5    A    
C10   C13   A    
O34   H22   S    
C1    C48   S    
C39   C44   S    
C2    C47   S    
S8    O34   S    
Cu2   O2    S    
O28   H20   S    
S3    O19   S    
C30   O7    A    
C11   C13   A    
C20   C26   A    
C35   C39   A    
C31   C35   A    
C3    C47   A    
C17   C19   A    
S8    O33   D    
S7    O31   S    
C22   C24   A    
O19   H17   S    
C19   C25   A    
C33   C37   A    
S9    O36   D    
C25   S7    S    
C15   S3    S    
O10   H14   S    
C15   C21   A    
O37   H23   S    
C8    C10   A    
Cu1   Cu2   S    
Cu1   O3    S    
C32   C42   A    
C30   C42   S    
C22   C28   A    
O16   H16   S    
C2    O2    A    
Cu2   N6    S    
C37   H7    S    
C12   O10   S    
S6    O28   S    
