data_mof_unit_57815.cif
_audit_creation_date              2012-12-10T22:11:09-0500
_audit_creation_method            fapswitch 2.2
_symmetry_space_group_name_H-M    P1
_symmetry_Int_Tables_number       1
_space_group_crystal_system       triclinic
_cell_length_a                    12.100454
_cell_length_b                    12.339856
_cell_length_c                    23.111772
_cell_angle_alpha                 89.176266
_cell_angle_beta                  89.74669
_cell_angle_gamma                 91.506648
_cell_volume                      3449.41097676

loop_
_atom_site_label
_atom_site_type_symbol
_atom_type_description
_atom_site_fract_x
_atom_site_fract_y
_atom_site_fract_z
_atom_type_partial_charge
C1    C     C_R   0.655527 0.997539 0.579933 0.898038
C2    C     C_R   0.343258 0.002284 0.420814 0.899385
C3    C     C_R   0.908942 0.726098 0.166808 0.150104
C4    C     C_R   0.101523 0.262794 0.837389 0.154282
C5    C     C_R   0.075142 0.887663 0.167534 -0.154781
C6    C     C_R   0.924340 0.113682 0.831361 -0.159019
C7    C     C_R   0.073951 0.812733 0.124695 -0.293612
C8    C     C_R   0.924629 0.190591 0.873182 -0.284208
C9    C     C_R   0.901777 0.100147 0.166715 0.106929
C10   C     C_R   0.100748 0.883826 0.825760 0.120172
C11   C     C_R   0.901942 0.185237 0.125097 0.166836
C12   C     C_R   0.105088 0.785779 0.857103 0.165946
C13   C     C_R   0.169122 0.901941 0.298823 0.216540
C14   C     C_R   0.835501 0.100305 0.699565 0.218331
C15   C     C_R   0.247814 0.909597 0.342217 -0.290442
C16   C     C_R   0.756872 0.093138 0.656004 -0.288967
C17   C     C_R   0.835085 0.087800 0.297071 -0.190433
C18   C     C_R   0.155169 0.905717 0.697918 -0.195630
C19   C     C_R   0.754001 0.090628 0.339460 -0.211517
C20   C     C_R   0.236802 0.903923 0.655828 -0.212136
C21   C     C_3   0.997564 0.990842 0.248294 -0.062744
C22   C     C_3   0.001944 0.007069 0.751875 -0.061070
C23   C     C_R   0.656137 0.003264 0.421725 0.866089
C24   C     C_R   0.343187 0.996803 0.578006 0.857191
C25   C     C_R   0.102433 0.993323 0.286374 0.110120
C26   C     C_R   0.896948 0.006650 0.714274 0.115267
C27   C     C_R   0.260959 0.002926 0.375121 -0.109099
C28   C     C_R   0.735827 0.996409 0.626804 -0.117149
C29   C     C_R   0.905161 0.998180 0.293570 0.170042
C30   C     C_R   0.092477 0.999572 0.705611 0.162004
C31   C     C_R   0.745573 0.007132 0.380633 -0.007778
C32   C     C_R   0.252639 0.993065 0.618669 -0.008406
C33   C     C_R   0.995750 0.086805 0.203568 -0.122772
C34   C     C_R   0.002193 0.910017 0.795580 -0.108049
C35   C     C_R   0.994767 0.256836 0.120494 -0.208179
C36   C     C_R   0.005397 0.731771 0.873105 -0.205163
C37   C     C_R   0.991295 0.889617 0.210169 0.138586
C38   C     C_R   0.011394 0.106487 0.790991 0.101855
C39   C     C_R   0.990082 0.734600 0.122987 -0.092288
C40   C     C_R   0.012656 0.263874 0.877318 -0.130680
C41   C     C_R   0.992491 0.659028 0.076042 0.904448
C42   C     C_R   0.008019 0.342125 0.923199 0.863731
C43   C     C_R   0.997833 0.348812 0.079827 0.910593
C44   C     C_R   0.002368 0.646555 0.917680 0.917650
C45   C     C_R   0.118492 0.087618 0.319876 -0.141750
C46   C     C_R   0.874555 0.909939 0.683911 -0.150723
C47   C     C_R   0.195096 0.092788 0.364267 0.210829
C48   C     C_R   0.793318 0.902888 0.642025 0.200865
C49   C     C_R   0.903611 0.923241 0.340359 -0.116885
C50   C     C_R   0.099950 0.081157 0.662247 -0.119169
C51   C     C_R   0.823556 0.926548 0.382800 -0.216515
C52   C     C_R   0.180561 0.079050 0.619978 -0.220961
C53   C     C_R   0.091831 0.152400 0.191603 0.566289
C54   C     C_R   0.903309 0.852015 0.811591 0.560576
C55   C     C_R   0.088831 0.237776 0.152787 -0.317260
C56   C     C_R   0.905720 0.766231 0.850381 -0.319113
C57   C     C_R   0.907968 0.804296 0.211037 0.187019
C58   C     C_R   0.101137 0.184752 0.793318 0.228884
H1    H     H_    0.962158 0.858707 0.342763 0.132352
H2    H     H_    0.047137 0.150216 0.663007 0.130301
H3    H     H_    0.142620 0.946885 0.166771 0.197991
H4    H     H_    0.853274 0.059116 0.830327 0.211918
H5    H     H_    0.841836 0.156734 0.267940 0.130441
H6    H     H_    0.142009 0.832680 0.723441 0.134384
H7    H     H_    0.821316 0.864821 0.416659 0.145852
H8    H     H_    0.188116 0.145993 0.589237 0.148087
H9    H     H_    0.162982 0.288002 0.146945 0.206958
H10   H     H_    0.827937 0.726882 0.862829 0.208411
H11   H     H_    0.138401 0.817322 0.091940 0.178410
H12   H     H_    0.855177 0.191769 0.902847 0.178820
H13   H     H_    0.296443 0.839251 0.351874 0.183427
H14   H     H_    0.714037 0.165811 0.643714 0.182724
H15   H     H_    0.697054 0.156937 0.339550 0.153621
H16   H     H_    0.288283 0.833670 0.652877 0.151723
H17   H     H_    0.065740 0.156343 0.313313 0.130734
H18   H     H_    0.922683 0.838647 0.692429 0.128504
O1    O     O_R   0.621380 0.090460 0.561410 -0.638610
O2    O     O_R   0.378620 0.909540 0.438590 -0.640256
O3    O     O_R   0.617150 0.909540 0.438590 -0.625948
O4    O     O_R   0.382850 0.090460 0.561410 -0.627418
O5    O     O_R   0.619720 0.093230 0.440890 -0.629280
O6    O     O_R   0.380280 0.906770 0.559110 -0.632347
O7    O     O_R   0.618800 0.906770 0.559110 -0.594468
O8    O     O_R   0.381200 0.093230 0.440890 -0.588728
O9    O     O_R   0.087590 0.627480 0.058790 -0.635618
O10   O     O_R   0.912410 0.372520 0.941210 -0.631966
O11   O     O_R   0.905660 0.383870 0.059980 -0.589866
O12   O     O_R   0.094340 0.616130 0.940020 -0.592320
O13   O     O_R   0.092570 0.390420 0.063230 -0.631961
O14   O     O_R   0.907430 0.609580 0.936770 -0.635689
O15   O     O_R   0.900680 0.620930 0.055550 -0.596400
O16   O     O_R   0.099320 0.379070 0.944450 -0.624733
Zn1   Zn    Zn3+2 0.501730 0.123520 0.501540 0.951238
Zn2   Zn    Zn3+2 0.498270 0.876480 0.498460 0.944633
Zn3   Zn    Zn3+2 0.125690 0.504390 0.002180 0.947195
Zn4   Zn    Zn3+2 0.874310 0.495610 0.997820 0.957549
N1    N     N_2   0.200144 0.186083 0.399782 -0.280175
H19   H     H_    0.185214 0.257468 0.377720 0.223996
C59   C     C_3   0.134761 0.175314 0.452242 -0.785758
H20   H     H_    0.148126 0.248368 0.479075 0.234053
H21   H     H_    0.159499 0.103268 0.477990 0.239330
H22   H     H_    0.045453 0.167292 0.441531 0.231502
N2    N     N_2   0.774199 0.802510 0.613787 -0.293614
H23   H     H_    0.846057 0.764726 0.602457 0.207617
C60   C     C_3   0.698269 0.729528 0.644555 -0.707099
H24   H     H_    0.681982 0.656344 0.618209 0.216209
H25   H     H_    0.618370 0.769333 0.652458 0.253518
H26   H     H_    0.734296 0.704079 0.686628 0.236163
F1    F     F_    0.193144 0.131079 0.213202 -0.689589
F2    F     F_    0.801430 0.881995 0.794175 -0.694014
N3    N     N_2   0.819691 0.801059 0.252214 -0.297964
H27   H     H_    0.744063 0.823140 0.236292 0.231397
C61   C     C_3   0.813203 0.708904 0.292019 -0.818385
H28   H     H_    0.775961 0.733825 0.333423 0.252896
H29   H     H_    0.757507 0.644117 0.275278 0.237719
H30   H     H_    0.896530 0.676972 0.301030 0.236829
N4    N     N_2   0.193305 0.181992 0.754722 -0.290166
H31   H     H_    0.261049 0.142073 0.770093 0.245984
C62   C     C_3   0.219397 0.278788 0.720269 -0.782464
H32   H     H_    0.257769 0.255499 0.678819 0.243030
H33   H     H_    0.280841 0.331578 0.742518 0.257539
H34   H     H_    0.143626 0.324646 0.710597 0.232500
N5    N     N_2   0.806501 0.029750 0.173139 -0.298257
H35   H     H_    0.737843 0.067323 0.189048 0.220575
C63   C     C_3   0.780440 0.958258 0.125516 -0.774590
H36   H     H_    0.741389 0.882101 0.142348 0.224756
H37   H     H_    0.855906 0.938069 0.100751 0.254701
H38   H     H_    0.718308 0.994622 0.096581 0.231582
N6    N     N_2   0.195324 0.954908 0.823742 -0.305463
H39   H     H_    0.265212 0.919891 0.807555 0.232747
C64   C     C_3   0.216302 0.011558 0.877355 -0.810987
H40   H     H_    0.287144 0.069327 0.871296 0.233660
H41   H     H_    0.236753 0.954793 0.913063 0.230616
H42   H     H_    0.142678 0.056774 0.890756 0.262089
N7    N     N_2   0.148558 0.797944 0.274580 -0.315686
H43   H     H_    0.110002 0.743966 0.303074 0.210468
C65   C     C_3   0.240646 0.750852 0.244539 -0.759762
H44   H     H_    0.209646 0.681793 0.218375 0.247014
H45   H     H_    0.302120 0.719951 0.275798 0.221887
H46   H     H_    0.281342 0.811538 0.214913 0.256792
N8    N     N_2   0.860569 0.204719 0.722341 -0.316844
H47   H     H_    0.900285 0.256035 0.692922 0.208318
C66   C     C_3   0.770149 0.256882 0.751255 -0.766094
H48   H     H_    0.803434 0.326375 0.776364 0.244322
H49   H     H_    0.726855 0.199410 0.781683 0.257164
H50   H     H_    0.710174 0.288118 0.719275 0.221917
N9    N     N_2   0.826533 0.641304 0.164535 -0.287247
H51   H     H_    0.748394 0.660382 0.178193 0.222253
C67   C     C_3   0.862039 0.534795 0.182754 -0.732208
H52   H     H_    0.795095 0.473776 0.174546 0.234088
H53   H     H_    0.882261 0.533155 0.229450 0.221612
H54   H     H_    0.936639 0.511315 0.158497 0.230203
N10   N     N_2   0.188128 0.343451 0.839045 -0.297922
H55   H     H_    0.163485 0.420744 0.847869 0.233469
C68   C     C_3   0.288369 0.312396 0.868251 -0.746880
H56   H     H_    0.331664 0.250445 0.843204 0.227571
H57   H     H_    0.269881 0.279904 0.912389 0.256052
H58   H     H_    0.345151 0.384158 0.871750 0.224807
N11   N     N_2   0.809732 0.198680 0.087571 -0.274299
H59   H     H_    0.732952 0.179742 0.104879 0.221043
C69   C     C_3   0.825122 0.162592 0.028658 -0.708124
H60   H     H_    0.755405 0.189995 0.001557 0.225834
H61   H     H_    0.828562 0.073217 0.026791 0.219416
H62   H     H_    0.903381 0.196187 0.009904 0.239360
N12   N     N_2   0.208851 0.738950 0.870107 -0.271714
H63   H     H_    0.271196 0.791402 0.882848 0.231594
C70   C     C_3   0.245921 0.664711 0.826688 -0.788790
H64   H     H_    0.318790 0.621049 0.843042 0.241464
H65   H     H_    0.269787 0.709930 0.786422 0.220062
H66   H     H_    0.179580 0.604085 0.816648 0.234611

loop_
_geom_bond_atom_site_label_1
_geom_bond_atom_site_label_2
_ccdc_geom_bond_type
C16   C28   A    
C66   H50   S    
C3    N9    S    
N12   H63   S    
O6    Zn2   S    
C5    C37   A    
C68   H57   S    
N4    H31   S    
C17   C29   A    
C2    O8    A    
N3    H27   S    
C16   H14   S    
C64   H42   S    
C19   C31   A    
C46   H18   S    
C69   H60   S    
C52   H8    S    
N7    H43   S    
C39   C41   S    
C29   C49   A    
N6    C64   S    
C60   H25   S    
C43   O13   A    
N5    H35   S    
C2    O2    A    
N9    C67   S    
N6    H39   S    
C67   H53   S    
N5    C63   S    
C21   C33   S    
C27   C47   A    
C66   H48   S    
C22   C38   S    
C1    O1    A    
C54   F2    S    
C66   H49   S    
C51   H7    S    
O1    Zn1   S    
C24   O6    A    
C32   C52   A    
N9    H51   S    
N1    C59   S    
O15   Zn4   S    
C38   C58   A    
C67   H52   S    
C11   C35   A    
C24   O4    A    
C4    C40   A    
C49   C51   A    
C1    C28   S    
C50   C52   A    
C6    C38   A    
C2    C27   S    
C42   O10   A    
C12   C36   A    
C35   C43   S    
C18   C20   A    
C65   H44   S    
C61   H30   S    
C45   C47   A    
C4    N10   S    
C30   C50   A    
O12   Zn3   S    
C3    C39   A    
N12   C70   S    
C68   H58   S    
C9    C33   A    
C13   N7    S    
C13   C25   A    
C69   H61   S    
N1    H19   S    
C70   H66   S    
C46   C48   A    
O9    Zn3   S    
C53   C55   A    
C33   C53   A    
C22   C34   S    
C60   H26   S    
C54   C56   A    
C68   H56   S    
C35   C55   A    
C10   C34   A    
C19   H15   S    
O3    Zn2   S    
N2    C60   S    
C67   H54   S    
C12   N12   S    
C5    C7    A    
C17   C19   A    
C6    C8    A    
C56   H10   S    
C48   N2    S    
C21   C29   S    
O16   Zn3   S    
C70   H65   S    
N8    C66   S    
C23   C31   S    
O13   Zn3   S    
C24   C32   S    
C36   C56   A    
C63   H38   S    
O5    Zn1   S    
C15   C27   A    
N11   H59   S    
C13   C15   A    
O10   Zn4   S    
O11   Zn4   S    
N11   C69   S    
C11   N11   S    
C20   H16   S    
N3    C61   S    
C14   C26   A    
C65   H45   S    
C62   H33   S    
C10   C12   A    
C15   H13   S    
C18   C30   A    
C3    C57   A    
C59   H21   S    
C34   C54   A    
C9    C11   A    
C63   H36   S    
C14   C16   A    
C36   C44   S    
N10   C68   S    
C64   H40   S    
C25   C45   A    
C70   H64   S    
C69   H62   S    
C44   O14   A    
C61   H28   S    
C20   C32   A    
C62   H34   S    
C53   F1    S    
N7    C65   S    
C21   C25   S    
C28   C48   A    
C22   C30   S    
C41   O15   A    
C23   O5    A    
C31   C51   A    
C64   H41   S    
C49   H1    S    
C7    H11   S    
C55   H9    S    
C62   H32   S    
O14   Zn4   S    
C1    O7    A    
C41   O9    A    
C60   H24   S    
C8    H12   S    
C47   N1    S    
C59   H20   S    
C45   H17   S    
C43   O11   A    
C6    H4    S    
N4    C62   S    
N10   H55   S    
C10   N6    S    
C50   H2    S    
N8    H47   S    
C17   H5    S    
O7    Zn2   S    
C18   H6    S    
C57   N3    S    
O2    Zn2   S    
C65   H46   S    
C40   C42   S    
C9    N5    S    
C42   O16   A    
O8    Zn1   S    
C58   N4    S    
C14   N8    S    
C26   C46   A    
C59   H22   S    
C21   C37   S    
C22   C26   S    
C4    C58   A    
N2    H23   S    
C63   H37   S    
C7    C39   A    
C8    C40   A    
C23   O3    A    
O4    Zn1   S    
C44   O12   A    
C37   C57   A    
C5    H3    S    
C61   H29   S    
