data_mof_unit_35605.cif
_audit_creation_date              2012-10-26T18:28:18-0400
_audit_creation_method            fapswitch 2.2
_symmetry_space_group_name_H-M    P1
_symmetry_Int_Tables_number       1
_space_group_crystal_system       triclinic
_cell_length_a                    27.813319
_cell_length_b                    10.90334
_cell_length_c                    9.825163
_cell_angle_alpha                 111.267623
_cell_angle_beta                  98.42006
_cell_angle_gamma                 90.858257
_cell_volume                      2739.20872524

loop_
_atom_site_label
_atom_site_type_symbol
_atom_type_description
_atom_site_fract_x
_atom_site_fract_y
_atom_site_fract_z
_atom_type_partial_charge
C1    C     C_R   0.496480 0.252813 0.440056 0.559301
C2    C     C_R   0.869364 0.377564 0.458802 -0.002556
C3    C     C_R   0.354581 0.499897 0.501894 0.013976
C4    C     C_R   0.645427 0.499963 0.498108 0.005800
C5    C     C_R   0.971281 0.378721 0.451562 -0.011278
C6    C     C_R   0.028729 0.621070 0.549000 -0.015659
C7    C     C_R   0.978372 0.620383 0.561755 0.010353
C8    C     C_R   0.021669 0.379399 0.439119 0.010384
C9    C     C_R   0.949454 0.499359 0.508371 0.029854
C10   C     C_R   0.050573 0.500462 0.492272 0.028076
C11   C     C_R   0.942618 0.260369 0.416441 -0.111800
C12   C     C_R   0.504436 0.747465 0.559977 0.550098
C13   C     C_R   0.057333 0.739441 0.583851 -0.108526
C14   C     C_R   0.892768 0.257506 0.420920 0.206063
C15   C     C_R   0.107177 0.742465 0.579204 0.263652
C16   C     C_R   0.407478 0.499981 0.500924 0.571865
C17   C     C_R   0.592525 0.499974 0.499069 0.537729
C18   C     C_R   0.043705 0.262395 0.369384 -0.103060
C19   C     C_R   0.956391 0.737328 0.632097 -0.102880
C20   C     C_2   0.495507 0.110748 0.406120 0.238017
C21   C     C_2   0.510172 0.889872 0.593385 0.216416
C22   C     C_2   0.522551 0.068136 0.502541 -0.105336
C23   C     C_R   0.101590 0.500884 0.488081 -0.088326
C24   C     C_2   0.520381 0.929687 0.485896 -0.098432
C25   C     C_2   0.504124 0.511153 0.081504 0.019668
C26   C     C_2   0.495844 0.488938 0.918521 0.028051
C27   C     C_R   0.174508 0.382954 0.438026 0.418521
C28   C     C_R   0.825544 0.616919 0.563060 0.423075
C29   C     C_R   0.181772 0.617695 0.552405 0.438391
C30   C     C_R   0.818225 0.382308 0.447100 0.418010
C31   C     C_R   0.272107 0.476651 0.369191 -0.037479
C32   C     C_R   0.727868 0.521648 0.630548 -0.045031
C33   C     C_R   0.322164 0.476683 0.369615 -0.111126
C34   C     C_R   0.898435 0.499007 0.512480 -0.084501
C35   C     C_R   0.677807 0.521601 0.630072 -0.124076
C36   C     C_R   0.335893 0.522956 0.633780 -0.118431
C37   C     C_R   0.664160 0.478432 0.366579 -0.128737
C38   C     C_R   0.285644 0.522999 0.633025 -0.039552
C39   C     C_R   0.714414 0.478403 0.367387 -0.038041
C40   C     C_R   0.253682 0.499833 0.500631 0.232432
C41   C     C_R   0.746334 0.500048 0.499479 0.234679
C42   C     C_R   0.123478 0.379661 0.430312 0.029314
C43   C     C_R   0.876581 0.620189 0.570795 0.030615
C44   C     C_R   0.093367 0.260649 0.365328 0.135809
C45   C     C_R   0.906738 0.739087 0.636383 0.141094
C46   C     C_R   0.130627 0.622407 0.541231 0.014273
Cu1   Cu    Cu3+1 0.508480 0.521810 0.644910 1.007426
Cu2   Cu    Cu3+1 0.491520 0.478190 0.355090 1.047583
H1    H     H_    0.360011 0.541093 0.737237 0.150135
H2    H     H_    0.335403 0.458529 0.266215 0.154112
H3    H     H_    0.752436 0.538167 0.732809 0.143796
H4    H     H_    0.247508 0.458927 0.266684 0.149748
H5    H     H_    0.958796 0.167459 0.390670 0.165827
H6    H     H_    0.041074 0.832235 0.609622 0.165818
H7    H     H_    0.022831 0.169263 0.311785 0.140229
H8    H     H_    0.977320 0.830336 0.690111 0.139178
H9    H     H_    0.524902 0.857796 0.378986 0.160767
H10   H     H_    0.545090 0.138002 0.600883 0.168678
H11   H     H_    0.514487 0.903499 0.922841 0.377821
H12   H     H_    0.640074 0.461553 0.263377 0.144039
H13   H     H_    0.405671 0.016619 0.065631 0.395001
H14   H     H_    0.848342 0.166836 0.615983 0.341068
H15   H     H_    0.189378 0.970388 0.509508 0.394421
H16   H     H_    0.467593 0.415272 0.845150 0.172674
H17   H     H_    0.532352 0.584886 0.154896 0.142817
H18   H     H_    0.547703 0.624155 0.935007 0.213173
H19   H     H_    0.452315 0.375786 0.064978 0.243815
H20   H     H_    0.271504 0.540865 0.734992 0.148436
H21   H     H_    0.728591 0.461751 0.265707 0.146363
H22   H     H_    0.664538 0.538488 0.733184 0.146364
I1    I     I_    0.115700 0.068933 0.248583 -0.120049
I2    I     I_    0.884483 0.930523 0.754427 -0.139934
N1    N     N_R   0.202014 0.500094 0.498649 -0.416971
N2    N     N_R   0.798002 0.499843 0.501547 -0.417543
N3    N     N_2   0.478780 0.445430 0.137360 -0.327127
N4    N     N_2   0.521220 0.554570 0.862640 -0.343863
O1    O     O_R   0.504520 0.332330 0.577400 -0.517006
O2    O     O_2   0.802866 0.729080 0.612708 -0.413707
O3    O     O_2   0.788369 0.271810 0.378653 -0.377099
O4    O     O_2   0.211633 0.728304 0.619548 -0.380516
O5    O     O_2   0.549148 0.085003 0.846970 -0.302320
O6    O     O_2   0.463960 0.095531 0.749676 -0.245215
O7    O     O_3   0.483920 0.926459 0.874995 -0.434742
O8    O     O_2   0.482502 0.895882 0.155535 -0.309330
O9    O     O_2   0.416921 0.939827 0.303970 -0.247957
O10   O     O_3   0.427201 0.084556 0.149029 -0.460346
O11   O     O_2   0.832919 0.048385 0.240501 -0.160299
O12   O     O_R   0.495480 0.667670 0.422600 -0.513267
O13   O     O_2   0.900064 0.003754 0.401757 -0.270548
O14   O     O_3   0.827380 0.117444 0.519944 -0.417834
O15   O     O_2   0.099688 0.996553 0.601270 -0.277082
O16   O     O_2   0.167449 0.950601 0.760215 -0.200172
O17   O     O_3   0.171760 0.882624 0.479331 -0.450904
O18   O     O_R   0.490210 0.295500 0.332650 -0.422910
O19   O     O_R   0.509790 0.704500 0.667350 -0.466643
O20   O     O_R   0.437420 0.518430 0.622370 -0.492530
O21   O     O_R   0.562580 0.481570 0.377630 -0.508848
O22   O     O_R   0.423110 0.481600 0.377610 -0.484049
O23   O     O_R   0.576890 0.518400 0.622390 -0.504616
O24   O     O_2   0.197219 0.270754 0.389214 -0.428239
S1    S     S_3+6 0.501988 0.004287 0.769623 0.039976
S2    S     S_3+6 0.454878 0.002320 0.250278 0.048269
S3    S     S_3+6 0.863398 0.101427 0.391944 0.091993
S4    S     S_3+6 0.136530 0.898824 0.609354 0.081456

loop_
_geom_bond_atom_site_label_1
_geom_bond_atom_site_label_2
_ccdc_geom_bond_type
C19   H8    S    
C1    O1    A    
C31   H4    S    
C28   N2    A    
C39   C41   A    
O5    S1    D    
C31   C40   A    
Cu2   O21   S    
C23   C42   A    
Cu2   O18   S    
H11   O7    S    
Cu1   N4    S    
C5    C11   A    
C30   N2    A    
C11   C14   A    
C29   N1    A    
C3    C33   A    
Cu1   O23   S    
C40   N1    S    
C44   I1    S    
C26   H16   S    
C41   N2    S    
C35   H22   S    
C1    O18   A    
C26   N4    D    
Cu1   O20   S    
Cu2   O12   S    
C12   O19   A    
C15   S4    S    
C28   O2    S    
O15   S4    D    
C11   H5    S    
O8    S2    D    
C21   S1    S    
C2    C34   A    
C4    C35   A    
C23   C46   A    
O13   S3    D    
C45   I2    S    
Cu2   N3    S    
C42   C44   A    
O17   S4    S    
C27   O24   S    
C16   O20   A    
C12   O12   A    
C32   C35   A    
C25   H17   S    
H13   O10   S    
O16   S4    D    
C24   H9    S    
C33   H2    S    
C12   C21   S    
O9    S2    D    
C8    C18   A    
C25   N3    D    
C32   H3    S    
C5    C9    A    
C18   C44   A    
C43   C45   A    
Cu1   Cu2   S    
C32   C41   A    
H18   N4    S    
C31   C33   A    
C39   H21   S    
C17   O23   A    
C18   H7    S    
O11   S3    D    
C30   O3    S    
C38   H20   S    
C7    C19   A    
C13   C15   A    
C9    C34   A    
C22   C24   S    
H19   N3    S    
C4    C17   S    
O10   S2    S    
C13   H6    S    
C7    C9    A    
C1    C20   S    
Cu1   O19   S    
O7    S1    S    
C34   C43   A    
C20   C22   D    
C22   H10   S    
C5    C8    A    
C19   C45   A    
C6    C7    A    
C10   C23   A    
Cu2   O22   S    
H15   O17   S    
C28   C43   A    
C29   C46   A    
C2    C30   A    
C36   C38   A    
C25   C26   S    
C37   C39   A    
C6    C13   A    
C38   C40   A    
C27   C42   A    
C16   O22   A    
C14   S3    S    
C29   O4    S    
C3    C36   A    
H14   O14   S    
O6    S1    D    
C2    C14   A    
O14   S3    S    
C37   H12   S    
C6    C10   A    
C3    C16   S    
C20   S2    S    
C4    C37   A    
C8    C10   A    
C21   C24   D    
Cu1   O1    S    
C15   C46   A    
C27   N1    A    
C17   O21   A    
C36   H1    S    
