data_mof_unit_63720.cif
_audit_creation_date              2012-12-10T17:28:33-0500
_audit_creation_method            fapswitch 2.2
_symmetry_space_group_name_H-M    P1
_symmetry_Int_Tables_number       1
_space_group_crystal_system       triclinic
_cell_length_a                    29.409363
_cell_length_b                    29.409309
_cell_length_c                    55.799906
_cell_angle_alpha                 90.043551
_cell_angle_beta                  89.999785
_cell_angle_gamma                 89.960882
_cell_volume                      48261.8181609

loop_
_atom_site_label
_atom_site_type_symbol
_atom_type_description
_atom_site_fract_x
_atom_site_fract_y
_atom_site_fract_z
_atom_type_partial_charge
C1    C     C_R   0.085529 0.499987 0.500001 0.828255
C2    C     C_R   0.499986 0.085529 0.500000 0.826946
C3    C     C_R   0.914470 0.500013 0.500001 0.828251
C4    C     C_R   0.500014 0.914471 0.500000 0.826960
C5    C     C_R   0.585529 0.999986 0.000000 0.826977
C6    C     C_R   0.999987 0.585529 0.000001 0.826839
C7    C     C_R   0.414471 0.000013 0.000000 0.826960
C8    C     C_R   0.000013 0.414471 0.999998 0.828836
C9    C     C_R   0.500000 0.584712 0.500008 0.799123
C10   C     C_R   0.415288 0.500000 0.500000 0.799113
C11   C     C_R   0.500000 0.415288 0.499992 0.799109
C12   C     C_R   0.584712 0.500000 0.500000 0.799115
C13   C     C_R   0.000000 0.084712 0.000008 0.799009
C14   C     C_R   0.915288 1.000000 0.000000 0.799063
C15   C     C_R   1.000000 0.915288 0.999992 0.799122
C16   C     C_R   0.084712 0.000000 1.000000 0.799064
C17   C     C_R   0.000001 0.457200 0.389330 0.181182
C18   C     C_R   0.462504 0.982580 0.389223 0.189420
C19   C     C_R   0.000007 0.539862 0.388729 0.187433
C20   C     C_R   0.537504 0.017482 0.389244 0.189385
C21   C     C_R   0.017456 0.537591 0.610770 0.189485
C22   C     C_R   0.537519 0.982502 0.610756 0.189446
C23   C     C_R   0.982556 0.462590 0.610764 0.189410
C24   C     C_R   0.462487 0.017436 0.610777 0.189470
C25   C     C_R   0.517473 0.962393 0.889230 0.189492
C26   C     C_R   0.037505 0.517482 0.889244 0.189429
C27   C     C_R   0.482538 0.037426 0.889237 0.189423
C28   C     C_R   0.962503 0.482582 0.889223 0.189469
C29   C     C_R   0.517455 0.037591 0.110770 0.189468
C30   C     C_R   0.040781 0.510389 0.110815 0.227916
C31   C     C_R   0.482557 0.962589 0.110764 0.189377
C32   C     C_R   0.959198 0.510385 0.110814 0.227981
C33   C     C_R   0.999999 0.458038 0.414345 -0.226200
C34   C     C_R   0.462433 0.983171 0.414255 -0.229531
C35   C     C_R   0.000005 0.540409 0.413792 -0.229406
C36   C     C_R   0.537572 0.016864 0.414275 -0.229488
C37   C     C_R   0.016845 0.537634 0.585738 -0.229517
C38   C     C_R   0.537587 0.983120 0.585725 -0.229434
C39   C     C_R   0.983153 0.462495 0.585732 -0.229434
C40   C     C_R   0.462416 0.016845 0.585745 -0.229452
C41   C     C_R   0.516862 0.962350 0.914262 -0.229471
C42   C     C_R   0.037572 0.516864 0.914275 -0.229425
C43   C     C_R   0.483136 0.037521 0.914268 -0.229430
C44   C     C_R   0.962433 0.483172 0.914255 -0.229480
C45   C     C_R   0.516844 0.037635 0.085738 -0.229561
C46   C     C_R   0.040872 0.506922 0.085816 -0.233654
C47   C     C_R   0.483154 0.962494 0.085732 -0.229425
C48   C     C_R   0.959114 0.506917 0.085815 -0.233544
C49   C     C_R   0.000001 0.499550 0.426792 -0.124042
C50   C     C_R   0.500002 0.000010 0.426925 -0.119855
C51   C     C_R   0.999998 0.500050 0.573075 -0.119796
C52   C     C_R   0.500001 0.999990 0.573075 -0.119829
C53   C     C_R   0.499997 0.999950 0.926925 -0.119827
C54   C     C_R   0.000002 0.500010 0.926925 -0.119806
C55   C     C_R   0.499998 0.000050 0.073075 -0.119838
C56   C     C_R   0.999997 0.502374 0.073189 -0.134719
C57   C     C_R   0.000005 0.498163 0.376371 0.261270
C58   C     C_R   0.500005 0.000038 0.376543 0.254794
C59   C     C_R   0.000012 0.500102 0.623457 0.254851
C60   C     C_R   0.500004 0.999962 0.623457 0.254827
C61   C     C_R   0.500011 0.999898 0.876543 0.254836
C62   C     C_R   0.000005 0.500039 0.876543 0.254846
C63   C     C_R   0.500012 0.000102 0.123457 0.254861
C64   C     C_R   0.999995 0.501918 0.123809 0.174747
C65   C     C_1   0.136637 0.499965 0.500002 -0.183536
C66   C     C_1   0.499963 0.136637 0.499994 -0.183715
C67   C     C_1   0.863363 0.500035 0.500002 -0.183540
C68   C     C_1   0.500036 0.863363 0.500005 -0.183687
C69   C     C_1   0.636637 0.999964 0.000000 -0.183690
C70   C     C_1   0.999965 0.636636 0.999997 -0.183183
C71   C     C_1   0.363363 0.000036 0.000000 -0.183704
C72   C     C_1   0.000035 0.363363 0.000001 -0.184241
C73   C     C_1   0.179001 0.499962 0.500002 0.022524
C74   C     C_1   0.499960 0.179001 0.499989 0.022256
C75   C     C_1   0.820999 0.500038 0.500002 0.022521
C76   C     C_1   0.500040 0.820999 0.500011 0.022292
C77   C     C_1   0.679001 0.999960 0.000000 0.022305
C78   C     C_1   0.999962 0.679000 0.999993 0.022535
C79   C     C_1   0.320999 0.000040 1.000000 0.022292
C80   C     C_1   0.000038 0.320999 0.000005 0.021868
C81   C     C_1   0.229225 0.499967 0.500002 0.023526
C82   C     C_1   0.499965 0.229225 0.499983 0.023381
C83   C     C_1   0.770775 0.500033 0.500002 0.023525
C84   C     C_1   0.500035 0.770775 0.500016 0.023422
C85   C     C_1   0.729225 0.999965 0.000000 0.023451
C86   C     C_1   0.999967 0.729225 0.999987 0.023657
C87   C     C_1   0.270775 0.000035 1.000000 0.023442
C88   C     C_1   0.000033 0.270774 0.000012 0.022942
C89   C     C_1   0.271590 0.499974 0.500001 0.021163
C90   C     C_1   0.499972 0.271589 0.499979 0.021088
C91   C     C_1   0.728410 0.500026 0.500001 0.021162
C92   C     C_1   0.500028 0.728411 0.500021 0.021131
C93   C     C_1   0.771589 0.999972 0.000000 0.021171
C94   C     C_1   0.999974 0.771589 0.999982 0.021364
C95   C     C_1   0.228410 0.000028 1.000000 0.021165
C96   C     C_1   0.000026 0.228410 0.000017 0.020732
C97   C     C_1   0.321815 0.499984 0.500001 0.017961
C98   C     C_1   0.499982 0.321814 0.499976 0.017914
C99   C     C_1   0.678185 0.500016 0.500001 0.017961
C100  C     C_1   0.500018 0.678185 0.500023 0.017956
C101  C     C_1   0.821814 0.999982 0.000000 0.018009
C102  C     C_1   0.999984 0.821814 0.999978 0.018172
C103  C     C_1   0.178186 0.000018 1.000000 0.018005
C104  C     C_1   0.000016 0.178185 0.000022 0.017695
C105  C     C_R   0.000000 0.499945 0.453237 0.853618
C106  C     C_R   0.500000 0.999999 0.453284 0.851610
C107  C     C_R   0.999999 0.500016 0.546716 0.851591
C108  C     C_R   0.500000 0.000001 0.546716 0.851628
C109  C     C_R   0.499999 0.999984 0.953284 0.851633
C110  C     C_R   0.000000 0.499999 0.953284 0.851623
C111  C     C_R   0.499999 0.000016 0.046716 0.851634
C112  C     C_R   0.999999 0.500454 0.046760 0.857195
C113  C     C_1   0.364179 0.499992 0.500000 -0.175498
C114  C     C_1   0.499991 0.364179 0.499979 -0.175525
C115  C     C_1   0.635821 0.500008 0.500000 -0.175497
C116  C     C_1   0.500009 0.635821 0.500021 -0.175488
C117  C     C_1   0.864179 0.999991 0.000000 -0.175416
C118  C     C_1   0.999992 0.864179 0.999979 -0.175278
C119  C     C_1   0.135821 0.000009 1.000000 -0.175418
C120  C     C_1   0.000008 0.135821 0.000021 -0.175627
C121  C     C_R   0.042062 0.486830 0.262641 0.042809
C122  C     C_R   0.471462 0.030852 0.262729 0.042539
C123  C     C_R   0.957959 0.486865 0.262641 0.042813
C124  C     C_R   0.528604 0.969349 0.262699 0.042470
C125  C     C_R   0.030790 0.471543 0.737272 0.042406
C126  C     C_R   0.471483 0.969167 0.737271 0.042403
C127  C     C_R   0.969286 0.528682 0.737299 0.042404
C128  C     C_R   0.528580 0.030633 0.737301 0.042405
C129  C     C_R   0.530770 0.028437 0.762727 0.042407
C130  C     C_R   0.971463 0.530853 0.762729 0.042403
C131  C     C_R   0.469304 0.971340 0.762701 0.042402
C132  C     C_R   0.028603 0.469349 0.762699 0.042406
C133  C     C_R   0.530791 0.971543 0.237272 0.042446
C134  C     C_R   0.957973 0.483254 0.237190 0.042135
C135  C     C_R   0.469285 0.028681 0.237299 0.042521
C136  C     C_R   0.042051 0.483233 0.237189 0.042203
C137  C     C_R   0.000010 0.488565 0.275211 0.074971
C138  C     C_R   0.500030 0.000093 0.275314 0.076101
C139  C     C_R   0.000039 0.500117 0.724686 0.076094
C140  C     C_R   0.500029 0.999907 0.724686 0.076095
C141  C     C_R   0.500038 0.999884 0.775314 0.076095
C142  C     C_R   0.000030 0.500094 0.775314 0.076094
C143  C     C_R   0.500039 0.000117 0.224686 0.076101
C144  C     C_R   0.000011 0.482833 0.224629 0.075650
C145  C     C_R   0.082828 0.489320 0.276097 -0.188854
C146  C     C_R   0.446309 0.063099 0.276114 -0.190896
C147  C     C_R   0.917192 0.489405 0.276096 -0.188806
C148  C     C_R   0.553751 0.937087 0.276052 -0.190718
C149  C     C_R   0.063047 0.446399 0.723892 -0.190772
C150  C     C_R   0.446354 0.936936 0.723886 -0.190769
C151  C     C_R   0.937034 0.553838 0.723942 -0.190765
C152  C     C_R   0.553703 0.062879 0.723947 -0.190770
C153  C     C_R   0.563011 0.053556 0.776108 -0.190775
C154  C     C_R   0.946311 0.563101 0.776114 -0.190767
C155  C     C_R   0.437068 0.946207 0.776058 -0.190765
C156  C     C_R   0.053749 0.437087 0.776053 -0.190768
C157  C     C_R   0.563048 0.946401 0.223891 -0.190745
C158  C     C_R   0.917317 0.479155 0.223696 -0.189967
C159  C     C_R   0.437032 0.053837 0.223942 -0.190883
C160  C     C_R   0.082709 0.479130 0.223693 -0.190017
C161  C     C_R   0.082334 0.492421 0.300943 -0.126290
C162  C     C_R   0.447771 0.063795 0.301019 -0.124671
C163  C     C_R   0.917683 0.492510 0.300942 -0.126261
C164  C     C_R   0.552275 0.936363 0.300956 -0.124482
C165  C     C_R   0.063758 0.447875 0.698988 -0.124455
C166  C     C_R   0.447817 0.936238 0.698981 -0.124457
C167  C     C_R   0.936324 0.552375 0.699037 -0.124461
C168  C     C_R   0.552226 0.063604 0.699044 -0.124454
C169  C     C_R   0.563723 0.052080 0.801012 -0.124459
C170  C     C_R   0.947773 0.563797 0.801019 -0.124453
C171  C     C_R   0.436357 0.947671 0.800963 -0.124456
C172  C     C_R   0.052273 0.436363 0.800956 -0.124462
C173  C     C_R   0.563759 0.947876 0.198988 -0.124452
C174  C     C_R   0.917994 0.476432 0.198810 -0.121127
C175  C     C_R   0.436323 0.052374 0.199037 -0.124690
C176  C     C_R   0.082033 0.476412 0.198807 -0.121290
C177  C     C_R   0.041279 0.493549 0.313464 -0.025796
C178  C     C_R   0.474006 0.032172 0.313583 -0.025793
C179  C     C_R   0.958737 0.493594 0.313464 -0.025811
C180  C     C_R   0.526032 0.967972 0.313551 -0.025898
C181  C     C_R   0.032139 0.474114 0.686421 -0.025956
C182  C     C_R   0.474029 0.967845 0.686417 -0.025964
C183  C     C_R   0.967939 0.526138 0.686445 -0.025967
C184  C     C_R   0.526006 0.032012 0.686449 -0.025963
C185  C     C_R   0.532122 0.025863 0.813579 -0.025954
C186  C     C_R   0.974007 0.532173 0.813583 -0.025969
C187  C     C_R   0.467954 0.973886 0.813555 -0.025973
C188  C     C_R   0.026031 0.467972 0.813551 -0.025956
C189  C     C_R   0.532140 0.974114 0.186421 -0.025932
C190  C     C_R   0.959059 0.478472 0.186339 -0.031196
C191  C     C_R   0.467938 0.026137 0.186445 -0.025794
C192  C     C_R   0.040964 0.478462 0.186337 -0.031093
C193  C     C_R   0.000009 0.491915 0.300686 -0.039083
C194  C     C_R   0.500023 0.000079 0.300800 -0.040989
C195  C     C_R   0.000039 0.500123 0.699200 -0.041020
C196  C     C_R   0.500021 0.999921 0.699200 -0.041022
C197  C     C_R   0.500039 0.999877 0.800800 -0.041022
C198  C     C_R   0.000023 0.500080 0.800800 -0.041020
C199  C     C_R   0.500039 0.000123 0.199200 -0.040991
C200  C     C_R   0.000011 0.481137 0.199153 -0.044512
C201  C     C_R   0.040526 0.496217 0.338618 0.595002
C202  C     C_R   0.475074 0.032039 0.338759 0.594348
C203  C     C_R   0.959487 0.496262 0.338617 0.595002
C204  C     C_R   0.524949 0.968076 0.338727 0.594426
C205  C     C_R   0.032016 0.475188 0.661245 0.594419
C206  C     C_R   0.475097 0.967976 0.661241 0.594423
C207  C     C_R   0.968052 0.525062 0.661268 0.594433
C208  C     C_R   0.524924 0.031910 0.661273 0.594422
C209  C     C_R   0.532000 0.024788 0.838754 0.594415
C210  C     C_R   0.975075 0.532040 0.838759 0.594433
C211  C     C_R   0.468066 0.974962 0.838732 0.594430
C212  C     C_R   0.024949 0.468076 0.838727 0.594417
C213  C     C_R   0.532016 0.975188 0.161245 0.594420
C214  C     C_R   0.960350 0.477230 0.161144 0.589396
C215  C     C_R   0.468051 0.025061 0.161268 0.594411
C216  C     C_R   0.039672 0.477222 0.161143 0.589363
Cu1   Cu    Cu3+1 1.000000 0.457560 0.500000 0.994594
Cu2   Cu    Cu3+1 0.542440 1.000000 0.500000 0.995583
Cu3   Cu    Cu3+1 1.000000 0.542440 0.500000 0.994759
Cu4   Cu    Cu3+1 0.457560 1.000000 0.500000 0.995579
Cu5   Cu    Cu3+1 0.500000 0.957560 0.000000 0.995690
Cu6   Cu    Cu3+1 0.042440 0.500000 0.000000 0.994930
Cu7   Cu    Cu3+1 0.500000 0.042440 0.000000 0.995345
Cu8   Cu    Cu3+1 0.957560 0.500000 0.000000 0.994955
Cu9   Cu    Cu3+1 0.500000 0.500000 0.476130 0.993039
Cu10  Cu    Cu3+1 0.500000 0.500000 0.523870 0.993579
Cu11  Cu    Cu3+1 0.000000 1.000000 0.976130 0.993591
Cu12  Cu    Cu3+1 0.000000 1.000000 0.023870 0.993604
H1    H     H_    0.116056 0.489427 0.268043 0.145173
H2    H     H_    0.425987 0.089216 0.267834 0.146465
H3    H     H_    0.883965 0.489556 0.268040 0.145184
H4    H     H_    0.574077 0.910979 0.267746 0.146662
H5    H     H_    0.089161 0.426075 0.732175 0.146786
H6    H     H_    0.426051 0.910831 0.732166 0.146785
H7    H     H_    0.910921 0.574161 0.732244 0.146787
H8    H     H_    0.574010 0.088974 0.732254 0.146787
H9    H     H_    0.589112 0.073862 0.767824 0.146786
H10   H     H_    0.925989 0.589218 0.767834 0.146786
H11   H     H_    0.410969 0.925903 0.767756 0.146787
H12   H     H_    0.074075 0.410978 0.767746 0.146786
H13   H     H_    0.589163 0.926077 0.232175 0.146711
H14   H     H_    0.884125 0.477425 0.231738 0.145576
H15   H     H_    0.410919 0.074158 0.232244 0.146548
H16   H     H_    0.115906 0.477399 0.231733 0.145451
H17   H     H_    0.114548 0.494037 0.310327 0.191421
H18   H     H_    0.427947 0.089252 0.310410 0.191754
H19   H     H_    0.885468 0.494166 0.310325 0.191427
H20   H     H_    0.572093 0.910896 0.310322 0.191883
H21   H     H_    0.089221 0.428057 0.689601 0.191994
H22   H     H_    0.428013 0.910793 0.689590 0.191994
H23   H     H_    0.910861 0.572199 0.689668 0.191994
H24   H     H_    0.572026 0.089060 0.689678 0.191996
H25   H     H_    0.589174 0.071879 0.810399 0.191990
H26   H     H_    0.927950 0.589255 0.810410 0.191997
H27   H     H_    0.410907 0.927866 0.810332 0.191997
H28   H     H_    0.072091 0.410894 0.810322 0.191992
H29   H     H_    0.589223 0.928059 0.189601 0.191942
H30   H     H_    0.885958 0.473709 0.189325 0.194266
H31   H     H_    0.410860 0.072196 0.189668 0.191755
H32   H     H_    0.114071 0.473685 0.189321 0.194163
H33   H     H_    0.999997 0.426137 0.424024 0.186207
H34   H     H_    0.433359 0.969680 0.423803 0.181559
H35   H     H_    0.000007 0.572769 0.423063 0.185275
H36   H     H_    0.566644 0.030345 0.423838 0.181570
H37   H     H_    0.030329 0.566697 0.576184 0.181512
H38   H     H_    0.566672 0.969626 0.576161 0.181546
H39   H     H_    0.969666 0.433411 0.576175 0.181539
H40   H     H_    0.433331 0.030349 0.576197 0.181533
H41   H     H_    0.530358 0.933275 0.923816 0.181537
H42   H     H_    0.066644 0.530344 0.923838 0.181558
H43   H     H_    0.469636 0.066616 0.923826 0.181530
H44   H     H_    0.933359 0.469681 0.923803 0.181516
H45   H     H_    0.530327 0.066698 0.076184 0.181509
H46   H     H_    0.072489 0.511621 0.076178 0.187671
H47   H     H_    0.469667 0.933411 0.076175 0.181590
H48   H     H_    0.927492 0.511613 0.076176 0.187682
N1    N     N_R   0.000006 0.497252 0.350628 -0.453682
N2    N     N_R   0.500008 0.000050 0.350780 -0.453979
N3    N     N_R   0.000029 0.500121 0.649220 -0.453989
N4    N     N_R   0.500007 0.999950 0.649220 -0.453991
N5    N     N_R   0.500029 0.999879 0.850780 -0.453989
N6    N     N_R   0.000009 0.500051 0.850780 -0.453991
N7    N     N_R   0.500029 0.000121 0.149221 -0.453974
N8    N     N_R   0.000004 0.487112 0.149091 -0.444207
O1    O     O_R   0.061950 0.464160 0.500020 -0.559329
O2    O     O_R   0.535840 0.061950 0.500020 -0.560782
O3    O     O_R   0.938050 0.535840 0.500020 -0.559351
O4    O     O_R   0.464160 0.938050 0.500020 -0.560770
O5    O     O_R   0.061950 0.535840 0.499980 -0.561918
O6    O     O_R   0.535840 0.938050 0.499980 -0.560836
O7    O     O_R   0.938050 0.464160 0.499980 -0.561902
O8    O     O_R   0.464160 0.061950 0.499980 -0.560836
O9    O     O_R   0.561950 0.964160 0.000020 -0.560783
O10   O     O_R   0.035840 0.561950 0.000020 -0.562323
O11   O     O_R   0.438050 0.035840 0.000020 -0.560902
O12   O     O_R   0.964160 0.438050 0.000020 -0.561571
O13   O     O_R   0.561950 0.035840 0.999980 -0.560832
O14   O     O_R   0.035840 0.438050 0.999980 -0.559008
O15   O     O_R   0.438050 0.964160 0.999980 -0.560729
O16   O     O_R   0.964160 0.561950 0.999980 -0.559739
O17   O     O_R   0.999990 0.464160 0.465150 -0.579779
O18   O     O_R   0.535840 0.999990 0.465150 -0.577126
O19   O     O_R   0.000010 0.535840 0.465150 -0.578815
O20   O     O_R   0.464160 0.000010 0.465150 -0.577127
O21   O     O_R   0.999990 0.535840 0.534850 -0.577187
O22   O     O_R   0.535840 0.000010 0.534850 -0.577121
O23   O     O_R   0.000010 0.464160 0.534850 -0.577139
O24   O     O_R   0.464160 0.999990 0.534850 -0.577115
O25   O     O_R   0.499990 0.964160 0.965150 -0.577110
O26   O     O_R   0.035840 0.499990 0.965150 -0.577150
O27   O     O_R   0.500010 0.035840 0.965150 -0.577131
O28   O     O_R   0.964160 0.500010 0.965150 -0.577129
O29   O     O_R   0.499990 0.035840 0.034850 -0.577205
O30   O     O_R   0.035840 0.500010 0.034850 -0.579000
O31   O     O_R   0.500010 0.964160 0.034850 -0.577076
O32   O     O_R   0.964160 0.499990 0.034850 -0.578992
O33   O     O_2   0.079918 0.497522 0.351004 -0.514044
O34   O     O_2   0.451316 0.063512 0.351153 -0.512837
O35   O     O_2   0.920094 0.497612 0.351002 -0.514047
O36   O     O_2   0.548700 0.936588 0.351089 -0.512682
O37   O     O_2   0.063494 0.451434 0.648856 -0.512592
O38   O     O_2   0.451364 0.936517 0.648847 -0.512582
O39   O     O_2   0.936569 0.548815 0.648901 -0.512583
O40   O     O_2   0.548650 0.063383 0.648910 -0.512579
O41   O     O_2   0.563464 0.048518 0.851144 -0.512600
O42   O     O_2   0.951318 0.563514 0.851153 -0.512565
O43   O     O_2   0.436598 0.951233 0.851099 -0.512566
O44   O     O_2   0.048699 0.436588 0.851089 -0.512598
O45   O     O_2   0.563495 0.951435 0.148856 -0.512613
O46   O     O_2   0.923339 0.462633 0.149198 -0.508077
O47   O     O_2   0.436567 0.048814 0.148901 -0.512830
O48   O     O_2   0.076699 0.462619 0.149194 -0.508370
O49   O     O_R   0.500000 0.562000 0.479850 -0.554384
O50   O     O_R   0.438000 0.500000 0.479850 -0.554409
O51   O     O_R   0.500000 0.438000 0.479850 -0.554452
O52   O     O_R   0.562000 0.500000 0.479850 -0.554409
O53   O     O_R   0.500000 0.438000 0.520150 -0.554261
O54   O     O_R   0.438000 0.500000 0.520150 -0.554287
O55   O     O_R   0.500000 0.562000 0.520150 -0.554302
O56   O     O_R   0.562000 0.500000 0.520150 -0.554287
O57   O     O_R   1.000000 0.062000 0.979850 -0.554267
O58   O     O_R   0.938000 1.000000 0.979850 -0.554320
O59   O     O_R   1.000000 0.938000 0.979850 -0.554351
O60   O     O_R   0.062000 1.000000 0.979850 -0.554320
O61   O     O_R   1.000000 0.938000 0.020150 -0.554185
O62   O     O_R   0.938000 1.000000 0.020150 -0.554308
O63   O     O_R   1.000000 0.062000 0.020150 -0.554487
O64   O     O_R   0.062000 1.000000 0.020150 -0.554310
I1    I     I_    1.000000 0.393293 0.371775 -0.281706
I2    I     I_    0.405777 0.953874 0.371349 -0.276557
I3    I     I_    0.000010 0.602653 0.370176 -0.274678
I4    I     I_    0.594234 0.046209 0.371404 -0.276990
I5    I     I_    0.046177 0.594337 0.628631 -0.277267
I6    I     I_    0.594275 0.953748 0.628595 -0.277241
I7    I     I_    0.953846 0.405878 0.628616 -0.277312
I8    I     I_    0.405734 0.046169 0.628650 -0.277212
I9    I     I_    0.546222 0.905621 0.871369 -0.277156
I10   I     I_    0.094235 0.546208 0.871404 -0.277248
I11   I     I_    0.453801 0.094163 0.871385 -0.277361
I12   I     I_    0.905776 0.453877 0.871349 -0.277291
I13   I     I_    0.546175 0.094338 0.128631 -0.277839
I14   I     I_    0.095410 0.550183 0.124878 -0.268945
I15   I     I_    0.453848 0.905877 0.128616 -0.276449
I16   I     I_    0.904515 0.550187 0.124873 -0.269813

loop_
_geom_bond_atom_site_label_1
_geom_bond_atom_site_label_2
_ccdc_geom_bond_type
C15   O61   A    
C160  C176  A    
C163  H19   S    
Cu7   O27   S    
C79   C87   S    
C212  O44   S    
C46   H46   S    
C177  C193  A    
C124  C133  A    
C21   C59   A    
C207  O39   S    
C30   C64   A    
C22   C60   A    
C39   H39   S    
C98   C114  T    
C22   C38   A    
C154  C170  A    
C205  O37   S    
C147  H3    S    
C158  C174  A    
Cu6   O30   S    
Cu7   O11   S    
Cu8   O12   S    
C38   H38   S    
C215  N7    A    
Cu10  O55   S    
Cu2   O18   S    
C43   H43   S    
C44   H44   S    
C12   C115  S    
Cu4   O8    S    
Cu5   O9    S    
C25   I9    S    
C141  C197  A    
C73   C81   S    
C139  C195  A    
C155  H11   S    
C208  O40   S    
C135  C159  A    
C123  C134  A    
C25   C41   A    
C16   O60   A    
C34   H34   S    
C122  C146  A    
C150  H6    S    
C28   C44   A    
C29   C45   A    
C61   N5    S    
C173  H29   S    
C169  H25   S    
Cu7   O13   S    
Cu11  Cu12  S    
C144  C200  A    
C188  C198  A    
C109  O27   A    
C1    O5    A    
C105  O17   A    
C11   O53   A    
Cu1   O1    S    
C10   C113  S    
C125  C149  A    
Cu2   O6    S    
Cu5   O31   S    
C187  C211  A    
Cu12  O61   S    
C96   C104  S    
C185  C209  A    
C161  C177  A    
C36   C50   A    
C206  O38   S    
C53   C109  S    
C172  H28   S    
C178  C194  A    
C55   C111  S    
C9    C116  S    
C184  C208  A    
C16   O64   A    
C152  H8    S    
C83   C91   T    
C15   C118  S    
C213  O45   S    
C80   C88   S    
C19   C35   A    
C209  O41   S    
C188  C212  A    
C145  C161  A    
C151  C167  A    
C29   C63   A    
C192  C200  A    
Cu10  O53   S    
C149  H5    S    
C111  O29   A    
C108  O24   A    
C51   C107  S    
C185  C197  A    
C127  C139  A    
C42   C54   A    
C39   C51   A    
C125  C139  A    
C183  C207  A    
C69   C77   T    
C166  C182  A    
C48   C56   A    
C128  C129  A    
C71   C79   T    
C23   C59   A    
C166  H22   S    
C192  C216  A    
C18   I2    S    
C66   C74   T    
C209  N5    A    
Cu7   O29   S    
C158  H14   S    
C121  C137  A    
C106  O20   A    
Cu4   O24   S    
C127  C151  A    
Cu5   O25   S    
C128  C152  A    
Cu12  O63   S    
C87   C95   T    
C35   C49   A    
C1    C65   S    
C41   H41   S    
C211  N5    A    
Cu9   O50   S    
C131  C141  A    
C201  N1    A    
C189  C199  A    
C135  C143  A    
C77   C85   S    
C179  C193  A    
C95   C103  S    
C18   C34   A    
C148  C164  A    
C31   C63   A    
C149  C165  A    
C32   C64   A    
C65   C73   T    
C4    C68   S    
Cu6   O26   S    
C156  C172  A    
C160  H16   S    
C182  C206  A    
C42   H42   S    
C23   I7    S    
Cu2   O22   S    
C161  H17   S    
C190  C214  A    
C27   I11   S    
C64   N8    S    
Cu2   Cu4   S    
C14   C117  S    
C151  H7    S    
C205  N3    A    
C206  N4    A    
C130  C154  A    
C216  O48   S    
Cu6   Cu8   S    
C41   C53   A    
C189  C213  A    
C48   H48   S    
C134  C158  A    
C179  C203  A    
C163  C179  A    
C177  C201  A    
C67   C75   T    
Cu11  O60   S    
C153  C169  A    
C13   C120  S    
C26   C42   A    
C145  H1    S    
C30   C46   A    
C2    C66   S    
C174  H30   S    
C68   C76   T    
C154  H10   S    
Cu3   O3    S    
Cu4   O4    S    
C128  C140  A    
C167  H23   S    
C72   C80   T    
C147  C163  A    
C30   I14   S    
C129  C153  A    
C126  C150  A    
C45   H45   S    
C132  C156  A    
C133  C157  A    
Cu9   O52   S    
C130  C142  A    
C175  C191  A    
C4    O6    A    
C162  C178  A    
C108  O22   A    
C136  C160  A    
C44   C54   A    
C45   C55   A    
C46   C56   A    
C84   C92   T    
C91   C99   S    
Cu10  O56   S    
C10   O54   A    
C28   C62   A    
C88   C96   T    
C112  O32   A    
C59   N3    S    
C28   I12   S    
C100  C116  T    
Cu1   O17   S    
C76   C84   S    
C1    O1    A    
C190  C200  A    
C9    O49   A    
C19   C57   A    
C3    O3    A    
C146  C162  A    
C11   O51   A    
C9    O55   A    
C216  N8    A    
C124  C138  A    
C99   C115  T    
C129  C141  A    
C33   C49   A    
Cu11  O59   S    
C33   H33   S    
C15   O59   A    
C35   H35   S    
C5    O13   A    
C5    C69   S    
C191  C215  A    
C24   I8    S    
C43   C53   A    
C183  C195  A    
C148  H4    S    
Cu11  O58   S    
C164  C180  A    
C81   C89   T    
C47   C55   A    
Cu12  O62   S    
C31   C47   A    
C26   I10   S    
C32   C48   A    
C17   C33   A    
C74   C82   S    
C12   O52   A    
C159  H15   S    
C152  C168  A    
C138  C194  A    
C112  O30   A    
C168  H24   S    
C103  C119  T    
C8    C72   S    
Cu3   O19   S    
C122  C138  A    
C32   I16   S    
C176  H32   S    
C49   C105  S    
C8    O12   A    
C107  O23   A    
C184  C196  A    
C156  H12   S    
C203  O35   S    
C204  O36   S    
C5    O9    A    
C204  N2    A    
C126  C140  A    
C170  C186  A    
C10   O50   A    
C25   C61   A    
Cu10  O54   S    
C174  C190  A    
C40   H40   S    
C186  C210  A    
C93   C101  S    
C143  C199  A    
C12   O56   A    
C213  N7    A    
C6    C70   S    
C214  N8    A    
C14   O62   A    
Cu3   O5    S    
C62   N6    S    
C180  C204  A    
C153  H9    S    
C214  O46   S    
C82   C90   T    
C101  C117  T    
C131  C155  A    
C136  C144  A    
C6    O16   A    
C13   O63   A    
C107  O21   A    
C75   C83   S    
C203  N1    A    
C38   C52   A    
C18   C58   A    
C121  C136  A    
C106  O18   A    
C181  C195  A    
C201  O33   S    
C122  C135  A    
C20   C36   A    
C27   C43   A    
C21   C37   A    
Cu12  O64   S    
C60   N4    S    
C171  H27   S    
C50   C106  S    
C186  C198  A    
Cu9   O49   S    
C211  O43   S    
Cu1   O7    S    
C157  C173  A    
C104  C120  T    
C57   N1    S    
Cu2   O2    S    
C70   C78   T    
C21   I5    S    
Cu8   O32   S    
C3    O7    A    
C17   C57   A    
C63   N7    S    
Cu4   O20   S    
C54   C110  S    
C105  O19   A    
C4    O4    A    
C187  C197  A    
C165  H21   S    
C36   H36   S    
C191  C199  A    
C7    C71   S    
C37   C51   A    
C47   H47   S    
C176  C192  A    
C17   I1    S    
C20   I4    S    
C2    O8    A    
C19   I3    S    
C123  C137  A    
C11   C114  S    
C157  H13   S    
C86   C94   T    
C31   I15   S    
C167  C183  A    
C58   N2    S    
C168  C184  A    
C27   C61   A    
C102  C118  T    
C2    O2    A    
C78   C86   S    
C159  C175  A    
Cu6   O14   S    
C142  C198  A    
Cu6   O10   S    
C212  N6    A    
Cu8   O28   S    
Cu3   O21   S    
C132  C142  A    
C137  C193  A    
C34   C50   A    
C150  C166  A    
C170  H26   S    
C110  O28   A    
C210  N6    A    
C20   C58   A    
C16   C119  S    
C13   O57   A    
C7    O11   A    
C202  N2    A    
C37   H37   S    
C40   C52   A    
C134  C144  A    
C89   C97   S    
C110  O26   A    
C162  H18   S    
C133  C143  A    
C181  C205  A    
C22   I6    S    
C111  O31   A    
C85   C93   T    
C24   C60   A    
Cu9   Cu10  S    
Cu9   O51   S    
C140  C196  A    
C52   C108  S    
C123  C147  A    
C210  O42   S    
C178  C202  A    
C121  C145  A    
C182  C196  A    
C97   C113  T    
C180  C194  A    
C92   C100  S    
C207  N3    A    
C146  H2    S    
C208  N4    A    
Cu5   O15   S    
C124  C148  A    
C202  O34   S    
C3    C67   S    
C8    O14   A    
C6    O10   A    
C7    O15   A    
Cu1   Cu3   S    
C215  O47   S    
C171  C187  A    
C165  C181  A    
C26   C62   A    
C127  C130  A    
C169  C185  A    
Cu5   Cu7   S    
C125  C132  A    
C29   I13   S    
C126  C131  A    
C172  C188  A    
C23   C39   A    
C173  C189  A    
C24   C40   A    
C90   C98   S    
Cu1   O23   S    
C164  H20   S    
C155  C171  A    
C14   O58   A    
Cu8   O16   S    
C109  O25   A    
Cu11  O57   S    
C56   C112  S    
C94   C102  S    
C175  H31   S    
