data_mof_unit_26015.cif
_audit_creation_date              2012-10-26T18:50:47-0400
_audit_creation_method            fapswitch 2.2
_symmetry_space_group_name_H-M    P1
_symmetry_Int_Tables_number       1
_space_group_crystal_system       triclinic
_cell_length_a                    12.498213
_cell_length_b                    13.241967
_cell_length_c                    17.165229
_cell_angle_alpha                 108.43982
_cell_angle_beta                  74.015235
_cell_angle_gamma                 117.538861
_cell_volume                      2361.32274908

loop_
_atom_site_label
_atom_site_type_symbol
_atom_type_description
_atom_site_fract_x
_atom_site_fract_y
_atom_site_fract_z
_atom_type_partial_charge
Br1   Br    Br    0.127915 0.262057 0.316520 -0.510654
Br2   Br    Br    0.272261 0.690664 0.635327 -0.521448
Br3   Br    Br    0.020889 0.743078 0.145078 -0.499281
C1    C     C_R   0.143900 0.713203 0.505147 0.622225
C2    C     C_R   0.035584 0.514620 0.263505 0.051105
C3    C     C_R   0.726875 0.964587 0.390749 -0.108448
C4    C     C_R   0.986304 0.504147 0.652622 0.556334
C5    C     C_R   0.772778 0.161324 0.472540 -0.001529
C6    C     C_R   0.181703 0.920945 0.558510 -0.118806
C7    C     C_R   0.260805 0.037834 0.576350 -0.123590
C8    C     C_R   0.385152 0.072288 0.547847 -0.110714
C9    C     C_R   0.432666 0.990261 0.496531 0.001430
C10   C     C_R   0.349063 0.873836 0.468366 0.080328
C11   C     C_R   0.560091 0.020281 0.471633 0.021277
C12   C     C_R   0.942314 0.589497 0.804895 0.297502
C13   C     C_R   0.601350 0.936955 0.414476 0.016960
C14   C     C_R   0.517415 0.828958 0.378480 -0.112315
C15   C     C_R   0.391695 0.798564 0.401854 0.256359
C16   C     C_R   0.855847 0.285625 0.488394 0.536901
C17   C     C_R   0.648254 0.130847 0.501918 -0.119368
C18   C     C_R   0.812231 0.076391 0.419505 -0.108849
C19   C     C_R   0.224926 0.837344 0.507228 0.053166
C20   C     C_R   0.628560 0.646994 0.652581 -0.151179
C21   C     C_R   0.251694 0.347849 0.386358 0.303077
C22   C     C_R   0.342199 0.307851 0.368068 -0.123884
C23   C     C_R   0.031524 0.614038 0.167495 0.156162
C24   C     C_R   0.435274 0.360656 0.414827 -0.125167
C25   C     C_R   0.444347 0.459240 0.479749 -0.022358
C26   C     C_R   0.344031 0.494483 0.503161 0.143917
C27   C     C_R   0.546868 0.518699 0.525022 0.028510
C28   C     C_R   0.016259 0.500390 0.348038 0.606684
C29   C     C_R   0.535678 0.592248 0.603317 -0.041880
C30   C     C_R   0.434437 0.616391 0.631662 -0.114848
C31   C     C_R   0.348041 0.582462 0.581051 0.179499
C32   C     C_R   0.660582 0.508225 0.496868 0.388456
C33   C     C_R   0.735082 0.630683 0.623340 0.031327
C34   C     C_R   0.015615 0.603811 0.249841 0.282053
C35   C     C_R   0.977389 0.507955 0.740146 -0.050325
C36   C     C_R   0.001339 0.425835 0.758925 -0.163469
C37   C     C_R   0.991126 0.422950 0.841407 0.213617
C38   C     C_R   0.955818 0.503599 0.905968 0.010344
C39   C     C_R   0.926976 0.584586 0.887601 0.282864
C40   C     C_R   0.075663 0.440441 0.196753 -0.171708
C41   C     C_R   0.088482 0.448915 0.115912 -0.137998
C42   C     C_R   0.062686 0.532407 0.100925 0.004085
C43   C     C_2   0.958207 0.508096 0.992019 -0.050691
C44   C     C_2   0.061310 0.527447 0.014926 -0.035629
Cu1   Cu    Cu3+1 0.900140 0.524980 0.518800 1.001334
Cu2   Cu    Cu3+1 0.099860 0.475020 0.481200 1.058951
H1    H     H_    0.027057 0.362932 0.709032 0.129864
H2    H     H_    0.806221 0.671221 0.661649 0.156353
H3    H     H_    0.430594 0.673885 0.692800 0.168574
H4    H     H_    0.619278 0.703133 0.713311 0.130427
H5    H     H_    0.494852 0.317199 0.401651 0.170005
H6    H     H_    0.338874 0.232596 0.317957 0.159668
H7    H     H_    0.092756 0.373007 0.206918 0.186088
H8    H     H_    0.142480 0.532150 0.969294 0.166286
H9    H     H_    0.876566 0.500261 0.037812 0.134071
H10   H     H_    0.354701 0.658909 0.311802 0.329824
H11   H     H_    0.956109 0.726947 0.300683 0.363357
H12   H     H_    0.114179 0.387296 0.064703 0.162600
H13   H     H_    0.715279 0.396229 0.419636 0.346710
H14   H     H_    0.871311 0.647582 0.003120 0.342251
H15   H     H_    0.978592 0.699093 0.738326 0.330363
H16   H     H_    0.037916 0.292077 0.808433 0.328805
H17   H     H_    0.908172 0.097525 0.397205 0.182835
H18   H     H_    0.549880 0.769134 0.330191 0.112737
H19   H     H_    0.758949 0.900951 0.347480 0.143851
H20   H     H_    0.622754 0.196647 0.547254 0.124730
H21   H     H_    0.087010 0.895561 0.587352 0.138572
H22   H     H_    0.440900 0.164204 0.565920 0.108123
H23   H     H_    0.226280 0.101698 0.615629 0.128530
N1    N     N_R   0.749710 0.562810 0.547300 -0.233548
N2    N     N_R   0.249640 0.437820 0.453210 -0.221507
O1    O     O_R   0.025490 0.682370 0.523640 -0.509730
O2    O     O_3   0.984620 0.680438 0.318160 -0.646055
O3    O     O_3   0.685714 0.452105 0.416672 -0.687133
O4    O     O_3   0.891090 0.665689 0.948000 -0.600733
O5    O     O_3   0.925376 0.677543 0.790345 -0.627175
O6    O     O_3   0.013900 0.341527 0.860595 -0.688484
O7    O     O_R   0.194150 0.640180 0.491890 -0.420420
O8    O     O_R   0.905900 0.523560 0.631310 -0.511289
O9    O     O_R   0.074570 0.481370 0.599560 -0.473380
O10   O     O_R   0.805850 0.359820 0.508110 -0.543866
O11   O     O_R   0.974510 0.317630 0.476360 -0.473622
O12   O     O_R   0.925430 0.518630 0.400440 -0.438650
O13   O     O_R   0.094100 0.476440 0.368690 -0.458036
O14   O     O_3   0.310057 0.700985 0.355930 -0.671325

loop_
_geom_bond_atom_site_label_1
_geom_bond_atom_site_label_2
_ccdc_geom_bond_type
C4    O9    A    
C2    C34   A    
C18   H17   S    
C38   C39   A    
Cu2   O13   S    
H13   O3    S    
C24   H5    S    
C30   H3    S    
C5    C17   A    
C10   C15   A    
C25   C26   A    
C35   C36   A    
C8    H22   S    
C6    C19   A    
Cu2   O7    S    
H10   O14   S    
C1    O1    A    
C23   C42   A    
C32   N1    A    
C1    O7    A    
C13   C14   A    
C38   C43   S    
C37   O6    S    
C6    C7    A    
Br2   C31   S    
C3    H19   S    
C2    C40   A    
H16   O6    S    
C43   H9    S    
Cu1   O1    S    
C20   H4    S    
C42   C44   S    
C12   O5    S    
C14   H18   S    
C5    C16   S    
C28   O13   A    
Cu2   O11   S    
C30   C31   A    
C6    H21   S    
C7    C8    A    
C36   C37   A    
C26   N2    A    
C3    C18   A    
C26   C31   A    
H11   O2    S    
C15   O14   S    
Cu1   O10   S    
C40   C41   A    
C12   C35   A    
C11   C17   A    
C44   H8    S    
C1    C19   S    
C36   H1    S    
C14   C15   A    
C21   C22   A    
C33   H2    S    
C27   C32   A    
C37   C38   A    
C34   O2    S    
C9    C11   A    
C39   O4    S    
H15   O5    S    
C11   C13   A    
C17   H20   S    
C16   O10   A    
C41   C42   A    
C43   C44   D    
Cu1   Cu2   S    
Cu1   N1    S    
Br3   C23   S    
C22   H6    S    
C12   C39   A    
C16   O11   A    
C5    C18   A    
C8    C9    A    
C23   C34   A    
C41   H12   S    
C22   C24   A    
C29   C30   A    
Cu2   O9    S    
C25   C27   A    
C20   C29   A    
C27   C29   A    
C21   N2    A    
C4    C35   S    
Cu1   O8    S    
C10   C19   A    
Cu1   O12   S    
C33   N1    A    
C3    C13   A    
C40   H7    S    
C4    O8    A    
C9    C10   A    
Br1   C21   S    
C32   O3    S    
C20   C33   A    
C24   C25   A    
C28   O12   A    
Cu2   N2    S    
C2    C28   S    
H14   O4    S    
C7    H23   S    
