data_mof_unit_5065.cif
_audit_creation_date              2012-12-10T20:42:36-0500
_audit_creation_method            fapswitch 2.2
_symmetry_space_group_name_H-M    P1
_symmetry_Int_Tables_number       1
_space_group_crystal_system       triclinic
_cell_length_a                    8.90505
_cell_length_b                    10.675689
_cell_length_c                    9.886534
_cell_angle_alpha                 89.853572
_cell_angle_beta                  90.050074
_cell_angle_gamma                 89.946283
_cell_volume                      939.884665956

loop_
_atom_site_label
_atom_site_type_symbol
_atom_type_description
_atom_site_fract_x
_atom_site_fract_y
_atom_site_fract_z
_atom_type_partial_charge
C1    C     C_R   0.502909 0.260244 0.500304 0.940760
C2    C     C_R   0.595845 0.937372 0.393221 0.272996
C3    C     C_R   0.528753 0.871425 0.501585 -0.148724
C4    C     C_R   0.486013 0.935454 0.617782 0.044530
C5    C     C_3   0.348601 0.923677 0.703681 -0.454174
C6    C     C_3   0.343107 0.065988 0.704428 0.095225
C7    C     C_R   0.368158 0.501569 0.071031 0.230293
C8    C     C_R   0.630489 0.508723 0.071868 -0.079642
C9    C     C_R   0.630494 0.508687 0.928244 -0.113025
C10   C     C_R   0.368140 0.501792 0.928688 0.207676
C11   C     C_3   0.246621 0.406020 0.923054 -0.470702
C12   C     C_R   0.218781 0.499932 0.499950 0.960140
C13   C     C_3   0.246926 0.405483 0.076689 -0.498785
C14   C     C_R   0.507420 0.739733 0.499730 0.907588
C15   C     C_R   0.781241 0.499929 0.500054 0.939952
C16   C     C_1   0.065437 0.499826 0.499952 -0.162900
C17   C     C_1   0.934602 0.499828 0.500066 -0.163749
C18   C     C_R   0.481381 0.062627 0.618161 0.073392
C19   C     C_R   0.520989 0.128800 0.502571 -0.115561
C20   C     C_R   0.590196 0.067306 0.394251 -0.225017
H1    H     H_    0.634731 0.119412 0.309069 0.192410
H2    H     H_    0.285095 0.316313 0.878107 0.227126
H3    H     H_    0.141595 0.443383 0.120953 0.214274
H4    H     H_    0.285871 0.315386 0.121328 0.226296
H5    H     H_    0.253774 0.878315 0.649359 0.225633
H6    H     H_    0.374437 0.882825 0.804616 0.199430
H7    H     H_    0.365028 0.106668 0.805869 0.137764
H8    H     H_    0.736158 0.514011 0.125394 0.165793
H9    H     H_    0.736174 0.513859 0.874861 0.160910
H10   H     H_    0.141244 0.444407 0.878993 0.215996
N1    N     N_R   0.499010 0.499140 0.142800 -0.108779
N2    N     N_R   0.499010 0.499180 0.857150 -0.112867
O1    O     O_R   0.500020 0.316790 0.614690 -0.612102
O2    O     O_R   0.500000 0.316760 0.385350 -0.625951
O3    O     O_R   0.285350 0.500020 0.614650 -0.613517
O4    O     O_R   0.285340 0.499980 0.385310 -0.617987
O5    O     O_R   0.500000 0.683240 0.614650 -0.619189
O6    O     O_R   0.499980 0.683210 0.385310 -0.574065
O7    O     O_R   0.714660 0.500020 0.614690 -0.628539
O8    O     O_R   0.714650 0.499980 0.385350 -0.619400
Zn1   Zn    Zn3+2 0.500010 0.500020 0.653130 0.966808
Zn2   Zn    Zn3+2 0.499990 0.499980 0.346870 0.986348
Br1   Br    Br    0.692458 0.858856 0.241427 -0.497320
Br2   Br    Br    0.166517 0.132809 0.612754 -0.529341

loop_
_geom_bond_atom_site_label_1
_geom_bond_atom_site_label_2
_ccdc_geom_bond_type
C7    C10   A    
N2    Zn1   S    
N1    Zn2   S    
C12   O4    A    
C11   H2    S    
O4    Zn2   S    
C6    H7    S    
O2    Zn2   S    
C9    H9    S    
C2    Br1   S    
O1    Zn1   S    
C19   C20   A    
O8    Zn2   S    
C2    C3    A    
C1    O1    A    
O7    Zn1   S    
C6    Br2   S    
C12   O3    A    
C11   C13   S    
C15   O7    A    
C16   C17   T    
C3    C14   S    
O3    Zn1   S    
C13   H4    S    
C1    O2    A    
O6    Zn2   S    
O5    Zn1   S    
C5    C6    S    
C8    H8    S    
C6    C18   S    
C5    H5    S    
C15   O8    A    
C1    C19   S    
C14   O6    A    
C10   C11   S    
C2    C20   A    
C5    H6    S    
C10   N2    A    
C7    C13   S    
C7    N1    A    
C20   H1    S    
C13   H3    S    
C18   C19   A    
C15   C17   S    
C8    C9    A    
C9    N2    A    
C8    N1    A    
C4    C18   A    
C3    C4    A    
C12   C16   S    
C11   H10   S    
C4    C5    S    
C14   O5    A    
