data_mof_unit_48341.cif
_audit_creation_date              2012-12-10T17:11:33-0500
_audit_creation_method            fapswitch 2.2
_symmetry_space_group_name_H-M    P1
_symmetry_Int_Tables_number       1
_space_group_crystal_system       triclinic
_cell_length_a                    15.149052
_cell_length_b                    13.055126
_cell_length_c                    11.772561
_cell_angle_alpha                 99.155929
_cell_angle_beta                  93.255733
_cell_angle_gamma                 92.678051
_cell_volume                      2291.24204596

loop_
_atom_site_label
_atom_site_type_symbol
_atom_type_description
_atom_site_fract_x
_atom_site_fract_y
_atom_site_fract_z
_atom_type_partial_charge
C1    C     C_R   0.501006 0.299818 0.479341 0.918492
C2    C     C_R   0.498673 0.700079 0.520366 0.897583
C3    C     C_R   0.033693 0.318046 0.411259 0.260872
C4    C     C_R   0.967477 0.679317 0.608589 0.282832
C5    C     C_R   0.501346 0.812862 0.530290 -0.068698
C6    C     C_R   0.501172 0.186783 0.468141 -0.106686
C7    C     C_R   0.455597 0.020129 0.353926 0.283971
C8    C     C_R   0.552857 0.978419 0.642515 0.292739
C9    C     C_R   0.466130 0.127188 0.365794 -0.277795
C10   C     C_R   0.545681 0.871078 0.627887 -0.331342
C11   C     C_R   0.537055 0.138886 0.557487 0.258054
C12   C     C_R   0.459341 0.862484 0.445660 0.205529
C13   C     C_R   0.523912 0.029865 0.550891 -0.010779
C14   C     C_R   0.479389 0.970094 0.449079 -0.099605
C15   C     C_R   0.406731 0.408666 0.028691 0.148565
C16   C     C_R   0.585061 0.600227 0.973060 0.182233
C17   C     C_R   0.416644 0.419840 0.149307 0.000605
C18   C     C_R   0.576495 0.588688 0.852750 -0.009220
C19   C     C_R   0.541580 0.537222 0.154764 0.109812
C20   C     C_R   0.460681 0.458724 0.844140 0.120357
C21   C     C_R   0.531867 0.535147 0.032576 -0.048726
C22   C     C_R   0.465649 0.466099 0.967469 -0.082328
C23   C     C_R   0.329133 0.499373 0.500603 0.909082
C24   C     C_R   0.670890 0.502591 0.499289 0.884616
C25   C     C_R   0.819117 0.593663 0.544457 0.177365
C26   C     C_R   0.179777 0.414437 0.441713 0.178976
C27   C     C_R   0.767464 0.502577 0.496864 -0.145428
C28   C     C_R   0.232531 0.499594 0.502858 -0.149075
C29   C     C_R   0.807537 0.413464 0.444134 -0.065701
C30   C     C_R   0.193249 0.584175 0.566914 -0.089512
C31   C     C_R   0.900605 0.411981 0.450555 0.006376
C32   C     C_R   0.100122 0.586055 0.563119 0.007422
C33   C     C_R   0.953253 0.500559 0.505303 -0.019924
C34   C     C_R   0.046982 0.498415 0.507887 -0.010572
C35   C     C_R   0.912670 0.591999 0.554063 0.044217
C36   C     C_R   0.087328 0.409367 0.453162 0.021020
C37   C     C_R   0.942080 0.321091 0.408273 -0.275897
C38   C     C_R   0.059160 0.675382 0.610983 -0.281362
Cu1   Cu    Cu3+1 0.506660 0.507730 0.615930 0.961693
Cu2   Cu    Cu3+1 0.493340 0.492270 0.384070 0.950873
H1    H     H_    0.903967 0.249047 0.376580 0.132361
H2    H     H_    0.097889 0.745028 0.650204 0.142770
H3    H     H_    0.571426 0.833477 0.697367 0.158906
H4    H     H_    0.448806 0.164164 0.292205 0.177040
H5    H     H_    0.616559 0.638224 0.809289 0.123109
H6    H     H_    0.370764 0.378459 0.195339 0.151809
N1    N     N_R   0.516670 0.519360 0.790130 -0.231677
N2    N     N_R   0.483330 0.480640 0.209870 -0.244168
O1    O     O_R   0.504720 0.354460 0.582000 -0.547835
O2    O     O_R   0.495280 0.645540 0.418000 -0.627067
O3    O     O_R   0.493480 0.341410 0.386200 -0.589267
O4    O     O_R   0.506520 0.658590 0.613800 -0.591650
O5    O     O_R   0.375880 0.506510 0.597910 -0.617059
O6    O     O_R   0.624120 0.493490 0.402090 -0.563750
O7    O     O_R   0.364640 0.493450 0.402110 -0.581764
O8    O     O_R   0.635360 0.506550 0.597890 -0.589355
N3    N     N_2   0.777627 0.690111 0.564561 -0.401010
H7    H     H_    0.737012 0.704776 0.496277 0.233469
C39   C     C_3   0.740531 0.716651 0.675069 -0.650770
H8    H     H_    0.756281 0.800140 0.708857 0.235676
H9    H     H_    0.766366 0.669170 0.738731 0.227612
H10   H     H_    0.668038 0.704509 0.663588 0.205430
N4    N     N_2   0.218437 0.341848 0.357801 -0.420176
H11   H     H_    0.182148 0.317016 0.280737 0.258725
C40   C     C_3   0.274403 0.266607 0.398071 -0.649762
H12   H     H_    0.243210 0.187054 0.373262 0.239641
H13   H     H_    0.288846 0.282937 0.493092 0.217604
H14   H     H_    0.336691 0.268970 0.354667 0.214728
N5    N     N_2   0.334148 0.343780 0.971926 -0.441296
H15   H     H_    0.273647 0.370630 0.994870 0.236762
C41   C     C_3   0.339783 0.234362 0.977947 -0.638159
H16   H     H_    0.288227 0.188811 0.917258 0.231293
H17   H     H_    0.328796 0.219256 0.066451 0.190687
H18   H     H_    0.405665 0.208039 0.953325 0.252451
N6    N     N_2   0.643723 0.682297 0.032050 -0.412479
H19   H     H_    0.702233 0.690623 0.992740 0.255918
C42   C     C_3   0.602586 0.780155 0.059433 -0.739566
H20   H     H_    0.649965 0.837576 0.113872 0.239754
H21   H     H_    0.543044 0.769990 0.107973 0.213790
H22   H     H_    0.583242 0.810587 0.979127 0.226238
C43   C     C_2   0.753062 0.324347 0.375376 0.373455
H23   H     H_    0.774292 0.287228 0.293089 0.075088
O9    O     O_2   0.685357 0.290353 0.410397 -0.573238
C44   C     C_2   0.248934 0.672551 0.634626 0.358067
H24   H     H_    0.233545 0.703558 0.721903 0.054812
O10   O     O_2   0.310119 0.713545 0.592177 -0.546289
N7    N     N_2   0.070528 0.219809 0.381945 -0.429820
H25   H     H_    0.037981 0.173451 0.311399 0.242023
C45   C     C_3   0.082804 0.164778 0.478630 -0.685468
H26   H     H_    0.115321 0.091321 0.450644 0.219326
H27   H     H_    0.017815 0.145599 0.511776 0.220880
H28   H     H_    0.125733 0.212699 0.548936 0.244193
N8    N     N_2   0.932003 0.772223 0.662946 -0.385602
H29   H     H_    0.952642 0.836710 0.628902 0.249048
C46   C     C_3   0.943313 0.789658 0.787670 -0.706651
H30   H     H_    0.906119 0.857574 0.822974 0.222379
H31   H     H_    0.014356 0.806022 0.816743 0.213047
H32   H     H_    0.917395 0.720653 0.822354 0.236719
N9    N     N_2   0.378535 0.815204 0.386849 -0.384712
H33   H     H_    0.325308 0.861710 0.389641 0.261311
C47   C     C_3   0.379824 0.738940 0.282972 -0.614669
H34   H     H_    0.340051 0.763962 0.211247 0.197093
H35   H     H_    0.349052 0.663951 0.298072 0.263745
H36   H     H_    0.448033 0.727620 0.255730 0.202163
N10   N     N_2   0.591452 0.201041 0.647902 -0.383184
H37   H     H_    0.567165 0.218462 0.728216 0.308082
C48   C     C_3   0.686539 0.200153 0.640935 -0.579583
H38   H     H_    0.716821 0.168154 0.714886 0.205293
H39   H     H_    0.714085 0.281004 0.644820 0.242634
H40   H     H_    0.704746 0.152514 0.559581 0.232532
N11   N     N_2   0.434035 0.964783 0.240795 -0.417849
H41   H     H_    0.461052 0.894387 0.218690 0.258459
C49   C     C_3   0.347912 0.978648 0.187128 -0.707250
H42   H     H_    0.340228 0.930910 0.099878 0.223294
H43   H     H_    0.340943 0.061033 0.177302 0.224532
H44   H     H_    0.294430 0.954248 0.239318 0.221939
N12   N     N_2   0.586751 0.032742 0.751728 -0.432535
H45   H     H_    0.642197 0.001431 0.784315 0.243853
C50   C     C_3   0.520507 0.049369 0.835533 -0.696440
H46   H     H_    0.549756 0.100400 0.914483 0.230110
H47   H     H_    0.496720 0.974109 0.858994 0.228082
H48   H     H_    0.463514 0.087721 0.800224 0.257801
C51   C     C_2   0.394529 0.386358 0.772743 0.517185
H49   H     H_    0.330265 0.412900 0.749380 0.037621
O11   O     O_2   0.408880 0.294695 0.746709 -0.585437
C52   C     C_2   0.617558 0.595626 0.222937 0.515612
H50   H     H_    0.608072 0.663492 0.285840 0.042288
O12   O     O_2   0.692591 0.568232 0.207918 -0.553533

loop_
_geom_bond_atom_site_label_1
_geom_bond_atom_site_label_2
_ccdc_geom_bond_type
N7    H25   S    
N4    C40   S    
N8    H29   S    
C27   C29   A    
C16   N6    S    
N11   H41   S    
C17   N2    A    
C26   N4    S    
C18   N1    A    
C6    C9    A    
C43   H23   S    
C46   H32   S    
C51   H49   S    
C42   H20   S    
N10   C48   S    
C16   C21   A    
C19   C21   A    
C44   O10   D    
C38   H2    S    
N12   C50   S    
N3    C39   S    
C24   O6    A    
Cu2   N2    S    
N5    C41   S    
C12   N9    S    
C2    O2    A    
C13   C14   A    
C15   C22   A    
N9    H33   S    
C40   H13   S    
C11   N10   S    
C48   H38   S    
C24   C27   S    
C32   C38   A    
C45   H27   S    
C49   H44   S    
Cu2   O7    S    
C42   H21   S    
Cu1   O4    S    
C4    C35   A    
C39   H8    S    
N8    C46   S    
C21   C22   A    
C30   C44   S    
C48   H39   S    
C25   N3    S    
C43   O9    D    
C8    N12   S    
C23   O5    A    
C50   H47   S    
C15   N5    S    
C39   H9    S    
C3    N7    S    
C1    C6    S    
C47   H34   S    
C17   H6    S    
C5    C12   A    
C6    C11   A    
C41   H17   S    
C19   N2    A    
C39   H10   S    
C7    C14   A    
C31   C37   A    
C32   C34   A    
N6    H19   S    
C29   C43   S    
C1    O3    A    
C20   C51   S    
Cu1   O8    S    
C40   H14   S    
C31   C33   A    
C33   C34   A    
N11   C49   S    
C16   C18   A    
C23   C28   S    
C44   H24   S    
C45   H28   S    
N6    C42   S    
C2    O4    A    
C25   C35   A    
C26   C36   A    
Cu1   O1    S    
C12   C14   A    
C47   H36   S    
Cu2   O6    S    
N7    C45   S    
C48   H40   S    
C2    C5    S    
C24   O8    A    
C18   H5    S    
Cu1   Cu2   S    
Cu1   N1    S    
C49   H42   S    
C47   H35   S    
C50   H48   S    
C15   C17   A    
C9    H4    S    
C52   O12   D    
N9    C47   S    
C10   H3    S    
C20   C22   A    
N4    H11   S    
C41   H18   S    
C50   H46   S    
C46   H31   S    
C23   O7    A    
C25   C27   A    
Cu2   O3    S    
N10   H37   S    
C19   C52   S    
C26   C28   A    
C28   C30   A    
C5    C10   A    
C29   C31   A    
N12   H45   S    
C30   C32   A    
C11   C13   A    
N3    H7    S    
Cu1   O5    S    
C42   H22   S    
C3    C36   A    
C52   H50   S    
Cu2   O2    S    
C33   C35   A    
C7    N11   S    
C34   C36   A    
C37   H1    S    
N5    H15   S    
C20   N1    A    
C51   O11   D    
C4    N8    S    
C8    C13   A    
C7    C9    A    
C41   H16   S    
C3    C37   A    
C8    C10   A    
C40   H12   S    
C46   H30   S    
C45   H26   S    
C4    C38   A    
C1    O1    A    
C49   H43   S    
