data_mof_unit_18729.cif
_audit_creation_date              2013-03-05T15:54:52-0500
_audit_creation_method            fapswitch 2.2
_symmetry_space_group_name_H-M    P1
_symmetry_Int_Tables_number       1
_space_group_crystal_system       triclinic
_cell_length_a                    17.53189
_cell_length_b                    17.334
_cell_length_c                    17.805091
_cell_angle_alpha                 90.179072
_cell_angle_beta                  89.826904
_cell_angle_gamma                 89.72976
_cell_volume                      5410.81610243

loop_
_atom_site_label
_atom_site_type_symbol
_atom_site_description
_atom_site_fract_x
_atom_site_fract_y
_atom_site_fract_z
_atom_type_partial_charge
C1    C     C_R   0.396909 0.305229 0.891208 0.269218
C2    C     C_R   0.672332 0.418077 0.859487 0.319733
C3    C     C_R   0.607871 0.697284 0.901963 0.315757
C4    C     C_R   0.314957 0.595003 0.873987 0.344886
C5    C     C_R   0.395228 0.694108 0.109066 0.327956
C6    C     C_R   0.696418 0.606540 0.100204 0.282407
C7    C     C_R   0.599365 0.310959 0.120187 0.315958
C8    C     C_R   0.314279 0.406135 0.125310 0.318095
C9    C     C_R   0.893025 0.802763 0.401525 0.273748
C10   C     C_R   0.193220 0.895893 0.390753 0.256747
C11   C     C_R   0.090707 0.180323 0.367177 0.308793
C12   C     C_R   0.820834 0.086824 0.366260 0.338154
C13   C     C_R   0.899779 0.191539 0.616759 0.318200
C14   C     C_R   0.195869 0.107109 0.601898 0.250573
C15   C     C_R   0.086871 0.823322 0.636480 0.327918
C16   C     C_R   0.803633 0.892649 0.600034 0.306187
N1    N     N_R   0.425360 0.368540 0.922560 -0.096284
N2    N     N_R   0.631460 0.425360 0.922560 -0.095640
N3    N     N_R   0.574640 0.631460 0.922560 -0.095988
N4    N     N_R   0.368540 0.574640 0.922560 -0.101565
N5    N     N_R   0.425360 0.631460 0.077440 -0.107754
N6    N     N_R   0.631460 0.574640 0.077440 -0.106894
N7    N     N_R   0.574640 0.368540 0.077440 -0.104799
N8    N     N_R   0.368540 0.425360 0.077440 -0.103415
N9    N     N_R   0.925360 0.868540 0.422560 -0.088771
N10   N     N_R   0.131460 0.925360 0.422560 -0.096786
N11   N     N_R   0.074640 0.131460 0.422560 -0.098034
N12   N     N_R   0.868540 0.074640 0.422560 -0.099410
N13   N     N_R   0.925360 0.131460 0.577440 -0.108049
N14   N     N_R   0.131460 0.074640 0.577440 -0.106270
N15   N     N_R   0.074640 0.868540 0.577440 -0.099187
N16   N     N_R   0.868540 0.925360 0.577440 -0.105164
C17   C     C_3   0.744055 0.344454 0.584655 0.256553
C18   C     C_3   0.661912 0.880617 0.717948 0.285052
C19   C     C_3   0.264198 0.711905 0.611695 0.238827
C20   C     C_3   0.364021 0.246513 0.635121 0.320051
C21   C     C_3   0.895720 0.689380 0.262188 0.225066
C22   C     C_3   0.803136 0.110522 0.146525 0.306500
C23   C     C_3   0.125636 0.189186 0.136884 0.297820
C24   C     C_3   0.231285 0.906334 0.209808 0.237010
C25   C     C_3   0.259431 0.866161 0.136735 0.287042
C26   C     C_3   0.173819 0.250253 0.093355 0.250489
C27   C     C_3   0.753175 0.164688 0.096670 0.210699
C28   C     C_3   0.860025 0.658359 0.189184 0.307093
C29   C     C_3   0.402732 0.273398 0.708437 0.227265
C30   C     C_3   0.316349 0.659038 0.659883 0.240174
C31   C     C_3   0.629144 0.849763 0.792662 0.281393
C32   C     C_3   0.680031 0.390106 0.628102 0.305381
C33   C     C_R   0.408723 0.683211 0.870376 -0.019328
C34   C     C_R   0.308601 0.397936 0.885099 -0.019865
C35   C     C_R   0.575562 0.334622 0.855566 -0.067596
C36   C     C_R   0.693921 0.603361 0.891503 -0.035429
C37   C     C_R   0.402690 0.313148 0.124057 -0.048709
C38   C     C_R   0.304657 0.606331 0.102936 -0.108398
C39   C     C_R   0.603947 0.694195 0.108933 -0.095102
C40   C     C_R   0.689027 0.402175 0.120082 -0.040101
C41   C     C_R   0.915717 0.174136 0.361848 -0.072678
C42   C     C_R   0.806602 0.896382 0.390127 -0.014671
C43   C     C_R   0.099090 0.809644 0.381017 0.065128
C44   C     C_R   0.173840 0.081743 0.361536 -0.018784
C45   C     C_R   0.895714 0.805112 0.606715 -0.123112
C46   C     C_R   0.809446 0.101401 0.617195 0.028266
C47   C     C_R   0.104190 0.196201 0.603963 -0.102668
C48   C     C_R   0.173681 0.917423 0.638791 -0.059439
H1    H     H_    0.437806 0.736555 0.860651 0.224808
H2    H     H_    0.255101 0.427289 0.876476 0.188311
H3    H     H_    0.540778 0.286975 0.839102 0.193027
H4    H     H_    0.747861 0.573805 0.888560 0.192196
H5    H     H_    0.425387 0.255886 0.128121 0.222804
H6    H     H_    0.248621 0.582323 0.100419 0.231468
H7    H     H_    0.576801 0.749525 0.112365 0.221600
H8    H     H_    0.743240 0.430082 0.126171 0.231806
H9    H     H_    0.944896 0.226884 0.349254 0.196534
H10   H     H_    0.752787 0.925991 0.384339 0.182712
H11   H     H_    0.067727 0.758218 0.367583 0.190882
H12   H     H_    0.224328 0.048637 0.349040 0.190753
H13   H     H_    0.921251 0.748977 0.605207 0.217577
H14   H     H_    0.754510 0.074820 0.622479 0.224954
H15   H     H_    0.076492 0.251525 0.606090 0.217209
H16   H     H_    0.222568 0.950932 0.653685 0.205874
N17   N     N_R   0.425340 0.631500 0.922560 -0.085004
N18   N     N_R   0.368500 0.425340 0.922560 -0.077394
N19   N     N_R   0.574660 0.368500 0.922560 -0.072446
N20   N     N_R   0.631500 0.574660 0.922560 -0.088136
N21   N     N_R   0.425340 0.368500 0.077440 -0.084357
N22   N     N_R   0.368500 0.574660 0.077440 -0.086467
N23   N     N_R   0.574660 0.631500 0.077440 -0.091124
N24   N     N_R   0.631500 0.425340 0.077440 -0.080419
N25   N     N_R   0.925340 0.131500 0.422560 -0.078329
N26   N     N_R   0.868500 0.925340 0.422560 -0.089855
N27   N     N_R   0.074660 0.868500 0.422560 -0.076349
N28   N     N_R   0.131500 0.074660 0.422560 -0.075171
N29   N     N_R   0.925340 0.868500 0.577440 -0.090760
N30   N     N_R   0.868500 0.074660 0.577440 -0.086518
N31   N     N_R   0.074660 0.131500 0.577440 -0.085380
N32   N     N_R   0.131500 0.925340 0.577440 -0.074940
Ni1   Ni    Ni4+2 0.500000 0.369720 0.000000 0.337124
Ni2   Ni    Ni4+2 0.630280 0.500000 0.000000 0.328084
Ni3   Ni    Ni4+2 0.500000 0.630280 0.000000 0.311331
Ni4   Ni    Ni4+2 0.369720 0.500000 0.000000 0.313920
Ni5   Ni    Ni4+2 0.000000 0.869720 0.500000 0.330417
Ni6   Ni    Ni4+2 0.130280 0.000000 0.500000 0.342673
Ni7   Ni    Ni4+2 0.000000 0.130280 0.500000 0.323203
Ni8   Ni    Ni4+2 0.869720 0.000000 0.500000 0.325146
C49   C     C_R   0.326720 0.323688 0.863248 -0.062742
C50   C     C_R   0.635764 0.363713 0.814686 -0.011203
C51   C     C_R   0.680215 0.679982 0.876626 -0.021430
C52   C     C_R   0.340975 0.660825 0.838894 -0.115509
C53   C     C_R   0.320247 0.679370 0.125706 -0.078357
C54   C     C_R   0.678539 0.678899 0.127997 0.010993
C55   C     C_R   0.669852 0.330742 0.146285 -0.124381
C56   C     C_R   0.334478 0.336709 0.154740 -0.128866
C57   C     C_R   0.821607 0.819773 0.375184 -0.021055
C58   C     C_R   0.172559 0.826980 0.360274 -0.078031
C59   C     C_R   0.147764 0.145748 0.323934 -0.042808
C60   C     C_R   0.852546 0.146100 0.324910 -0.014563
C61   C     C_R   0.827926 0.174468 0.641250 -0.125627
C62   C     C_R   0.178911 0.182528 0.621030 -0.009602
C63   C     C_R   0.148847 0.852252 0.674498 -0.127675
C64   C     C_R   0.821533 0.820228 0.626259 -0.008290
C65   C     C_R   0.693884 0.333375 0.690857 -0.013095
C66   C     C_R   0.694946 0.792845 0.792391 -0.060081
C67   C     C_R   0.272470 0.689354 0.726383 0.022974
C68   C     C_R   0.332432 0.245647 0.748758 -0.036163
C69   C     C_R   0.783609 0.683076 0.221236 -0.089280
C70   C     C_R   0.731318 0.206134 0.168384 -0.025572
C71   C     C_R   0.221141 0.255711 0.163801 -0.053733
C72   C     C_R   0.281316 0.798476 0.186418 -0.029026
C73   C     C_R   0.252921 0.832910 0.249775 -0.028039
C74   C     C_R   0.179153 0.203649 0.202013 -0.000016
C75   C     C_R   0.776570 0.160376 0.211764 -0.003537
C76   C     C_R   0.815241 0.711840 0.285356 -0.028877
C77   C     C_R   0.298195 0.218551 0.684214 -0.079137
C78   C     C_R   0.227154 0.736837 0.685204 -0.027652
C79   C     C_R   0.722720 0.819387 0.726207 -0.072296
C80   C     C_R   0.746714 0.291679 0.651955 -0.043492
C81   C     C_R   0.675638 0.313830 0.764499 0.131040
C82   C     C_R   0.725291 0.727034 0.826558 0.157130
C83   C     C_R   0.294354 0.711201 0.797722 0.093708
C84   C     C_R   0.289188 0.280428 0.806143 0.136010
C85   C     C_R   0.714314 0.711843 0.194050 0.118152
C86   C     C_R   0.718615 0.283233 0.188289 0.131970
C87   C     C_R   0.286255 0.287921 0.195454 0.157261
C88   C     C_R   0.273893 0.719095 0.178219 0.143270
C89   C     C_R   0.214953 0.789111 0.304076 0.116728
C90   C     C_R   0.197245 0.186355 0.276141 0.143072
C91   C     C_R   0.811326 0.192456 0.274767 0.086521
C92   C     C_R   0.778637 0.770231 0.326518 0.145580
C93   C     C_R   0.219046 0.226193 0.676893 0.119049
C94   C     C_R   0.199059 0.805470 0.716563 0.138821
C95   C     C_R   0.785241 0.785143 0.690558 0.135528
C96   C     C_R   0.777807 0.223919 0.681667 0.138324
C97   C     C_R   0.211151 0.709409 0.298367 -0.013989
C98   C     C_R   0.263009 0.217823 0.308936 -0.070747
C99   C     C_R   0.793660 0.267733 0.298469 -0.054400
C100  C     C_R   0.703727 0.790287 0.307427 -0.048583
C101  C     C_R   0.175277 0.256282 0.737037 -0.124203
C102  C     C_R   0.214528 0.824304 0.791360 -0.055163
C103  C     C_R   0.821213 0.723159 0.727744 -0.073378
C104  C     C_R   0.755727 0.200207 0.753420 -0.031128
C105  C     C_R   0.706108 0.245654 0.795222 -0.066951
C106  C     C_R   0.792586 0.695607 0.795444 -0.055678
C107  C     C_R   0.262884 0.776830 0.832338 -0.049695
C108  C     C_R   0.210213 0.283317 0.801173 -0.020214
C109  C     C_R   0.672081 0.761994 0.241394 -0.085022
C110  C     C_R   0.747439 0.313297 0.254908 -0.038693
C111  C     C_R   0.308114 0.267809 0.268111 -0.062158
C112  C     C_R   0.240836 0.674297 0.235559 -0.104546
H17   H     H_    0.183380 0.674874 0.340962 0.197279
H18   H     H_    0.278105 0.205373 0.366660 0.190985
H19   H     H_    0.815338 0.291118 0.350720 0.186380
H20   H     H_    0.671686 0.832287 0.339913 0.181028
H21   H     H_    0.113550 0.257776 0.735540 0.171581
H22   H     H_    0.190392 0.875633 0.817139 0.169873
H23   H     H_    0.871581 0.695133 0.705392 0.179393
H24   H     H_    0.778453 0.147706 0.777821 0.191577
H25   H     H_    0.693197 0.228763 0.852420 0.191008
H26   H     H_    0.821239 0.646643 0.820218 0.174359
H27   H     H_    0.276335 0.791299 0.890051 0.179772
H28   H     H_    0.175920 0.308967 0.845495 0.187412
H29   H     H_    0.615258 0.781448 0.227421 0.181868
H30   H     H_    0.734367 0.371718 0.272911 0.178609
H31   H     H_    0.358969 0.291749 0.293456 0.170464
H32   H     H_    0.239428 0.611884 0.233004 0.177808
N33   N     N_R   0.420952 0.228241 0.909243 0.267477
O1    O     O_R   0.375029 0.170256 0.899759 -0.220976
O2    O     O_R   0.486797 0.215869 0.939952 -0.297895
N34   N     N_R   0.752501 0.433827 0.856473 0.224454
O3    O     O_R   0.788086 0.438232 0.792486 -0.310612
O4    O     O_R   0.792167 0.432934 0.918001 -0.276284
N35   N     N_R   0.592169 0.767903 0.940802 0.216062
O5    O     O_R   0.645634 0.800970 0.979708 -0.294181
O6    O     O_R   0.523276 0.795097 0.944489 -0.331015
N36   N     N_R   0.236599 0.572729 0.880791 0.231809
O7    O     O_R   0.188724 0.584266 0.826297 -0.278320
O8    O     O_R   0.210873 0.548493 0.944934 -0.320974
N37   N     N_R   0.436618 0.761731 0.127605 0.211456
O9    O     O_R   0.458992 0.807706 0.074689 -0.275396
O10   O     O_R   0.450096 0.778869 0.197489 -0.349951
N38   N     N_R   0.764211 0.594480 0.056633 0.226518
O11   O     O_R   0.789957 0.650552 0.015512 -0.339547
O12   O     O_R   0.787180 0.524919 0.041461 -0.323569
N39   N     N_R   0.562929 0.238398 0.130604 0.216590
O13   O     O_R   0.536071 0.200909 0.073478 -0.263796
O14   O     O_R   0.561558 0.206642 0.196711 -0.310556
N40   N     N_R   0.241286 0.441809 0.130323 0.216196
O15   O     O_R   0.205429 0.460894 0.069375 -0.302196
O16   O     O_R   0.208061 0.450153 0.195290 -0.314872
N41   N     N_R   0.910456 0.730779 0.436980 0.224421
O17   O     O_R   0.855488 0.685623 0.458483 -0.288593
O18   O     O_R   0.979207 0.716074 0.459479 -0.336321
N42   N     N_R   0.269325 0.914338 0.413522 0.264078
O19   O     O_R   0.325045 0.865834 0.401997 -0.226539
O20   O     O_R   0.281553 0.974280 0.455261 -0.286737
N43   N     N_R   0.076961 0.261994 0.373162 0.241169
O21   O     O_R   0.100561 0.309452 0.321730 -0.274506
O22   O     O_R   0.047070 0.290146 0.434262 -0.301403
N44   N     N_R   0.740658 0.071469 0.372566 0.234987
O23   O     O_R   0.696752 0.069549 0.313936 -0.290580
O24   O     O_R   0.709404 0.068897 0.438704 -0.264934
N45   N     N_R   0.934670 0.265358 0.619271 0.218659
O25   O     O_R   0.956511 0.298332 0.557497 -0.296968
O26   O     O_R   0.941816 0.301270 0.683090 -0.315591
N46   N     N_R   0.267327 0.087733 0.568626 0.252165
O27   O     O_R   0.288191 0.122325 0.507216 -0.327826
O28   O     O_R   0.308587 0.031717 0.595060 -0.258754
N47   N     N_R   0.055599 0.748193 0.646943 0.217036
O29   O     O_R   0.046752 0.702711 0.589654 -0.268589
O30   O     O_R   0.047522 0.720643 0.714369 -0.332740
N48   N     N_R   0.734977 0.904242 0.558332 0.219521
O31   O     O_R   0.706752 0.847765 0.519073 -0.331755
O32   O     O_R   0.704938 0.972347 0.552248 -0.322810
N49   N     N_R   0.815024 0.387962 0.573775 0.268628
O33   O     O_R   0.849807 0.419106 0.630742 -0.226766
O34   O     O_R   0.840368 0.401673 0.506355 -0.222914
N50   N     N_R   0.690972 0.960066 0.722933 0.231776
O35   O     O_R   0.761668 0.972965 0.741153 -0.410086
O36   O     O_R   0.643475 0.017970 0.721935 -0.250896
N51   N     N_R   0.210447 0.670864 0.562515 0.266111
O37   O     O_R   0.170576 0.613144 0.587534 -0.212068
O38   O     O_R   0.197980 0.695303 0.494620 -0.343344
N52   N     N_R   0.406151 0.184486 0.595993 0.281107
O39   O     O_R   0.423484 0.120494 0.630093 -0.199600
O40   O     O_R   0.433012 0.195771 0.528698 -0.200744
N53   N     N_R   0.948541 0.753871 0.248837 0.225991
O41   O     O_R   0.922925 0.824042 0.241285 -0.311459
O42   O     O_R   0.017300 0.738568 0.225328 -0.273430
N54   N     N_R   0.885259 0.112797 0.132469 0.272568
O43   O     O_R   0.930791 0.096212 0.187676 -0.297157
O44   O     O_R   0.909518 0.099033 0.064595 -0.202537
N55   N     N_R   0.130088 0.110052 0.106633 0.272060
O45   O     O_R   0.194571 0.080302 0.084426 -0.239174
O46   O     O_R   0.068432 0.069535 0.098333 -0.176907
N56   N     N_R   0.148767 0.922960 0.213185 0.244242
O47   O     O_R   0.099176 0.868973 0.200404 -0.261665
O48   O     O_R   0.123900 0.990950 0.232394 -0.336730
N57   N     N_R   0.325099 0.903222 0.099910 0.275940
O49   O     O_R   0.384610 0.924703 0.138019 -0.187786
O50   O     O_R   0.325174 0.913664 0.027540 -0.244654
N58   N     N_R   0.131390 0.321336 0.075891 0.268272
O51   O     O_R   0.096403 0.359870 0.128766 -0.202175
O52   O     O_R   0.120379 0.341383 0.006342 -0.255538
N59   N     N_R   0.686784 0.127518 0.061361 0.277336
O53   O     O_R   0.640765 0.085041 0.101026 -0.205688
O54   O     O_R   0.669862 0.140778 0.991443 -0.253423
N60   N     N_R   0.868390 0.574307 0.180182 0.264518
O55   O     O_R   0.816211 0.527977 0.205710 -0.382476
O56   O     O_R   0.933357 0.545162 0.158425 -0.186274
N61   N     N_R   0.414068 0.357354 0.714961 0.238816
O57   O     O_R   0.356447 0.404589 0.710202 -0.310321
O58   O     O_R   0.481786 0.385861 0.724579 -0.325463
N62   N     N_R   0.397438 0.680761 0.662120 0.255775
O59   O     O_R   0.417263 0.751103 0.678292 -0.248077
O60   O     O_R   0.450532 0.628723 0.653517 -0.209719
N63   N     N_R   0.553808 0.813837 0.784081 0.235482
O61   O     O_R   0.548624 0.742619 0.761244 -0.347232
O62   O     O_R   0.492864 0.856969 0.782961 -0.236922
N64   N     N_R   0.603180 0.384005 0.595424 0.274987
O63   O     O_R   0.576584 0.318007 0.572750 -0.239046
O64   O     O_R   0.561812 0.445669 0.585509 -0.189637
N65   N     N_R   0.718912 0.306299 0.515269 0.263905
O65   O     O_R   0.696216 0.347672 0.458630 -0.298011
O66   O     O_R   0.725260 0.231924 0.507078 -0.332417
N66   N     N_R   0.610857 0.868073 0.653548 0.275931
O67   O     O_R   0.560969 0.920625 0.635566 -0.155936
O68   O     O_R   0.604671 0.799725 0.623615 -0.223348
N67   N     N_R   0.306981 0.771419 0.570850 0.265588
O69   O     O_R   0.349047 0.750878 0.513805 -0.222545
O70   O     O_R   0.312347 0.841583 0.596172 -0.293365
N68   N     N_R   0.343431 0.309583 0.583600 0.271250
O71   O     O_R   0.396785 0.353920 0.557106 -0.200380
O72   O     O_R   0.276913 0.310991 0.551430 -0.314711
N69   N     N_R   0.928478 0.628533 0.310319 0.270457
O73   O     O_R   0.001960 0.618643 0.314483 -0.258645
O74   O     O_R   0.884341 0.578703 0.343307 -0.224176
N70   N     N_R   0.777208 0.030289 0.150986 0.283892
O75   O     O_R   0.771205 0.990472 0.089195 -0.207119
O76   O     O_R   0.785506 0.992722 0.213568 -0.317981
N71   N     N_R   0.046494 0.213810 0.150104 0.280359
O77   O     O_R   0.001957 0.226772 0.093150 -0.216514
O78   O     O_R   0.020260 0.224587 0.217625 -0.347039
N72   N     N_R   0.278296 0.972271 0.233878 0.238946
O79   O     O_R   0.271256 0.038510 0.200808 -0.300967
O80   O     O_R   0.335234 0.962788 0.279708 -0.264768
N73   N     N_R   0.198289 0.849317 0.082590 0.265495
O81   O     O_R   0.161823 0.906216 0.051180 -0.213032
O82   O     O_R   0.188900 0.780037 0.055947 -0.332347
N74   N     N_R   0.216052 0.220323 0.028034 0.262134
O83   O     O_R   0.179332 0.197302 0.968694 -0.293150
O84   O     O_R   0.290161 0.216994 0.028240 -0.334295
N75   N     N_R   0.797119 0.212996 0.043974 0.255316
O85   O     O_R   0.813172 0.187281 0.976975 -0.261127
O86   O     O_R   0.829061 0.276686 0.066346 -0.299001
N76   N     N_R   0.883423 0.701847 0.122040 0.277075
O87   O     O_R   0.944470 0.681500 0.085088 -0.187533
O88   O     O_R   0.850804 0.767303 0.105550 -0.243721
N77   N     N_R   0.471441 0.228466 0.728009 0.234397
O89   O     O_R   0.534666 0.239669 0.691612 -0.296931
O90   O     O_R   0.467061 0.168431 0.771493 -0.260592
N78   N     N_R   0.306013 0.576048 0.646881 0.283874
O91   O     O_R   0.331011 0.544651 0.584991 -0.204650
O92   O     O_R   0.269116 0.533793 0.694964 -0.265625
N79   N     N_R   0.632660 0.905941 0.854838 0.279900
O93   O     O_R   0.575524 0.952373 0.867632 -0.166674
O94   O     O_R   0.697153 0.919487 0.888425 -0.232627
N80   N     N_R   0.698629 0.470228 0.647692 0.275106
O95   O     O_R   0.721660 0.516544 0.594973 -0.241177
O96   O     O_R   0.668528 0.500705 0.707753 -0.331595

loop_
_geom_bond_atom_site_label_1
_geom_bond_atom_site_label_2
_geom_bond_distance
_ccdc_geom_bond_type
N36   O8    1.298429 A    
N32   Ni6   1.894078 S    
C74   C90   1.391623 A    
C6    C54   1.381230 A    
C37   H5    1.070372 S    
C20   C77   1.527314 S    
C84   C108  1.388339 A    
C4    N36   1.433621 S    
N39   O14   1.301157 A    
C68   C77   1.380223 A    
N15   Ni5   1.903886 S    
N66   O67   1.301257 A    
C18   N66   1.473010 S    
C36   N20   1.324429 A    
C21   N53   1.474399 S    
C98   H18   1.084181 S    
N37   O10   1.300956 A    
C7    N39   1.425745 S    
C55   C86   1.403377 S    
C102  H22   1.083552 S    
N63   O61   1.302194 A    
N31   Ni7   1.904177 S    
N62   O59   1.301102 A    
C40   H8    1.074124 S    
C42   C57   1.377487 A    
N52   O40   1.301776 A    
N67   O70   1.299706 A    
C3    N3    1.335432 A    
N80   O95   1.301605 A    
C11   C59   1.392644 A    
N8    N21   1.397788 A    
C73   C89   1.399900 A    
N28   Ni6   1.894121 S    
C24   N56   1.474794 S    
N30   Ni8   1.888084 S    
N53   O41   1.302104 A    
C19   C78   1.519954 S    
C12   N44   1.435965 S    
C80   C96   1.398650 A    
N54   O44   1.300920 A    
C41   C60   1.379401 A    
C67   C78   1.359176 A    
N79   O93   1.301141 A    
C7    C55   1.366425 A    
N55   O45   1.300328 A    
C19   N51   1.472517 S    
N29   Ni5   1.898538 S    
C47   C62   1.365481 A    
N3    Ni3   1.898285 S    
N40   O15   1.298708 A    
N17   Ni3   1.904136 S    
N76   O87   1.301341 A    
C44   H12   1.074966 S    
C15   N47   1.427894 S    
C62   C93   1.435918 S    
N43   O21   1.300836 A    
N12   Ni8   1.893832 S    
N47   O29   1.297368 A    
C38   H6    1.069728 S    
C11   N11   1.332264 A    
N14   Ni6   1.888069 S    
C82   C106  1.408439 A    
C43   N27   1.326897 A    
N6    N23   1.397788 A    
N48   O32   1.295377 A    
C72   C88   1.390003 A    
N26   Ni8   1.888318 S    
C10   N42   1.432930 S    
N70   O75   1.301740 A    
N61   O58   1.299707 A    
C97   C112  1.371539 A    
C19   N67   1.471199 S    
C98   C111  1.382525 A    
C105  H25   1.084088 S    
C35   N19   1.327919 A    
C25   N73   1.473480 S    
N59   O54   1.301535 A    
N5    N22   1.404413 A    
C30   N62   1.473012 S    
N8    Ni4   1.893876 S    
C60   C91   1.402821 S    
C34   H2    1.076600 S    
C1    N33   1.435229 S    
C91   C99   1.403074 A    
C21   C28   1.540804 S    
C22   C27   1.561689 S    
N10   Ni6   1.887845 S    
C49   C84   1.425844 S    
C81   C105  1.407487 A    
C51   C82   1.445955 S    
C2    C50   1.392628 A    
C53   C88   1.412432 S    
N40   O16   1.300908 A    
N21   Ni1   1.898538 S    
C4    N4    1.326177 A    
C5    N5    1.328303 A    
N42   O19   1.301236 A    
N38   O12   1.296828 A    
C37   N21   1.331832 A    
C39   H7    1.070166 S    
N78   O92   1.301113 A    
C24   C73   1.507589 S    
N6    Ni2   1.888069 S    
C110  H30   1.084485 S    
C72   C73   1.366107 A    
C59   C90   1.406103 S    
N9    N26   1.397805 A    
N45   O25   1.298661 A    
C100  C109  1.390532 A    
C57   C92   1.435710 S    
C16   C64   1.375957 A    
N13   N30   1.404413 A    
N5    Ni3   1.898060 S    
C40   N24   1.325735 A    
N15   N32   1.404414 A    
C67   C83   1.380322 A    
N50   O35   1.302312 A    
N34   O4    1.299455 A    
N57   O49   1.301525 A    
C41   H9    1.073769 S    
C46   C61   1.376165 A    
C26   N58   1.470840 S    
C69   C85   1.399365 A    
N73   O82   1.301183 A    
C34   C49   1.378731 A    
N56   O48   1.299140 A    
C75   C91   1.393668 A    
N12   N25   1.404397 A    
N49   O33   1.302141 A    
N16   N29   1.397788 A    
N25   Ni7   1.904136 S    
C45   C64   1.369175 A    
C22   N70   1.467508 S    
N27   Ni5   1.898304 S    
N74   O84   1.300287 A    
C33   C52   1.372062 A    
C44   N28   1.320408 A    
N72   O80   1.301380 A    
C28   C69   1.514115 S    
C20   C29   1.544781 S    
C48   N32   1.328092 A    
C32   C65   1.510211 S    
C38   N22   1.322824 A    
C50   C81   1.421455 S    
C5    N37   1.420049 S    
C100  H20   1.082447 S    
N79   O94   1.302667 A    
C95   C103  1.411050 A    
C54   C85   1.451297 S    
N69   O73   1.301204 A    
C86   C110  1.391461 A    
N71   O78   1.298543 A    
N44   O24   1.298314 A    
C22   N54   1.461355 S    
N16   Ni8   1.893876 S    
N41   O17   1.301797 A    
C32   N80   1.469280 S    
N51   O38   1.300988 A    
C35   H3    1.069696 S    
C25   N57   1.474146 S    
C101  C108  1.379274 A    
C87   C111  1.395196 A    
N60   O56   1.301266 A    
C102  C107  1.388938 A    
N47   O30   1.300980 A    
N7    N24   1.404413 A    
N75   O86   1.302119 A    
C107  H27   1.083911 S    
C17   N49   1.470597 S    
C42   H10   1.077274 S    
C64   C95   1.445323 S    
C46   H14   1.073617 S    
C58   C89   1.404038 S    
C13   N45   1.421507 S    
N58   O51   1.302855 A    
C10   C58   1.361563 A    
C52   C83   1.403175 S    
C15   N15   1.330531 A    
C16   N16   1.335292 A    
C1    N1    1.329580 A    
C20   N52   1.473646 S    
C83   C107  1.402170 A    
C27   N59   1.474499 S    
C7    N7    1.328946 A    
C31   N79   1.473726 S    
C8    N8    1.319984 A    
C15   C63   1.377588 A    
C39   N23   1.327514 A    
N37   O9    1.296952 A    
C106  H26   1.080262 S    
N62   O60   1.301510 A    
C1    C49   1.365817 A    
N64   O63   1.300942 A    
N80   O96   1.300628 A    
N1    Ni1   1.903928 S    
N24   Ni2   1.894078 S    
C30   N78   1.468506 S    
C12   C60   1.383662 A    
N51   O37   1.302155 A    
N39   O13   1.296236 A    
N46   O27   1.301015 A    
C9    N9    1.329048 A    
N59   O53   1.302772 A    
C4    C52   1.381258 A    
C41   N25   1.322163 A    
C12   N12   1.324288 A    
C56   C87   1.400827 S    
C13   N13   1.328509 A    
C8    C56   1.359879 A    
C45   N29   1.325174 A    
N76   O88   1.302899 A    
C6    N6    1.332031 A    
C47   N31   1.323821 A    
N68   O71   1.301732 A    
C33   N17   1.325142 A    
N77   O90   1.301429 A    
N20   Ni2   1.894121 S    
C36   C51   1.375301 A    
N22   Ni4   1.888084 S    
C40   C55   1.367647 A    
C108  H28   1.083669 S    
C21   N69   1.476340 S    
C63   C94   1.412281 S    
N70   O76   1.300555 A    
N36   O7    1.300167 A    
N61   O57   1.300470 A    
C48   H16   1.071168 S    
C23   C26   1.563441 S    
C66   C82   1.398231 A    
C28   N60   1.471836 S    
N10   N27   1.404396 A    
C70   C86   1.398213 A    
N35   O5    1.301361 A    
C26   N74   1.468838 S    
C29   N61   1.474009 S    
N71   O77   1.301164 A    
N35   O6    1.295879 A    
N14   N31   1.397789 A    
N67   O69   1.301164 A    
N4    Ni4   1.893832 S    
N2    N19   1.404396 A    
C103  C106  1.391109 A    
C24   N72   1.475558 S    
C42   N26   1.330490 A    
C26   C71   1.508914 S    
N42   O20   1.294647 A    
N53   O42   1.300762 A    
C30   C67   1.502226 S    
N65   O66   1.301193 A    
N54   O43   1.300173 A    
C34   N18   1.334276 A    
C14   N46   1.422532 S    
C94   C102  1.397873 A    
C85   C109  1.414252 A    
C68   C84   1.403347 A    
C13   C61   1.365863 A    
C9    C57   1.369515 A    
C22   C75   1.516460 S    
C6    N38   1.431509 S    
C17   C80   1.510530 S    
N9    Ni5   1.903928 S    
N33   O1    1.301685 A    
C5    C53   1.372001 A    
C18   C79   1.508604 S    
C29   N77   1.474628 S    
C43   C58   1.373773 A    
C79   C95   1.394277 A    
N11   Ni7   1.898285 S    
N50   O36   1.301342 A    
C65   C80   1.358926 A    
N48   O31   1.301636 A    
C2    N34   1.433922 S    
C66   C79   1.356272 A    
N33   O2    1.296070 A    
C23   N55   1.473736 S    
N45   O26   1.300606 A    
N73   O81   1.301504 A    
N19   Ni1   1.898304 S    
C97   H17   1.083495 S    
C17   C32   1.570711 S    
C18   C31   1.545464 S    
C92   C100  1.400118 A    
C19   C30   1.553591 S    
C93   C101  1.412582 A    
C101  H21   1.082781 S    
N75   O85   1.301716 A    
C96   C104  1.397409 A    
C2    N2    1.335653 A    
C18   N50   1.473150 S    
C47   H15   1.073402 S    
C20   N68   1.473631 S    
N56   O47   1.300366 A    
C48   C63   1.370179 A    
C33   H1    1.072332 S    
C88   C112  1.409557 A    
C27   N75   1.477046 S    
N63   O62   1.301415 A    
N1    N18   1.397805 A    
N43   O22   1.298879 A    
C31   N63   1.471063 S    
N55   O46   1.300396 A    
C99   C110  1.372452 A    
C65   C81   1.391986 A    
C78   C94   1.399421 A    
N13   Ni7   1.898060 S    
C111  H31   1.084215 S    
C9    N41   1.432251 S    
N38   O11   1.300422 A    
C112  H32   1.083079 S    
C90   C98   1.405647 A    
C36   H4    1.074462 S    
C89   C97   1.386904 A    
C10   N10   1.320336 A    
C103  H23   1.080179 S    
N4    N17   1.404397 A    
C104  H24   1.084339 S    
C25   C72   1.520050 S    
C14   N14   1.337523 A    
C27   C70   1.510668 S    
N52   O39   1.301351 A    
N23   Ni3   1.904177 S    
C29   C68   1.506078 S    
C17   N65   1.469327 S    
C76   C92   1.399912 A    
C77   C93   1.399830 A    
N58   O52   1.301904 A    
C45   H13   1.069418 S    
C31   C66   1.514436 S    
C71   C87   1.393005 A    
C3    C51   1.376306 A    
N65   O65   1.301499 A    
C38   C53   1.357461 A    
N34   O3    1.299900 A    
N57   O50   1.301752 A    
C8    N40   1.421099 S    
C3    N35   1.429283 S    
C16   N48   1.429891 S    
N11   N28   1.397806 A    
N49   O34   1.301717 A    
C37   C56   1.373120 A    
C24   C25   1.551908 S    
N7    Ni1   1.903886 S    
C39   C54   1.376845 A    
N64   O64   1.301663 A    
N3    N20   1.397806 A    
C43   H11   1.076226 S    
N74   O83   1.301493 A    
C14   C62   1.380724 A    
N72   O79   1.297536 A    
N18   Ni4   1.888318 S    
C28   N76   1.473547 S    
N46   O28   1.298410 A    
C23   N71   1.467849 S    
N66   O68   1.302705 A    
C23   C74   1.514895 S    
C32   N64   1.473333 S    
C21   C76   1.517505 S    
C109  H29   1.080244 S    
N78   O91   1.301412 A    
C46   N30   1.332972 A    
C71   C74   1.351391 A    
N69   O74   1.302537 A    
C69   C76   1.364708 A    
N44   O23   1.299341 A    
C70   C75   1.362607 A    
C35   C50   1.378686 A    
N41   O18   1.295735 A    
C61   C96   1.417723 S    
N68   O72   1.300975 A    
N77   O89   1.298004 A    
C104  C105  1.384663 A    
N60   O55   1.301952 A    
C99   H19   1.084199 S    
C11   N43   1.438497 S    
C44   C59   1.374718 A    
N2    Ni2   1.887845 S    
