data_mof_unit_10773.cif
_audit_creation_date              2012-12-11T17:47:30-0500
_audit_creation_method            fapswitch 2.2
_symmetry_space_group_name_H-M    P1
_symmetry_Int_Tables_number       1
_space_group_crystal_system       triclinic
_cell_length_a                    14.852229
_cell_length_b                    14.903722
_cell_length_c                    15.193892
_cell_angle_alpha                 110.537978
_cell_angle_beta                  108.168755
_cell_angle_gamma                 109.018359
_cell_volume                      2609.91396332

loop_
_atom_site_label
_atom_site_type_symbol
_atom_type_description
_atom_site_fract_x
_atom_site_fract_y
_atom_site_fract_z
_atom_type_partial_charge
C1    C     C_R   0.906007 0.195102 0.993198 -0.034724
C2    C     C_R   0.835014 0.965355 0.932542 -0.269697
C3    C     C_R   0.128719 0.014468 0.722438 0.284483
C4    C     C_R   0.903951 0.977436 0.244694 0.280993
C5    C     C_R   0.035042 0.981157 0.734221 -0.294387
C6    C     C_R   0.920032 0.959664 0.154933 -0.233843
C7    C     C_R   0.644252 0.271702 0.181119 0.540295
C8    C     C_R   0.432208 0.645349 0.741984 0.564895
C9    C     C_R   0.746641 0.357525 0.265706 -0.169700
C10   C     C_R   0.318781 0.585370 0.692015 -0.202024
C11   C     C_R   0.813892 0.337743 0.335728 0.022340
C12   C     C_R   0.024247 0.750854 0.938249 -0.167005
C13   C     C_R   0.256414 0.637369 0.678224 -0.000969
C14   C     C_R   0.774941 0.231151 0.321911 -0.329176
C15   C     C_R   0.308569 0.751600 0.720674 -0.120122
C16   C     C_R   0.296870 0.804078 0.205002 -0.233141
C17   C     C_R   0.687304 0.217797 0.781481 -0.249047
C18   C     C_R   0.670606 0.145759 0.239828 0.595155
C19   C     C_R   0.421831 0.813382 0.773471 0.570115
C20   C     C_R   0.606454 0.166170 0.168944 -0.325498
C21   C     C_R   0.483523 0.759496 0.781544 -0.509566
C22   C     C_R   0.952350 0.432594 0.522942 -0.269750
C23   C     C_R   0.298337 0.867632 0.296439 -0.123126
C24   C     C_R   0.111345 0.570873 0.502354 -0.250959
C25   C     C_R   0.059105 0.500041 0.607146 0.080554
C26   C     C_R   0.006146 0.498669 0.416593 0.077554
C27   C     C_R   0.140126 0.570565 0.597684 0.115492
C28   C     C_R   0.924872 0.426016 0.425063 0.081433
C29   C     C_R   0.043675 0.008664 0.835847 0.090764
C30   C     C_R   0.831534 0.892244 0.050357 0.058435
C31   C     C_R   0.240093 0.098628 0.914991 -0.164155
C32   C     C_R   0.709419 0.861336 0.124876 -0.048607
C33   C     C_R   0.245056 0.123561 0.264126 -0.226735
C34   C     C_R   0.679589 0.166930 0.682383 -0.023154
C35   C     C_R   0.681416 0.848873 0.656677 -0.112104
C36   C     C_R   0.307840 0.079462 0.301164 -0.099744
C37   C     C_R   0.633930 0.912108 0.638983 -0.185278
C38   C     C_R   0.348034 0.102526 0.407992 0.099900
C39   C     C_R   0.632229 0.938077 0.558522 0.066343
C40   C     C_R   0.223917 0.408263 0.974892 0.529123
C41   C     C_R   0.786453 0.589984 0.092643 0.535794
C42   C     C_R   0.325400 0.172384 0.477226 -0.377598
C43   C     C_R   0.681203 0.902782 0.498113 -0.137583
C44   C     C_R   0.263275 0.218127 0.440299 0.616965
C45   C     C_R   0.324290 0.500027 0.051660 -0.068135
C46   C     C_R   0.730471 0.840990 0.516648 0.534226
C47   C     C_R   0.223117 0.192749 0.333379 -0.151021
C48   C     C_R   0.729525 0.813335 0.596088 -0.279114
C49   C     C_R   0.511585 0.127558 0.548580 -0.244605
C50   C     C_R   0.469661 0.915005 0.426372 -0.242014
C51   C     C_R   0.581444 0.089350 0.585268 0.106437
C52   C     C_R   0.398086 0.951373 0.390289 0.074194
C53   C     C_R   0.562332 0.983455 0.523651 0.083789
C54   C     C_R   0.418625 0.059102 0.449079 0.044308
C55   C     C_R   0.231545 0.072338 0.814032 -0.096080
C56   C     C_R   0.691035 0.497905 0.055174 -0.035493
C57   C     C_R   0.797288 0.926468 0.228339 -0.133391
C58   C     C_R   0.847998 0.888332 0.958018 0.029994
C59   C     C_R   0.947920 0.957222 0.847453 0.038835
C60   C     C_R   0.146865 0.068164 0.926130 -0.068243
C61   C     C_R   0.726400 0.844426 0.036498 -0.088268
C62   C     C_R   0.898875 0.834268 0.912958 0.072412
C63   C     C_R   0.901774 0.014560 0.896580 0.092471
C64   C     C_R   0.025763 0.590917 0.310523 -0.158920
C65   C     C_R   0.013662 0.410756 0.706630 -0.253294
C66   C     C_3   0.485870 0.393348 0.007559 -0.177486
C67   C     C_R   0.989856 0.497726 0.318952 -0.157254
C68   C     C_3   0.538269 0.604760 0.128852 -0.328825
C69   C     C_3   0.436107 0.456173 0.967111 -0.333647
C70   C     C_3   0.589547 0.541867 0.170248 -0.280831
C71   C     C_3   0.425782 0.501891 0.069462 -0.026450
C72   C     C_3   0.598353 0.495953 0.067132 0.070417
C73   C     C_3   0.475429 0.440350 0.109416 0.627598
C74   C     C_3   0.547621 0.556791 0.027113 0.577303
C75   C     C_R   0.313791 0.591862 0.067228 -0.185533
C76   C     C_R   0.694314 0.407203 0.995385 -0.172677
C77   C     C_R   0.942909 0.406929 0.219553 0.539923
C78   C     C_R   0.074721 0.501832 0.705384 0.008486
C79   C     C_R   0.099426 0.591612 0.794843 0.484650
C80   C     C_R   0.207559 0.804303 0.297620 0.549431
C81   C     C_R   0.780488 0.212561 0.690496 0.509087
C82   C     C_R   0.995058 0.194103 0.900740 -0.041251
C83   C     C_R   0.928891 0.745063 0.026272 -0.095369
C84   C     C_R   0.936006 0.130672 0.930900 -0.038462
C85   C     C_R   0.945713 0.775874 0.954897 0.042118
C86   C     C_3   0.196437 0.061183 0.607459 -0.938151
C87   C     C_3   0.980717 0.083354 0.442613 -0.870586
C88   C     C_R   0.926811 0.856349 0.840072 -0.253732
H1    H     H_    0.842137 0.166889 0.012198 0.154830
H2    H     H_    0.260762 0.791944 0.708363 0.153106
H3    H     H_    0.888489 0.383470 0.533098 0.160790
H4    H     H_    0.173599 0.623040 0.492548 0.144423
H5    H     H_    0.955652 0.932009 0.664218 0.136531
H6    H     H_    0.001316 0.000539 0.166484 0.128499
H7    H     H_    0.353546 0.829878 0.176765 0.153760
H8    H     H_    0.624181 0.197271 0.803652 0.145053
H9    H     H_    0.154767 0.087037 0.004633 0.109130
H10   H     H_    0.657496 0.794720 0.957383 0.122790
H11   H     H_    0.174598 0.226716 0.303820 0.145591
H12   H     H_    0.056987 0.763197 0.886937 0.133815
H13   H     H_    0.765349 0.763869 0.610617 0.130329
H14   H     H_    0.214105 0.104804 0.181703 0.143159
H15   H     H_    0.679067 0.825391 0.715985 0.145349
H16   H     H_    0.326734 0.029172 0.246736 0.132881
H17   H     H_    0.593838 0.936039 0.684098 0.141630
H18   H     H_    0.355878 0.191180 0.559747 0.140416
H19   H     H_    0.678123 0.920567 0.434231 0.140863
H20   H     H_    0.532446 0.212224 0.596275 0.149079
H21   H     H_    0.450814 0.830695 0.379754 0.139958
H22   H     H_    0.957688 0.810580 0.797726 0.137112
H23   H     H_    0.319183 0.142567 0.984899 0.152224
H24   H     H_    0.790953 0.001158 0.962530 0.132090
H25   H     H_    0.373764 0.423432 0.883968 0.174685
H26   H     H_    0.653460 0.574143 0.252385 0.170396
H27   H     H_    0.462900 0.306981 0.955616 0.137593
H28   H     H_    0.558901 0.691159 0.177422 0.155773
H29   H     H_    0.061365 0.675005 0.372377 0.201026
H30   H     H_    0.986166 0.326997 0.649963 0.158801
H31   H     H_    0.377502 0.676531 0.116040 0.135647
H32   H     H_    0.638234 0.322273 0.964378 0.154060
H33   H     H_    0.009444 0.164032 0.833718 0.158665
H34   H     H_    0.627645 0.824433 0.113207 0.132939
H35   H     H_    0.869230 0.744571 0.051419 0.174717
H36   H     H_    0.305369 0.096138 0.807999 0.121022
H37   H     H_    0.780873 0.936434 0.294659 0.130984
H38   H     H_    0.039194 0.943836 0.556655 0.193412
H39   H     H_    0.168832 0.034431 0.521411 0.265272
H40   H     H_    0.276153 0.064574 0.641115 0.252402
H41   H     H_    0.205424 0.144149 0.648518 0.251282
H42   H     H_    0.061664 0.035608 0.358797 0.179628
H43   H     H_    0.946683 0.012788 0.454248 0.262327
H44   H     H_    0.926028 0.119415 0.433957 0.243046
H45   H     H_    0.526643 0.099768 0.104632 0.154993
H46   H     H_    0.059995 0.147822 0.514754 0.265218
H47   H     H_    0.514909 0.223718 0.054633 0.307660
H48   H     H_    0.568041 0.641939 0.778460 0.320753
H49   H     H_    0.681647 0.042799 0.287068 0.307632
H50   H     H_    0.549535 0.956690 0.847054 0.308423
H51   H     H_    0.437098 0.431345 0.216599 0.311466
H52   H     H_    0.529025 0.632623 0.950289 0.321658
H53   H     H_    0.273393 0.296174 0.578642 0.313604
H54   H     H_    0.805990 0.762934 0.476302 0.304653
H55   H     H_    0.264472 0.296386 0.959819 0.338060
H56   H     H_    0.570689 0.806063 0.816121 0.125216
H57   H     H_    0.771941 0.697065 0.195935 0.331459
H58   H     H_    0.941819 0.297218 0.258484 0.322538
H59   H     H_    0.203172 0.736341 0.915336 0.309903
H60   H     H_    0.224000 0.915355 0.423940 0.313633
H61   H     H_    0.886804 0.188961 0.656728 0.301078
H62   H     H_    0.774004 0.439001 0.275661 0.134808
H63   H     H_    0.279046 0.496913 0.656827 0.176896
H64   H     H_    0.826185 0.214315 0.374829 0.139109
N1    N     N_R   0.947560 0.293820 0.002910 -0.050087
N2    N     N_R   0.789450 0.443190 0.997090 -0.076557
N3    N     N_R   0.945970 0.443180 0.152110 -0.082398
N4    N     N_R   0.054030 0.556820 0.847890 -0.102287
N5    N     N_R   0.151530 0.706170 0.208880 -0.071102
N6    N     N_R   0.848470 0.293830 0.791120 -0.105225
N7    N     N_R   0.004980 0.293810 0.946140 -0.059951
N8    N     N_R   0.995020 0.706190 0.053860 -0.040361
N9    N     N_2   0.117753 0.983325 0.617839 -0.104742
N10   N     N_2   0.996091 0.048639 0.349230 -0.106350
N11   N     N_R   0.052440 0.706180 0.997090 -0.054695
N12   N     N_R   0.208960 0.706170 0.152110 -0.068812
N13   N     N_R   0.791040 0.293830 0.847890 -0.060806
N14   N     N_R   0.154330 0.443160 0.946140 -0.076932
N15   N     N_R   0.845670 0.556840 0.053860 -0.084469
N16   N     N_R   0.002190 0.556820 0.208880 -0.067367
N17   N     N_R   0.997810 0.443180 0.791120 -0.066869
N18   N     N_R   0.210550 0.556810 0.002910 -0.071743
Ni1   Ni    Ni4+2 0.869690 0.369690 0.000000 0.221890
Ni2   Ni    Ni4+2 0.130310 0.630310 0.000000 0.194965
Ni3   Ni    Ni4+2 0.001390 0.369680 0.869810 0.210663
Ni4   Ni    Ni4+2 0.998610 0.630320 0.130190 0.287187
O1    O     O_3   0.582844 0.293099 0.111373 -0.762957
O2    O     O_3   0.828323 0.694437 0.175303 -0.763177
O3    O     O_3   0.906287 0.298886 0.192508 -0.795915
O4    O     O_3   0.182605 0.695649 0.838590 -0.782347
O5    O     O_3   0.169272 0.838476 0.367295 -0.779480
O6    O     O_3   0.809573 0.167390 0.615971 -0.786342
O7    O     O_3   0.489925 0.589437 0.746176 -0.737467
O8    O     O_3   0.629249 0.041999 0.226972 -0.767865
O9    O     O_3   0.469442 0.925031 0.812009 -0.771812
O10   O     O_3   0.434068 0.378616 0.152421 -0.758362
O11   O     O_3   0.585861 0.614689 0.980066 -0.761886
O12   O     O_3   0.240029 0.286971 0.506266 -0.767552
O13   O     O_3   0.776070 0.806702 0.454327 -0.791969
O14   O     O_3   0.201406 0.301617 0.920448 -0.792454

loop_
_geom_bond_atom_site_label_1
_geom_bond_atom_site_label_2
_ccdc_geom_bond_type
C8    O7    S    
N13   Ni1   S    
C58   C62   A    
C56   C76   A    
C45   C71   S    
H55   O14   S    
C14   C18   A    
C61   H10   S    
C67   C77   A    
C24   C27   A    
C23   C52   S    
C6    C30   A    
C16   N12   A    
C1    C84   A    
N16   Ni4   S    
H54   O13   S    
C2    H24   S    
C34   C51   S    
C76   H32   S    
C12   C85   A    
C26   C67   S    
C19   C21   A    
C24   C26   A    
C32   C61   A    
C38   C42   A    
C35   H15   S    
C57   H37   S    
C11   C14   A    
C66   C69   S    
C18   O8    S    
C68   C74   S    
C49   C54   A    
C30   C58   S    
N4    N17   A    
C33   C36   A    
C47   H11   S    
C87   H43   S    
C69   C71   S    
C59   C88   A    
C79   N4    A    
C55   H36   S    
C3    C55   A    
C66   C72   S    
C83   N8    A    
C29   C59   S    
C6    H6    S    
C22   C25   A    
C7    O1    S    
H48   O7    S    
C50   C52   A    
C65   H30   S    
H57   O2    S    
C65   C78   A    
C34   C81   A    
C23   C80   A    
H38   N9    S    
C82   H33   S    
C40   N14   A    
C44   C47   A    
N5    Ni4   S    
C74   O11   S    
C88   H22   S    
C16   C23   A    
H42   N10   S    
C22   C28   A    
C87   H46   S    
C42   C44   A    
C32   C57   A    
C75   N18   A    
C35   C48   A    
C24   H4    S    
C26   C28   A    
C52   C54   A    
C49   H20   S    
C5    C29   A    
C40   C45   A    
C37   C39   A    
C62   C85   S    
C46   C48   A    
C9    H62   S    
C50   C53   A    
C66   H27   S    
C86   H40   S    
C33   H14   S    
C64   C67   A    
C32   H34   S    
C75   H31   S    
C81   O6    S    
C72   C74   S    
C60   H9    S    
C19   O9    S    
C86   N9    S    
C73   O10   S    
C78   C79   A    
C39   C43   A    
H49   O8    S    
C49   C51   A    
C66   C73   S    
C62   C88   A    
N4    Ni2   S    
C50   H21   S    
C70   H26   S    
C64   H29   S    
C25   C78   S    
H58   O3    S    
C65   N17   A    
C51   C53   A    
H47   O1    S    
C31   C60   A    
C4    C57   A    
C15   C19   A    
C80   O5    S    
C41   C56   A    
C37   H17   S    
N11   Ni2   S    
C10   H63   S    
C9    C11   A    
N6    Ni3   S    
C38   C54   S    
C29   C60   A    
N3    N16   A    
C22   H3    S    
C69   H25   S    
N1    Ni1   S    
C70   C73   S    
C8    C21   A    
C79   O4    S    
C69   C74   S    
C17   H8    S    
C43   H19   S    
C1    N1    A    
H50   O9    S    
C42   H18   S    
N5    N12   A    
C68   H28   S    
N15   Ni4   S    
C4    C6    A    
C83   C85   A    
C41   O2    S    
N14   N18   A    
H60   O5    S    
C82   C84   A    
C13   C15   A    
C20   H45   S    
C4    N10   S    
N2    N15   A    
N12   Ni2   S    
C17   C34   A    
H52   O11   S    
C46   O13   S    
N1    N7    A    
C35   C37   A    
C71   C73   S    
N17   Ni3   S    
C7    C9    A    
C2    C63   A    
N14   Ni3   S    
C1    H1    S    
C81   N6    A    
C56   C72   S    
C86   H39   S    
N8    Ni4   S    
C8    C10   A    
C21   H56   S    
C3    C5    A    
C10   C13   A    
C5    H5    S    
C2    C58   A    
C86   H41   S    
C40   O14   S    
C25   C27   A    
C59   C63   A    
C36   H16   S    
C63   C84   S    
C45   C75   A    
C83   H35   S    
C36   C38   A    
C64   N16   A    
C17   N13   A    
C77   N3    A    
C12   N11   A    
C82   N7    A    
C16   H7    S    
H59   O4    S    
C80   N5    A    
C39   C53   S    
N18   Ni2   S    
C11   C28   S    
C68   C71   S    
C33   C47   A    
C48   H13   S    
C41   N15   A    
C76   N2    A    
C87   H44   S    
N2    Ni1   S    
C18   C20   A    
H61   O6    S    
C43   C46   A    
C77   O3    S    
C12   H12   S    
C3    N9    S    
N3    Ni1   S    
C87   N10   S    
C68   C70   S    
C7    C20   A    
N7    Ni3   S    
C30   C61   A    
C14   H64   S    
C31   H23   S    
C13   C27   S    
C70   C72   S    
H53   O12   S    
C31   C55   A    
H51   O10   S    
N6    N13   A    
C44   O12   S    
C15   H2    S    
N8    N11   A    
