data_mof_unit_7512.cif
_audit_creation_date              2012-12-10T18:47:43-0500
_audit_creation_method            fapswitch 2.2
_symmetry_space_group_name_H-M    P1
_symmetry_Int_Tables_number       1
_space_group_crystal_system       triclinic
_cell_length_a                    9.829998
_cell_length_b                    10.779416
_cell_length_c                    15.733896
_cell_angle_alpha                 91.854891
_cell_angle_beta                  68.10636
_cell_angle_gamma                 89.393011
_cell_volume                      1545.67543646

loop_
_atom_site_label
_atom_site_type_symbol
_atom_type_description
_atom_site_fract_x
_atom_site_fract_y
_atom_site_fract_z
_atom_type_partial_charge
C1    C     C_R   0.503776 0.739668 0.492050 0.970519
C2    C     C_R   0.496224 0.260332 0.507949 0.970514
C3    C     C_R   0.343591 0.434894 0.094938 -0.131878
C4    C     C_R   0.656421 0.565065 0.905056 -0.131867
C5    C     C_R   0.240188 0.419427 0.055095 -0.163495
C6    C     C_R   0.759822 0.580536 0.944900 -0.163485
C7    C     C_R   0.634690 0.935287 0.477261 0.358557
C8    C     C_R   0.365311 0.064712 0.522737 0.358555
C9    C     C_R   0.625738 0.060319 0.500572 0.314316
C10   C     C_R   0.374264 0.939681 0.499426 0.314321
C11   C     C_R   0.494080 0.127180 0.515252 -0.412654
C12   C     C_R   0.505921 0.872819 0.484747 -0.412651
C13   C     C_R   0.961027 0.418539 0.443393 0.459328
C14   C     C_R   0.038973 0.581461 0.556607 0.459331
C15   C     C_R   0.105461 0.417364 0.444458 0.308548
C16   C     C_R   0.894539 0.582636 0.555542 0.308548
C17   C     C_R   0.409881 0.490116 0.674967 0.917767
C18   C     C_R   0.590119 0.509880 0.325032 0.917772
C19   C     C_R   0.359061 0.467488 0.773792 -0.268162
C20   C     C_R   0.640941 0.532498 0.226206 -0.268159
C21   C     C_R   0.174761 0.421764 0.921542 -0.248387
C22   C     C_R   0.825243 0.578213 0.078454 -0.248388
C23   C     C_R   0.213826 0.436447 0.827644 0.314703
C24   C     C_R   0.786175 0.563539 0.172354 0.314702
C25   C     C_R   0.465169 0.468104 0.814491 0.413011
C26   C     C_R   0.534836 0.531869 0.185505 0.413018
C27   C     C_R   0.420952 0.477440 0.909844 -0.036341
C28   C     C_R   0.579056 0.522526 0.090151 -0.036344
C29   C     C_R   0.276585 0.443074 0.962993 0.038529
C30   C     C_R   0.723422 0.556894 0.037003 0.038525
C31   C     C_R   0.520167 0.509907 0.952821 0.080803
C32   C     C_R   0.479843 0.490053 0.047173 0.080802
H1    H     H_    0.134052 0.383017 0.095191 0.151181
H2    H     H_    0.865957 0.616947 0.904804 0.151187
H3    H     H_    0.065456 0.391551 0.961884 0.189996
H4    H     H_    0.934548 0.608427 0.038113 0.189996
H5    H     H_    0.315428 0.400821 0.162939 0.210127
H6    H     H_    0.684584 0.599136 0.837054 0.210124
N1    N     N_R   0.142780 0.500030 0.500020 -0.184391
N2    N     N_R   0.857220 0.499970 0.499980 -0.184388
O1    O     O_R   0.385370 0.683250 0.500010 -0.557676
O2    O     O_R   0.614630 0.316750 0.499990 -0.557678
O3    O     O_R   0.614700 0.683220 0.500000 -0.530392
O4    O     O_R   0.385300 0.316780 0.500000 -0.530392
O5    O     O_R   0.319830 0.500020 0.632250 -0.574341
O6    O     O_R   0.680170 0.499980 0.367750 -0.574340
O7    O     O_R   0.549160 0.499990 0.632240 -0.539864
O8    O     O_R   0.450840 0.500010 0.367760 -0.539864
Zn1   Zn    Zn3+2 0.346870 0.500020 0.500000 1.116370
Zn2   Zn    Zn3+2 0.653130 0.499980 0.500000 1.116370
O9    O     O_3   0.387861 0.554256 0.238686 -0.609424
C33   C     C_3   0.359127 0.683459 0.246196 -0.139978
H7    H     H_    0.378183 0.722022 0.178036 0.155922
H8    H     H_    0.425996 0.732769 0.279688 0.159095
H9    H     H_    0.241973 0.700876 0.289921 0.232432
O10   O     O_3   0.612141 0.445709 0.761307 -0.609426
C34   C     C_3   0.640861 0.316504 0.753789 -0.139956
H10   H     H_    0.758014 0.299081 0.710065 0.232440
H11   H     H_    0.573989 0.267208 0.720291 0.159087
H12   H     H_    0.621797 0.277928 0.821946 0.155916
Cl1   Cl    Cl    0.914858 0.607597 0.220269 -0.620299
Cl2   Cl    Cl    0.085140 0.392401 0.779729 -0.620298
Cl3   Cl    Cl    0.812144 0.863230 0.429580 -0.388111
Cl4   Cl    Cl    0.187857 0.136768 0.570418 -0.388112
Cl5   Cl    Cl    0.777208 0.124832 0.520443 -0.411529
Cl6   Cl    Cl    0.222795 0.875168 0.479552 -0.411518
O11   O     O_3   0.918056 0.330576 0.392906 -0.513054
C35   C     C_3   0.993384 0.342530 0.297726 -0.102426
H13   H     H_    0.064704 0.259004 0.268925 0.193765
H14   H     H_    0.061427 0.426743 0.278749 0.163881
H15   H     H_    0.911947 0.345057 0.264422 0.177337
O12   O     O_3   0.081945 0.669426 0.607093 -0.513054
C36   C     C_3   0.006619 0.657472 0.702273 -0.102427
H16   H     H_    0.938577 0.573258 0.721250 0.163876
H17   H     H_    0.935299 0.740997 0.731074 0.193766
H18   H     H_    0.088057 0.654945 0.735575 0.177337
Cl7   Cl    Cl    0.235856 0.306451 0.375419 -0.493810
Cl8   Cl    Cl    0.764144 0.693548 0.624582 -0.493821

loop_
_geom_bond_atom_site_label_1
_geom_bond_atom_site_label_2
_ccdc_geom_bond_type
O4    Zn1   S    
C16   N2    A    
C24   Cl1   S    
C27   C29   A    
C36   H16   S    
C25   O10   S    
C17   O5    A    
C8    C11   A    
C34   H11   S    
O10   C34   S    
C13   N2    A    
C14   N1    A    
C1    O3    A    
C23   Cl2   S    
C20   C24   A    
C2    O4    A    
C35   H13   S    
C5    H1    S    
C14   C16   A    
C18   C20   S    
C33   H9    S    
C36   H17   S    
C1    C12   S    
C2    C11   S    
C18   O6    A    
O1    Zn1   S    
C33   H8    S    
O7    Zn2   S    
C5    C29   A    
C10   Cl6   S    
C7    C12   A    
C27   C31   A    
O9    C33   S    
C28   C32   A    
C4    C6    A    
C34   H12   S    
C21   C29   A    
O11   C35   S    
C19   C23   A    
C31   C32   A    
O5    Zn1   S    
C7    Cl3   S    
C9    C11   A    
C15   N1    A    
C10   C12   A    
O2    Zn2   S    
C1    O1    A    
O8    Zn1   S    
N1    Zn1   S    
C8    Cl4   S    
C21   C23   A    
C36   H18   S    
C22   C24   A    
C33   H7    S    
C13   O11   S    
C7    C9    A    
C22   C30   A    
C6    C30   A    
C14   O12   S    
C17   O7    A    
C4    H6    S    
O12   C36   S    
C3    C5    A    
C18   O8    A    
O3    Zn2   S    
C21   H3    S    
C25   C27   A    
C22   H4    S    
O6    Zn2   S    
C26   C28   A    
C13   C15   A    
C26   O9    S    
C34   H10   S    
C15   Cl7   S    
C20   C26   A    
C2    O2    A    
C35   H15   S    
N2    Zn2   S    
C28   C30   A    
C17   C19   S    
C16   Cl8   S    
C3    C32   A    
C19   C25   A    
C9    Cl5   S    
C4    C31   A    
C6    H2    S    
C3    H5    S    
C8    C10   A    
C35   H14   S    
