data_mof_unit_40324.cif
_audit_creation_date              2012-10-26T18:23:42-0400
_audit_creation_method            fapswitch 2.2
_symmetry_space_group_name_H-M    P1
_symmetry_Int_Tables_number       1
_space_group_crystal_system       triclinic
_cell_length_a                    18.839985
_cell_length_b                    18.742994
_cell_length_c                    18.909607
_cell_angle_alpha                 109.571782
_cell_angle_beta                  109.705736
_cell_angle_gamma                 109.268927
_cell_volume                      5131.7020637

loop_
_atom_site_label
_atom_site_type_symbol
_atom_type_description
_atom_site_fract_x
_atom_site_fract_y
_atom_site_fract_z
_atom_type_partial_charge
C1    C     C_R   0.382092 0.500890 0.381127 0.578262
C2    C     C_R   0.786642 0.227631 0.742545 -0.158000
C3    C     C_R   0.020426 0.749406 0.329387 -0.036854
C4    C     C_R   0.031136 0.784485 0.073720 -0.072995
C5    C     C_R   0.845048 0.854045 0.823645 0.286162
C6    C     C_R   0.012787 0.774078 0.991817 -0.082386
C7    C     C_R   0.925375 0.729529 0.923539 0.368328
C8    C     C_R   0.858780 0.702260 0.942503 -0.062727
C9    C     C_R   0.877275 0.711266 0.024089 -0.172940
C10   C     C_R   0.963551 0.750516 0.089414 0.024032
C11   C     C_R   0.265122 0.208357 0.841722 -0.117256
C12   C     C_R   0.185915 0.207519 0.825887 0.302539
C13   C     C_R   0.709314 0.230162 0.720363 -0.118840
C14   C     C_R   0.163534 0.256373 0.788645 0.044273
C15   C     C_R   0.223041 0.310147 0.773364 0.244905
C16   C     C_R   0.301696 0.310839 0.791779 -0.053718
C17   C     C_3   0.314213 0.734698 0.501173 -0.080424
C18   C     C_3   0.897674 0.118806 0.081236 -0.106037
C19   C     C_3   0.865681 0.069331 0.812764 -0.134954
C20   C     C_3   0.355118 0.737438 0.708742 -0.090434
C21   C     C_3   0.170027 0.380331 0.362834 -0.095625
C22   C     C_3   0.060061 0.266540 0.493503 -0.052561
C23   C     C_3   0.794495 0.512530 0.469076 -0.125208
C24   C     C_R   0.681422 0.258289 0.661453 0.230844
C25   C     C_3   0.069614 0.757444 0.681144 -0.120883
C26   C     C_3   0.127503 0.654257 0.305935 -0.100656
C27   C     C_3   0.985858 0.960206 0.917772 -0.147803
C28   C     C_3   0.967649 0.725730 0.819240 -0.117132
C29   C     C_3   0.164208 0.153392 0.915392 -0.140606
C30   C     C_3   0.814132 0.271614 0.522506 -0.126837
C31   C     C_R   0.817586 0.831868 0.578085 0.204784
C32   C     C_R   0.731240 0.282381 0.624312 -0.046052
C33   C     C_R   0.808988 0.278800 0.645223 0.242656
C34   C     C_R   0.837823 0.253799 0.707019 0.021900
C35   C     C_R   0.814180 0.813395 0.498435 0.042015
C36   C     C_R   0.744424 0.736770 0.420897 -0.083721
C37   C     C_R   0.683361 0.674722 0.425398 -0.156187
C38   C     C_R   0.780892 0.868784 0.835792 -0.070990
C39   C     C_R   0.687723 0.689431 0.504652 -0.030048
C40   C     C_R   0.753448 0.770410 0.582254 -0.036356
C41   C     C_R   0.656621 0.707035 0.270970 -0.085818
C42   C     C_R   0.643042 0.686609 0.187649 -0.105468
C43   C     C_R   0.704880 0.677466 0.166391 -0.099071
C44   C     C_R   0.620852 0.619783 0.502607 0.538284
C45   C     C_R   0.780640 0.689616 0.228716 -0.096589
C46   C     C_R   0.795139 0.711696 0.312679 -0.058663
C47   C     C_R   0.732665 0.719379 0.334071 0.036224
C48   C     C_R   0.489860 0.798021 0.524723 0.243434
C49   C     C_R   0.322308 0.259913 0.825010 -0.206924
C50   C     C_R   0.413586 0.715766 0.463431 0.341815
C51   C     C_R   0.404305 0.664374 0.383038 0.001159
C52   C     C_R   0.470147 0.696675 0.363124 0.208842
C53   C     C_R   0.543212 0.779462 0.423199 -0.102587
C54   C     C_R   0.553077 0.829829 0.502771 -0.212678
C55   C     C_R   0.258998 0.576803 0.251952 -0.172458
C56   C     C_R   0.620307 0.501342 0.618608 0.539501
C57   C     C_R   0.185636 0.497363 0.183369 -0.024885
C58   C     C_R   0.177283 0.417539 0.177178 -0.023119
C59   C     C_R   0.244134 0.418880 0.241496 0.183623
C60   C     C_R   0.074796 0.314381 0.828999 -0.155057
C61   C     C_R   0.315018 0.500073 0.313306 0.038764
C62   C     C_R   0.323299 0.579159 0.317730 -0.048571
C63   C     C_R   0.029860 0.291705 0.112731 -0.110912
C64   C     C_R   0.954212 0.214947 0.041800 0.323387
C65   C     C_R   0.946105 0.180737 0.959158 0.311933
C66   C     C_R   0.017952 0.223478 0.950669 -0.165455
C67   C     C_R   0.093787 0.298789 0.022149 -0.156143
C68   C     C_R   0.379200 0.381112 0.498525 0.543832
C69   C     C_R   0.099722 0.333713 0.103166 -0.027255
C70   C     C_R   0.325002 0.568382 0.677852 -0.057464
C71   C     C_R   0.996514 0.313882 0.812053 0.007781
C72   C     C_R   0.320148 0.486772 0.648812 0.256233
C73   C     C_R   0.261289 0.420604 0.560261 0.079350
C74   C     C_R   0.206901 0.437452 0.504055 0.204435
C75   C     C_R   0.212070 0.519222 0.534973 -0.045022
C76   C     C_R   0.272351 0.586153 0.620791 0.228697
C77   C     C_R   0.188997 0.266141 0.523803 0.270527
C78   C     C_R   0.185070 0.184888 0.499816 0.007037
C79   C     C_R   0.244504 0.169027 0.477370 -0.100965
C80   C     C_R   0.706009 0.848983 0.764762 0.212786
C81   C     C_R   0.304628 0.233118 0.474060 -0.153802
C82   C     C_R   0.920060 0.251227 0.731229 0.005320
C83   C     C_R   0.310289 0.314806 0.498179 -0.057216
C84   C     C_R   0.253572 0.332715 0.526066 0.011010
C85   C     C_R   0.304125 0.089873 0.536708 -0.111849
C86   C     C_R   0.319334 0.020321 0.527526 -0.168081
C87   C     C_R   0.281613 0.949335 0.445232 -0.157721
C88   C     C_R   0.226474 0.946364 0.370957 0.319561
C89   C     C_R   0.210097 0.015960 0.379575 0.324409
C90   C     C_R   0.250290 0.089026 0.463599 -0.010785
C91   C     C_R   0.779869 0.523451 0.615167 -0.104133
C92   C     C_R   0.696512 0.814437 0.682010 -0.044330
C93   C     C_R   0.923609 0.188802 0.668931 -0.120209
C94   C     C_R   0.849588 0.520261 0.604318 0.260288
C95   C     C_R   0.906862 0.507604 0.661470 -0.071319
C96   C     C_R   0.895652 0.497671 0.727416 -0.140133
C97   C     C_R   0.826010 0.500376 0.738653 0.024787
C98   C     C_R   0.764733 0.508729 0.678655 0.013766
C99   C     C_R   0.690251 0.503255 0.684362 0.037674
C100  C     C_R   0.678552 0.492360 0.749838 -0.126474
C101  C     C_R   0.740040 0.487276 0.810457 -0.138433
C102  C     C_R   0.814606 0.493204 0.806936 0.025363
C103  C     C_R   0.999436 0.879840 0.381436 0.540823
C104  C     C_R   0.001531 0.187661 0.686401 0.015498
C105  C     C_R   0.757471 0.793819 0.667702 -0.069048
C106  C     C_R   0.881193 0.879266 0.497767 0.593529
C107  C     C_R   0.001044 0.120008 0.619026 0.583137
C108  C     C_R   0.118655 0.117685 0.499227 0.592344
C109  C     C_R   0.997634 0.381047 0.879319 0.548006
C110  C     C_R   0.118788 0.499212 0.118064 0.556055
C111  C     C_R   0.998416 0.618853 0.116658 0.574132
C112  C     C_R   0.881235 0.496842 0.878065 0.531835
C113  C     C_R   0.148779 0.804132 0.561232 -0.112397
C114  C     C_R   0.124182 0.806993 0.484370 -0.159963
C115  C     C_R   0.078102 0.251327 0.767404 -0.010251
C116  C     C_R   0.040987 0.745712 0.411100 0.052223
C117  C     C_R   0.831565 0.813161 0.739291 -0.072581
C118  C     C_R   0.984085 0.676210 0.414447 0.236383
C119  C     C_R   0.009876 0.674521 0.492262 -0.034975
C120  C     C_R   0.090929 0.739550 0.566512 0.268882
C121  C     C_R   0.020768 0.687072 0.263273 0.236695
C122  C     C_R   0.000415 0.686341 0.184493 0.014958
C123  C     C_R   0.983011 0.749744 0.171613 -0.033279
C124  C     C_R   0.982616 0.811801 0.237016 -0.106454
C125  C     C_R   0.001149 0.812625 0.315731 -0.046798
Cu1   Cu    Cu3+1 0.499980 0.561800 0.561790 1.016972
Cu2   Cu    Cu3+1 0.500020 0.438200 0.438210 0.964410
Cu3   Cu    Cu3+1 0.061810 0.999960 0.561770 0.985090
Cu4   Cu    Cu3+1 0.938190 0.999990 0.438190 0.923419
Cu5   Cu    Cu3+1 0.061790 0.561750 0.999970 0.926301
Cu6   Cu    Cu3+1 0.938180 0.438170 0.000010 1.002357
H1    H     H_    0.790853 0.898093 0.900821 0.110804
H2    H     H_    0.147394 0.331003 0.014010 0.126038
H3    H     H_    0.369272 0.617125 0.745804 0.135827
H4    H     H_    0.168328 0.530660 0.491718 0.159162
H5    H     H_    0.641775 0.804562 0.628720 0.171540
H6    H     H_    0.350162 0.220397 0.456519 0.168664
H7    H     H_    0.335621 0.145487 0.601062 0.129877
H8    H     H_    0.361281 0.021853 0.584350 0.123788
H9    H     H_    0.294822 0.896250 0.439424 0.086041
H10   H     H_    0.621084 0.487138 0.753668 0.129887
H11   H     H_    0.738529 0.539089 0.575361 0.122614
H12   H     H_    0.694073 0.660837 0.101651 0.108277
H13   H     H_    0.881445 0.801926 0.730213 0.144170
H14   H     H_    0.960909 0.505146 0.654546 0.164964
H15   H     H_    0.940855 0.485249 0.767429 0.165386
H16   H     H_    0.730471 0.481172 0.861979 0.124867
H17   H     H_    0.212986 0.852450 0.616993 0.124579
H18   H     H_    0.170197 0.857510 0.481937 0.132651
H19   H     H_    0.967194 0.621324 0.494605 0.181046
H20   H     H_    0.968754 0.860371 0.226731 0.165102
H21   H     H_    0.098230 0.815988 0.123863 0.192590
H22   H     H_    0.067468 0.799965 0.982881 0.082239
H23   H     H_    0.827647 0.681281 0.211490 0.099696
H24   H     H_    0.791675 0.671253 0.892509 0.134980
H25   H     H_    0.824306 0.685521 0.035540 0.104908
H26   H     H_    0.382920 0.260216 0.837671 0.120494
H27   H     H_    0.282535 0.168282 0.865724 0.107901
H28   H     H_    0.347141 0.350955 0.779728 0.157992
H29   H     H_    0.133559 0.363840 0.890917 0.123385
H30   H     H_    0.864991 0.140656 0.606523 0.134997
H31   H     H_    0.806831 0.205635 0.787923 0.157208
H32   H     H_    0.671488 0.210640 0.749474 0.112271
H33   H     H_    0.709926 0.305746 0.580626 0.136064
H34   H     H_    0.854387 0.722217 0.360956 0.120109
H35   H     H_    0.630891 0.614612 0.365939 0.161358
H36   H     H_    0.608221 0.713766 0.286504 0.171397
H37   H     H_    0.584337 0.677336 0.139446 0.126065
H38   H     H_    0.558442 0.900417 0.640535 0.339015
H39   H     H_    0.350366 0.782744 0.571560 0.188001
H40   H     H_    0.246706 0.693269 0.484237 0.141790
H41   H     H_    0.311662 0.769365 0.463438 0.068371
H42   H     H_    0.415937 0.590271 0.251925 0.335243
H43   H     H_    0.193423 0.291005 0.181764 0.324002
H44   H     H_    0.659450 0.890426 0.836629 0.325599
H45   H     H_    0.611496 0.893002 0.548472 0.106202
H46   H     H_    0.957446 0.154993 0.146100 0.100608
H47   H     H_    0.900435 0.066876 0.033556 0.128273
H48   H     H_    0.841507 0.086061 0.088092 0.145799
H49   H     H_    0.916877 0.050581 0.822415 0.115900
H50   H     H_    0.872701 0.113026 0.784812 0.121385
H51   H     H_    0.801823 0.008962 0.764907 0.146108
H52   H     H_    0.405080 0.732958 0.691412 0.156163
H53   H     H_    0.373388 0.746557 0.774721 0.117825
H54   H     H_    0.353677 0.796712 0.710615 0.147908
H55   H     H_    0.364769 0.415395 0.681662 0.327452
H56   H     H_    0.593579 0.804750 0.408472 0.146502
H57   H     H_    0.234889 0.385288 0.381907 0.164426
H58   H     H_    0.170943 0.437885 0.357398 0.129767
H59   H     H_    0.123264 0.321064 0.297982 0.150475
H60   H     H_    0.005946 0.228319 0.500058 0.143753
H61   H     H_    0.045004 0.228599 0.425543 0.138619
H62   H     H_    0.060900 0.328805 0.504327 0.163039
H63   H     H_    0.205040 0.832729 0.293890 0.299952
H64   H     H_    0.144881 0.059849 0.319761 0.316915
H65   H     H_    0.780078 0.566955 0.483456 0.128530
H66   H     H_    0.736741 0.449424 0.444505 0.120636
H67   H     H_    0.266384 0.637597 0.254353 0.129058
H68   H     H_    0.809607 0.505144 0.416080 0.176821
H69   H     H_    0.999657 0.706371 0.641214 0.144325
H70   H     H_    0.076923 0.822530 0.693151 0.117038
H71   H     H_    0.095408 0.760817 0.744983 0.132259
H72   H     H_    0.892836 0.615870 0.293057 0.337579
H73   H     H_    0.142835 0.606878 0.320640 0.154653
H74   H     H_    0.168016 0.718885 0.366517 0.085408
H75   H     H_    0.144975 0.658800 0.256475 0.111846
H76   H     H_    0.968384 0.011872 0.937855 0.121069
H77   H     H_    0.999365 0.956429 0.864045 0.121553
H78   H     H_    0.033049 0.319607 0.174685 0.126427
H79   H     H_    0.046870 0.979529 0.974205 0.139903
H80   H     H_    0.000564 0.689142 0.835061 0.117464
H81   H     H_    0.014675 0.796690 0.852674 0.127530
H82   H     H_    0.939290 0.700914 0.748519 0.129722
H83   H     H_    0.216323 0.220039 0.970754 0.115294
H84   H     H_    0.189373 0.107128 0.906363 0.118798
H85   H     H_    0.113835 0.129547 0.932515 0.126398
H86   H     H_    0.150002 0.356243 0.729129 0.342043
H87   H     H_    0.862281 0.931230 0.690172 0.307287
H88   H     H_    0.579236 0.245112 0.671489 0.319341
H89   H     H_    0.016335 0.200435 0.889351 0.151084
H90   H     H_    0.785191 0.311387 0.507945 0.129489
H91   H     H_    0.763147 0.201610 0.488042 0.108624
H92   H     H_    0.859336 0.275012 0.496770 0.145108
O1    O     O_R   0.409800 0.552180 0.462000 -0.493192
O2    O     O_R   0.947800 0.357590 0.909850 -0.512057
O3    O     O_R   0.142360 0.552150 0.090150 -0.514955
O4    O     O_R   0.409830 0.447810 0.357640 -0.459374
O5    O     O_R   0.037980 0.447790 0.090180 -0.483040
O6    O     O_R   0.052170 0.642340 0.090130 -0.525030
O7    O     O_R   0.947790 0.537980 0.090160 -0.470975
O8    O     O_R   0.962000 0.552140 0.909800 -0.527415
O9    O     O_R   0.857610 0.447780 0.909830 -0.515345
O10   O     O_R   0.590160 0.642370 0.552180 -0.507351
O11   O     O_R   0.590190 0.537990 0.447820 -0.536422
O12   O     O_R   0.947810 0.909820 0.357620 -0.514998
O13   O     O_R   0.590170 0.552190 0.642360 -0.502323
O14   O     O_R   0.590200 0.447820 0.538000 -0.520528
O15   O     O_R   0.409810 0.462010 0.552180 -0.513485
O16   O     O_R   0.409840 0.357630 0.447820 -0.494125
O17   O     O_R   0.052200 0.909800 0.461980 -0.521650
O18   O     O_3   0.502298 0.844726 0.606035 -0.687019
O19   O     O_3   0.350562 0.680659 0.483155 -0.543881
O20   O     O_3   0.465841 0.650460 0.286036 -0.729532
O21   O     O_3   0.242409 0.343048 0.237555 -0.715449
O22   O     O_3   0.642770 0.865451 0.774500 -0.681455
O23   O     O_R   0.962020 0.909790 0.552160 -0.467731
O24   O     O_3   0.885027 0.175983 0.052023 -0.529690
O25   O     O_3   0.866003 0.107923 0.890927 -0.541592
O26   O     O_3   0.271240 0.664391 0.646938 -0.539738
O27   O     O_3   0.373938 0.475165 0.709230 -0.680181
O28   O     O_3   0.142308 0.370721 0.420914 -0.605720
O29   O     O_3   0.139055 0.284743 0.558737 -0.540041
O30   O     O_3   0.188375 0.876560 0.288985 -0.685345
O31   O     O_3   0.155759 0.010156 0.304682 -0.672440
O32   O     O_3   0.868048 0.532994 0.542609 -0.593387
O33   O     O_3   0.117484 0.736380 0.642481 -0.529761
O34   O     O_R   0.857630 0.909810 0.447800 -0.517145
O35   O     O_3   0.904354 0.607883 0.344008 -0.705312
O36   O     O_3   0.038096 0.624225 0.274760 -0.531963
O37   O     O_3   0.920515 0.878852 0.894796 -0.543474
O38   O     O_3   0.899716 0.711627 0.838301 -0.543274
O39   O     O_3   0.124841 0.153649 0.837435 -0.558052
O40   O     O_3   0.207826 0.363030 0.741167 -0.642254
O41   O     O_3   0.883138 0.912489 0.649927 -0.695393
O42   O     O_3   0.606383 0.263477 0.639331 -0.699560
O43   O     O_3   0.862407 0.306641 0.613031 -0.574131
O44   O     O_R   0.052190 0.090140 0.642340 -0.463650
O45   O     O_R   0.947800 0.090160 0.537980 -0.529134
O46   O     O_R   0.142370 0.090150 0.552150 -0.511497
O47   O     O_R   0.037980 0.090170 0.447800 -0.521834
O48   O     O_R   0.052180 0.461950 0.909820 -0.511423

loop_
_geom_bond_atom_site_label_1
_geom_bond_atom_site_label_2
_ccdc_geom_bond_type
Cu6   O9    S    
C56   C99   S    
C87   C88   A    
C41   C42   A    
Cu2   O16   S    
C101  C102  A    
H86   O40   S    
C46   H34   S    
C23   H68   S    
C24   O42   S    
H87   O41   S    
Cu3   O46   S    
C6    C7    A    
C102  C112  S    
C95   C96   A    
C95   H14   S    
C87   H9    S    
C105  C117  A    
Cu3   Cu4   S    
C19   H50   S    
C24   C32   A    
C97   C98   A    
C57   C58   A    
C17   H41   S    
C123  C124  A    
C30   H91   S    
C26   H75   S    
C77   C78   A    
C28   H80   S    
C48   C54   A    
C27   O37   S    
Cu1   Cu2   S    
C112  O8    A    
Cu4   O12   S    
C1    O1    A    
C113  H17   S    
C108  O46   A    
C67   H2    S    
C25   H70   S    
C100  H10   S    
C98   C99   A    
C75   H4    S    
C29   H84   S    
C55   H67   S    
C61   C62   A    
C28   O38   S    
C113  C120  A    
C55   C62   A    
C41   H36   S    
C37   H35   S    
C31   C40   A    
C93   C104  A    
C36   C47   S    
C78   C108  S    
C27   H77   S    
C73   C74   A    
C54   H45   S    
C2    C13   A    
C8    H24   S    
Cu6   O2    S    
C118  C119  A    
C79   C90   S    
C66   H89   S    
Cu4   O47   S    
C3    C121  A    
C20   H54   S    
C43   H12   S    
Cu6   O5    S    
C26   O36   S    
C63   C69   A    
C9    H25   S    
C8    C9    A    
C23   H65   S    
C106  O34   A    
C112  O9    A    
C22   H62   S    
C30   O43   S    
C93   H30   S    
C71   C109  S    
Cu1   O13   S    
C9    C10   A    
C73   C84   S    
C97   C102  A    
H72   O35   S    
H43   O21   S    
C20   H53   S    
C71   C82   A    
C1    O4    A    
C119  H19   S    
C48   C50   A    
C66   C67   A    
C82   C93   A    
C5    C38   A    
C111  C122  S    
Cu2   O4    S    
C49   H26   S    
C92   H5    S    
C51   C62   S    
C63   H78   S    
C76   O26   S    
C18   O24   S    
C19   H51   S    
C81   C83   A    
C25   O33   S    
C42   H37   S    
C19   O25   S    
C13   H32   S    
C30   H90   S    
C3    C125  A    
C122  C123  A    
C25   H71   S    
C4    H21   S    
C85   C90   A    
C59   C61   A    
C70   C72   A    
C74   C75   A    
C51   C52   A    
C19   H49   S    
C56   O14   A    
C7    C8    A    
C117  H13   S    
C16   C49   A    
C18   H46   S    
C72   C73   A    
C4    C6    A    
C10   C123  S    
C110  O3    A    
C52   O20   S    
C39   C40   A    
C79   C81   A    
C109  O2    A    
C17   H39   S    
C103  O17   A    
C29   H85   S    
C60   C71   A    
C50   C51   A    
C58   C59   A    
C85   C86   A    
C27   H79   S    
C80   O22   S    
C13   C24   A    
C5    C117  A    
C59   O21   S    
C67   C69   A    
C35   C36   A    
C38   H1    S    
C80   C92   A    
C26   H73   S    
C75   C76   A    
C120  O33   S    
C22   O29   S    
C11   C49   A    
C44   O11   A    
C37   C39   A    
C104  C115  A    
H42   O20   S    
C21   H58   S    
C83   C84   A    
C74   O28   S    
C119  C120  A    
C96   C97   A    
C29   O39   S    
C33   C34   A    
C41   C47   A    
C58   C69   S    
C77   O29   S    
C12   O39   S    
C106  O23   A    
C43   C45   A    
C18   H47   S    
C121  C122  A    
C88   O30   S    
Cu4   O45   S    
C86   H8    S    
C121  O36   S    
C20   H52   S    
C20   O26   S    
Cu6   O7    S    
C23   O32   S    
C124  H20   S    
C12   C14   A    
C18   H48   S    
Cu2   O14   S    
Cu1   O1    S    
C89   O31   S    
C55   C57   A    
C70   C76   A    
C111  O6    A    
C31   C35   A    
C40   C105  S    
C26   H74   S    
C28   H81   S    
C42   C43   A    
C4    C10   A    
Cu1   O15   S    
C52   C53   A    
C86   C87   A    
C21   H57   S    
C70   H3    S    
C113  C114  A    
C21   H59   S    
C28   H82   S    
C111  O7    A    
C46   C47   A    
C101  H16   S    
Cu2   O11   S    
C103  O12   A    
C2    C34   A    
H88   O42   S    
C68   C83   S    
C65   O25   S    
C56   O13   A    
C60   H29   S    
H38   O18   S    
C48   O18   S    
C50   O19   S    
C68   O16   A    
C1    C61   S    
C17   O19   S    
C114  C116  A    
C11   C12   A    
C17   H40   S    
C57   C110  S    
C53   C54   A    
C39   C44   S    
C118  O35   S    
Cu3   O17   S    
C96   H15   S    
C23   H66   S    
Cu4   O34   S    
C77   C84   A    
C99   C100  A    
C33   O43   S    
C3    C116  S    
Cu3   O23   S    
C32   C33   A    
C91   H11   S    
C108  O47   A    
Cu5   Cu6   S    
C22   H60   S    
C109  O48   A    
C35   C106  S    
C110  O5    A    
C44   O10   A    
C64   C65   A    
C91   C94   A    
C107  O44   A    
Cu5   O48   S    
C78   C79   A    
C21   O28   S    
C29   H83   S    
Cu5   O6    S    
C64   O24   S    
C38   C80   A    
Cu5   O8    S    
C15   C16   A    
C32   H33   S    
C100  C101  A    
Cu1   O10   S    
Cu3   O44   S    
C116  C118  A    
C7    O38   S    
C27   H76   S    
C25   H69   S    
C5    O37   S    
C91   C98   A    
C53   H56   S    
C94   C95   A    
C103  C125  S    
H55   O27   S    
C6    H22   S    
C15   O40   S    
C30   H92   S    
C63   C64   A    
C45   C46   A    
C92   C105  A    
H44   O22   S    
C124  C125  A    
C88   C89   A    
Cu5   O3    S    
C36   C37   A    
C65   C66   A    
H64   O31   S    
C107  O45   A    
C81   H6    S    
H63   O30   S    
C14   C15   A    
C31   O41   S    
C60   C115  A    
C68   O15   A    
C45   H23   S    
C34   C82   S    
C114  H18   S    
C72   O27   S    
C89   C90   A    
C94   O32   S    
C22   H61   S    
C85   H7    S    
C104  C107  S    
C14   C115  S    
C11   H27   S    
C2    H31   S    
C16   H28   S    
