data_mof_unit_64931.cif
_audit_creation_date              2012-10-26T18:42:10-0400
_audit_creation_method            fapswitch 2.2
_symmetry_space_group_name_H-M    P1
_symmetry_Int_Tables_number       1
_space_group_crystal_system       triclinic
_cell_length_a                    15.855747
_cell_length_b                    19.403541
_cell_length_c                    18.24306
_cell_angle_alpha                 89.770774
_cell_angle_beta                  89.817818
_cell_angle_gamma                 89.921537
_cell_volume                      5612.53827552

loop_
_atom_site_label
_atom_site_type_symbol
_atom_type_description
_atom_site_fract_x
_atom_site_fract_y
_atom_site_fract_z
_atom_type_partial_charge
Br1   Br    Br    0.416413 0.358872 0.840545 -0.428792
Br2   Br    Br    0.597846 0.366983 0.156960 -0.433182
Br3   Br    Br    0.623938 0.609484 0.678745 -0.423441
Br4   Br    Br    0.378134 0.610846 0.323017 -0.456652
Br5   Br    Br    0.520538 0.863767 0.341280 -0.406780
Br6   Br    Br    0.483812 0.136705 0.659689 -0.390378
Br7   Br    Br    0.480043 0.862271 0.658752 -0.435860
Br8   Br    Br    0.516473 0.137469 0.341472 -0.393871
C1    C     C_R   0.500002 0.367525 0.500143 0.546996
C2    C     C_R   0.506003 0.255512 0.434151 -0.094560
C3    C     C_R   0.500112 0.708249 0.499808 -0.041069
C4    C     C_R   0.500055 0.291792 0.500351 -0.060115
C5    C     C_R   0.572818 0.963943 0.521199 -0.040733
C6    C     C_R   0.427467 0.036063 0.479578 -0.042777
C7    C     C_R   0.572744 0.035727 0.521436 -0.042119
C8    C     C_R   0.427553 0.964282 0.479313 -0.041250
C9    C     C_R   0.500069 0.071858 0.500621 0.078999
C10   C     C_R   0.500232 0.928165 0.500112 0.080758
C11   C     C_R   0.451854 0.451531 0.719488 0.393731
C12   C     C_R   0.500056 0.632491 0.499878 0.568790
C13   C     C_R   0.550587 0.453369 0.280387 0.393889
C14   C     C_R   0.457561 0.443021 0.796617 0.088140
C15   C     C_R   0.545373 0.445381 0.203200 0.083370
C16   C     C_R   0.339776 0.499922 0.500070 0.552562
C17   C     C_R   0.660227 0.499958 0.499931 0.553219
C18   C     C_R   0.500627 0.492199 0.839137 -0.044995
C19   C     C_R   0.495861 0.490913 0.161198 -0.037317
C20   C     C_R   0.543817 0.545193 0.801489 0.220724
C21   C     C_R   0.445670 0.539433 0.198586 0.236773
C22   C     C_R   0.547558 0.545269 0.724036 0.273289
C23   C     C_R   0.508061 0.816807 0.433502 0.142841
C24   C     C_R   0.448203 0.542916 0.276263 0.267803
C25   C     C_R   0.574975 0.497025 0.962571 -0.045683
C26   C     C_R   0.423038 0.479228 0.038056 -0.049314
C27   C     C_R   0.573412 0.497715 0.039691 -0.070283
C28   C     C_R   0.424086 0.481120 0.961064 -0.083964
C29   C     C_R   0.497350 0.488893 0.078625 0.099158
C30   C     C_R   0.500143 0.489324 0.921902 0.071484
C31   C     C_3   0.972026 0.441624 0.534307 -0.131631
C32   C     C_3   0.027985 0.557203 0.465504 -0.124992
C33   C     C_3   0.028166 0.442549 0.464263 -0.132350
C34   C     C_R   0.494084 0.183394 0.567103 0.139807
C35   C     C_3   0.971873 0.556278 0.535554 -0.123877
C36   C     C_1   0.250109 0.499720 0.500126 -0.006693
C37   C     C_1   0.749901 0.499780 0.499853 -0.002895
C38   C     C_3   0.027502 0.498500 0.567909 0.300953
C39   C     C_3   0.972520 0.500324 0.431903 0.301737
C40   C     C_3   0.082931 0.499415 0.499198 0.023588
C41   C     C_3   0.917089 0.499426 0.500618 0.023831
C42   C     C_1   0.174570 0.499540 0.499807 -0.010851
C43   C     C_1   0.825445 0.499590 0.500093 -0.007498
C44   C     C_R   0.508067 0.744969 0.433749 -0.084377
C45   C     C_R   0.500254 0.852776 0.499984 0.022890
C46   C     C_R   0.494166 0.255227 0.566676 -0.093694
C47   C     C_3   0.316479 0.424312 0.689635 -0.055225
C48   C     C_3   0.687722 0.431956 0.310639 -0.046607
C49   C     C_3   0.531455 0.650137 0.854300 -0.070266
C50   C     C_3   0.312909 0.569904 0.159161 -0.083275
C51   C     C_3   0.001873 0.501793 0.308398 -0.105884
C52   C     C_3   0.998213 0.496607 0.691416 -0.098893
C53   C     C_R   0.500091 0.147266 0.500569 0.019177
C54   C     C_R   0.492407 0.816213 0.566373 0.142754
C55   C     C_R   0.506120 0.183701 0.433938 0.139636
C56   C     C_R   0.492275 0.744412 0.565950 -0.088197
Cu1   Cu    Cu3+1 0.499980 0.500000 0.573360 1.060242
Cu2   Cu    Cu3+1 0.500020 0.500000 0.426640 1.059830
H1    H     H_    0.052463 0.396761 0.434605 0.121983
H2    H     H_    0.489198 0.282297 0.618321 0.208813
H3    H     H_    0.485562 0.717060 0.617494 0.184256
H4    H     H_    0.510993 0.282795 0.382406 0.204719
H5    H     H_    0.629181 0.936220 0.537305 0.143545
H6    H     H_    0.371099 0.063777 0.463467 0.140757
H7    H     H_    0.629080 0.063179 0.537659 0.141557
H8    H     H_    0.371239 0.936824 0.463046 0.142833
H9    H     H_    0.279178 0.400108 0.645314 0.154434
H10   H     H_    0.304693 0.480925 0.686916 0.118323
H11   H     H_    0.292311 0.403675 0.742402 0.158838
H12   H     H_    0.947591 0.602056 0.565239 0.131836
H13   H     H_    0.726093 0.410144 0.355905 0.153753
H14   H     H_    0.695336 0.489061 0.312063 0.122233
H15   H     H_    0.714358 0.411727 0.258791 0.163342
H16   H     H_    0.507835 0.673771 0.802557 0.153986
H17   H     H_    0.566225 0.690537 0.884580 0.179373
H18   H     H_    0.477582 0.633467 0.889356 0.114268
H19   H     H_    0.277652 0.606810 0.193990 0.185456
H20   H     H_    0.298759 0.516279 0.177877 0.092979
H21   H     H_    0.288012 0.575683 0.102705 0.130159
H22   H     H_    0.041370 0.454515 0.312157 0.119948
H23   H     H_    0.634922 0.502807 0.934678 0.167629
H24   H     H_    0.041680 0.548692 0.313215 0.122971
H25   H     H_    0.972924 0.502642 0.253131 0.153609
H26   H     H_    0.958989 0.449378 0.686674 0.125751
H27   H     H_    0.958138 0.543560 0.687599 0.132930
H28   H     H_    0.027190 0.496058 0.746676 0.154653
H29   H     H_    0.363862 0.469829 0.065798 0.115331
H30   H     H_    0.631855 0.505250 0.069141 0.135631
H31   H     H_    0.364998 0.476226 0.931979 0.135873
H32   H     H_    0.947867 0.395065 0.562963 0.123564
H33   H     H_    0.052140 0.603751 0.436823 0.128946
H34   H     H_    0.514797 0.718031 0.382191 0.197643
N1    N     N_R   0.499990 0.500020 0.683620 -0.261991
N2    N     N_R   0.500010 0.499980 0.316380 -0.259114
O1    O     O_R   0.499960 0.400180 0.561980 -0.458649
O2    O     O_3   0.603060 0.410790 0.320642 -0.508571
O3    O     O_3   0.587137 0.595020 0.840051 -0.545820
O4    O     O_3   0.399649 0.587231 0.158515 -0.528055
O5    O     O_3   0.936855 0.501272 0.361164 -0.557946
O6    O     O_3   0.063201 0.497558 0.638634 -0.560990
O7    O     O_R   0.500040 0.599820 0.438020 -0.471504
O8    O     O_R   0.500000 0.400190 0.438070 -0.464451
O9    O     O_R   0.500000 0.599810 0.561930 -0.481731
O10   O     O_R   0.379060 0.499990 0.561940 -0.492606
O11   O     O_R   0.620940 0.500010 0.438060 -0.490446
O12   O     O_R   0.379100 0.500000 0.438040 -0.467677
O13   O     O_R   0.620900 0.500000 0.561960 -0.461110
O14   O     O_3   0.402393 0.407144 0.679130 -0.507890

loop_
_geom_bond_atom_site_label_1
_geom_bond_atom_site_label_2
_ccdc_geom_bond_type
C32   C39   S    
C49   O3    S    
C16   O12   A    
Cu2   O11   S    
C19   C21   A    
C26   C29   A    
Cu2   N2    S    
C2    C55   A    
C16   O10   A    
Cu1   N1    S    
C23   C44   A    
C50   H21   S    
C32   H33   S    
C48   H15   S    
C33   H1    S    
C27   H30   S    
C35   H12   S    
C48   H13   S    
C5    C10   A    
C8    H8    S    
C27   C29   A    
C21   C24   A    
C17   O11   A    
C17   O13   A    
C47   H11   S    
C23   C45   A    
C46   H2    S    
C47   O14   S    
C37   C43   T    
C7    C9    A    
C53   C55   A    
C51   H22   S    
Cu1   O9    S    
C54   C56   A    
C3    C44   A    
C10   C45   S    
C9    C53   S    
C13   O2    S    
C32   C35   S    
C41   C43   S    
C38   O6    S    
C49   H17   S    
C28   H31   S    
C15   C19   A    
C26   C28   A    
C52   O6    S    
C47   H9    S    
C52   H27   S    
C40   C42   S    
Br1   C14   S    
Cu1   O13   S    
C6    C9    A    
C50   H20   S    
C35   C38   S    
C52   H26   S    
C38   C40   S    
C3    C12   S    
C11   C14   A    
C26   H29   S    
C48   O2    S    
C39   C41   S    
C3    C56   A    
C35   C41   S    
C31   H32   S    
C5    H5    S    
C44   H34   S    
C51   O5    S    
C50   O4    S    
C51   H24   S    
Br3   C22   S    
Br7   C54   S    
C25   H23   S    
C12   O9    A    
C45   C54   A    
C20   O3    S    
C1    O1    A    
C33   C39   S    
C49   H18   S    
C51   H25   S    
C56   H3    S    
Cu2   O8    S    
C34   C53   A    
Br4   C24   S    
C2    C4    A    
C31   C38   S    
C47   H10   S    
C2    H4    S    
C7    H7    S    
C39   O5    S    
C13   C15   A    
C14   C18   A    
C16   C36   S    
C6    C8    A    
C21   O4    S    
C13   N2    A    
Cu1   O10   S    
C28   C30   A    
C50   H19   S    
C17   C37   S    
C36   C42   T    
C1    O8    A    
C32   C40   S    
Cu2   O12   S    
C31   C41   S    
C6    H6    S    
C18   C30   S    
C18   C20   A    
C25   C30   A    
C48   H14   S    
C5    C7    A    
C34   C46   A    
C11   N1    A    
C11   O14   S    
C19   C29   S    
C22   N1    A    
C20   C22   A    
C25   C27   A    
C33   C40   S    
C24   N2    A    
Cu2   O7    S    
C1    C4    S    
Br8   C55   S    
C12   O7    A    
C31   C33   S    
C8    C10   A    
Cu1   Cu2   S    
Br6   C34   S    
Br2   C15   S    
Cu1   O1    S    
C49   H16   S    
C4    C46   A    
Br5   C23   S    
C52   H28   S    
