data_mof_unit_67956.cif
_audit_creation_date              2012-12-10T20:36:35-0500
_audit_creation_method            fapswitch 2.2
_symmetry_space_group_name_H-M    P1
_symmetry_Int_Tables_number       1
_space_group_crystal_system       triclinic
_cell_length_a                    10.979816
_cell_length_b                    11.020839
_cell_length_c                    10.191012
_cell_angle_alpha                 89.678678
_cell_angle_beta                  86.388413
_cell_angle_gamma                 92.948962
_cell_volume                      1229.05427678

loop_
_atom_site_label
_atom_site_type_symbol
_atom_type_description
_atom_site_fract_x
_atom_site_fract_y
_atom_site_fract_z
_atom_type_partial_charge
C1    C     C_R   0.507199 0.260642 0.497885 0.913698
C2    C     C_R   0.539096 0.936441 0.598783 -0.056672
C3    C     C_3   0.514886 0.942189 0.745182 0.204186
C4    C     C_R   0.258095 0.497929 0.502184 1.001867
C5    C     C_3   0.546400 0.076332 0.734858 0.137139
C6    C     C_R   0.409951 0.439469 0.077316 0.219645
C7    C     C_R   0.589336 0.564586 0.064578 0.217214
C8    C     C_R   0.583072 0.573306 0.922216 0.322505
C9    C     C_R   0.412337 0.437500 0.937263 0.127436
C10   C     C_3   0.388970 0.304570 0.936833 0.223081
C11   C     C_3   0.384089 0.305655 0.085297 -0.497147
C12   C     C_3   0.969098 0.604609 0.461734 0.212089
C13   C     C_R   0.491421 0.738568 0.499955 1.006163
C14   C     C_R   0.742599 0.496913 0.498049 1.070497
C15   C     C_3   0.037332 0.386943 0.539304 -0.296527
C16   C     C_3   0.963493 0.409884 0.418434 0.338021
C17   C     C_3   0.879023 0.493013 0.499623 -0.449494
C18   C     C_3   0.953132 0.468234 0.623055 0.364456
C19   C     C_3   0.040681 0.578338 0.585081 0.272337
C20   C     C_3   0.051599 0.519768 0.379089 0.268035
C21   C     C_3   0.123087 0.496693 0.501905 -0.381767
C22   C     C_R   0.556492 0.060192 0.592746 0.018296
C23   C     C_R   0.524404 0.128108 0.487368 -0.155637
C24   C     C_R   0.507245 0.061310 0.370272 0.256454
C25   C     C_R   0.464672 0.938137 0.383441 0.220379
C26   C     C_R   0.487904 0.871496 0.498143 -0.139784
H1    H     H_    0.470813 0.132445 0.762074 0.170235
H2    H     H_    0.470948 0.262297 0.897184 0.110654
H3    H     H_    0.296160 0.274374 0.135361 0.299276
H4    H     H_    0.754335 0.398761 0.920961 0.392542
H5    H     H_    0.045897 0.842865 0.802546 0.410022
H6    H     H_    0.004359 0.941023 0.463908 0.398224
H7    H     H_    0.081844 0.386735 0.079972 0.445929
H8    H     H_    0.493749 0.070363 0.078009 0.387067
H9    H     H_    0.499912 0.802675 0.163481 0.360645
H10   H     H_    0.248588 0.952133 0.977757 0.439243
H11   H     H_    0.460588 0.261069 0.125762 0.207828
H12   H     H_    0.069054 0.297087 0.567435 0.239144
H13   H     H_    0.020051 0.112204 0.278366 0.418490
H14   H     H_    0.577637 0.895156 0.800347 0.224513
H15   H     H_    0.863523 0.037805 0.822003 0.427119
H16   H     H_    0.692027 0.781439 0.236465 0.389149
H17   H     H_    0.746452 0.804388 0.683659 0.427310
H18   H     H_    0.190369 0.173334 0.691295 0.400859
N1    N     N_R   0.499140 0.499140 0.142800 -0.166637
N2    N     N_R   0.499140 0.499180 0.857150 -0.197829
O1    O     O_R   0.500020 0.316790 0.614690 -0.609312
O2    O     O_2   0.888832 0.296680 0.197363 -0.159004
O3    O     O_3   0.046938 0.186107 0.325745 -0.519271
O4    O     O_2   0.751039 0.207191 0.681706 -0.218536
O5    O     O_2   0.684291 0.180821 0.916371 -0.229402
O6    O     O_3   0.784705 0.002547 0.793797 -0.494385
O7    O     O_2   0.788605 0.500220 0.170900 -0.215362
O8    O     O_2   0.825837 0.691025 0.064059 -0.107033
O9    O     O_3   0.697334 0.697534 0.270091 -0.485486
O10   O     O_2   0.691328 0.793055 0.925931 -0.267578
O11   O     O_2   0.816023 0.633667 0.838910 -0.166074
O12   O     O_R   0.500000 0.316760 0.385350 -0.612546
O13   O     O_3   0.689711 0.731729 0.687481 -0.525645
O14   O     O_2   0.168602 0.179847 0.952888 -0.228049
O15   O     O_2   0.183397 0.379945 0.845563 -0.215102
O16   O     O_3   0.272316 0.202307 0.716770 -0.556896
O17   O     O_2   0.955116 0.277571 0.793774 -0.213286
O18   O     O_2   0.973794 0.478344 0.888745 -0.159988
O19   O     O_3   0.762378 0.401444 0.823642 -0.469791
O20   O     O_2   0.151028 0.627287 0.809022 -0.152328
O21   O     O_2   0.210401 0.748879 0.612485 -0.226234
O22   O     O_3   0.003244 0.790046 0.739808 -0.435361
O23   O     O_R   0.313960 0.499990 0.614650 -0.554578
O24   O     O_2   0.954791 0.776198 0.268630 -0.142727
O25   O     O_2   0.813473 0.788667 0.460796 -0.292689
O26   O     O_3   0.037846 0.860891 0.479935 -0.418764
O27   O     O_2   0.019351 0.592578 0.127948 -0.128838
O28   O     O_2   0.225497 0.616342 0.196270 -0.164973
O29   O     O_3   0.136734 0.399918 0.152242 -0.525077
O30   O     O_2   0.650005 0.217998 0.211828 -0.218539
O31   O     O_2   0.728724 0.022350 0.265398 -0.188608
O32   O     O_3   0.564866 0.023982 0.097622 -0.469787
O33   O     O_2   0.261471 0.801648 0.353930 -0.182269
O34   O     O_R   0.313940 0.499950 0.385310 -0.574611
O35   O     O_2   0.287695 0.991331 0.228819 -0.258462
O36   O     O_3   0.412701 0.809392 0.147900 -0.433001
O37   O     O_2   0.275275 0.951657 0.707939 -0.248865
O38   O     O_2   0.344871 0.775761 0.830334 -0.197846
O39   O     O_3   0.332326 0.982060 0.947568 -0.493422
O40   O     O_R   0.500000 0.683240 0.614650 -0.542467
O41   O     O_R   0.499980 0.683210 0.385310 -0.600806
O42   O     O_R   0.686060 0.500050 0.614690 -0.535165
O43   O     O_R   0.686040 0.500010 0.385350 -0.515740
O44   O     O_2   0.822010 0.206996 0.412798 -0.233210
S1    S     S_3+6 0.925151 0.272943 0.334087 0.143076
S2    S     S_3+6 0.615763 0.085813 0.235246 0.104910
S3    S     S_3+6 0.352551 0.884760 0.277620 0.128494
S4    S     S_3+6 0.361172 0.910007 0.805749 0.092680
S5    S     S_3+6 0.694646 0.120558 0.784935 0.105557
S6    S     S_3+6 0.728465 0.614130 0.138278 0.155348
S7    S     S_3+6 0.692195 0.682267 0.840559 0.121965
S8    S     S_3+6 0.247736 0.265503 0.864826 0.094542
S9    S     S_3+6 0.913126 0.404862 0.785840 0.201040
S10   S     S_3+6 0.104802 0.687783 0.691162 0.198387
S11   S     S_3+6 0.940414 0.759157 0.414697 0.172153
S12   S     S_3+6 0.109931 0.537883 0.210527 0.185064
Zn1   Zn    Zn3+2 0.500010 0.500020 0.653130 1.151697
Zn2   Zn    Zn3+2 0.499990 0.499980 0.346870 1.131948

loop_
_geom_bond_atom_site_label_1
_geom_bond_atom_site_label_2
_ccdc_geom_bond_type
C15   C18   S    
O31   S2    D    
C25   S3    S    
C6    N1    A    
O15   S8    D    
C6    C9    A    
O24   S11   D    
C7    C8    A    
C15   H12   S    
C7    S6    S    
O34   Zn2   S    
C7    N1    A    
C19   C21   S    
O33   S3    D    
O14   S8    D    
O4    S5    D    
C20   S12   S    
O26   S11   S    
C15   C16   S    
O6    S5    S    
C10   S8    S    
C18   C19   S    
O20   S10   D    
C11   H11   S    
O17   S9    D    
O16   S8    S    
H7    O29   S    
O18   S9    D    
C5    C22   S    
C16   C17   S    
O2    S1    D    
C12   C17   S    
C2    C22   A    
O29   S12   S    
C23   C24   A    
C9    C10   S    
H15   O6    S    
O8    S6    D    
H17   O13   S    
O28   S12   D    
O25   S11   D    
C9    N2    A    
O36   S3    S    
C5    H1    S    
O7    S6    D    
C14   C17   S    
C13   O41   A    
O10   S7    D    
O3    S1    S    
O40   Zn1   S    
C24   S2    S    
C4    O23   A    
C5    S5    S    
H9    O36   S    
O23   Zn1   S    
H5    O22   S    
O1    Zn1   S    
C24   C25   A    
O19   S9    S    
H6    O26   S    
C6    C11   S    
C1    O1    A    
H18   O16   S    
C25   C26   A    
O37   S4    D    
C13   O40   A    
C8    S7    S    
O22   S10   S    
C14   O43   A    
N1    Zn2   S    
H16   O9    S    
O35   S3    D    
O39   S4    S    
C16   C20   S    
O11   S7    D    
C12   C20   S    
C17   C18   S    
C2    C26   A    
O38   S4    D    
O21   S10   D    
O30   S2    D    
O27   S12   D    
H13   O3    S    
C3    H14   S    
C1    C23   S    
O43   Zn2   S    
O13   S7    S    
C13   C26   S    
O12   Zn2   S    
C18   S9    S    
O42   Zn1   S    
C10   H2    S    
O9    S6    S    
C3    C5    S    
C19   S10   S    
C4    O34   A    
H10   O39   S    
N2    Zn1   S    
O32   S2    S    
C2    C3    S    
C14   O42   A    
C12   S11   S    
C1    O12   A    
H8    O32   S    
C4    C21   S    
O44   S1    D    
C12   C19   S    
C3    S4    S    
C8    N2    A    
H4    O19   S    
C10   C11   S    
O41   Zn2   S    
C15   C21   S    
C20   C21   S    
C11   H3    S    
C16   S1    S    
C22   C23   A    
O5    S5    D    
