data_mof_unit_32395.cif
_audit_creation_date              2012-12-11T15:54:54-0500
_audit_creation_method            fapswitch 2.2
_symmetry_space_group_name_H-M    P1
_symmetry_Int_Tables_number       1
_space_group_crystal_system       triclinic
_cell_length_a                    18.054519
_cell_length_b                    24.852315
_cell_length_c                    15.234633
_cell_angle_alpha                 90.465656
_cell_angle_beta                  125.495325
_cell_angle_gamma                 90.050935
_cell_volume                      5565.08022874

loop_
_atom_site_label
_atom_site_type_symbol
_atom_type_description
_atom_site_fract_x
_atom_site_fract_y
_atom_site_fract_z
_atom_type_partial_charge
C1    C     C_R   0.935217 0.852061 0.091810 -0.126005
C2    C     C_R   0.164873 0.856531 0.091427 0.356667
C3    C     C_R   0.362274 0.672215 0.002218 0.020877
C4    C     C_R   0.688411 0.001233 0.646206 -0.115063
C5    C     C_R   0.188844 0.502083 0.645605 -0.112053
C6    C     C_R   0.006973 0.000693 0.325885 0.075236
C7    C     C_R   0.518789 0.500279 0.335292 0.076161
C8    C     C_R   0.262811 0.956442 0.287176 -0.117883
C9    C     C_R   0.266587 0.044171 0.261114 -0.180466
C10   C     C_R   0.760416 0.457510 0.295550 -0.118203
C11   C     C_R   0.764410 0.546064 0.277259 -0.183984
C12   C     C_R   0.979683 0.045948 0.715996 -0.139530
C13   C     C_R   0.663079 0.645386 0.092497 0.335971
C14   C     C_R   0.977781 0.954237 0.713600 -0.169532
C15   C     C_R   0.472592 0.545725 0.710580 -0.141207
C16   C     C_R   0.471415 0.454259 0.709042 -0.170849
C17   C     C_3   0.863692 0.072090 0.306386 -0.991725
C18   C     C_3   0.844706 0.945634 0.302051 -1.000096
C19   C     C_3   0.364155 0.567288 0.299912 -0.986934
C20   C     C_3   0.353063 0.441539 0.300954 -1.005910
C21   C     C_3   0.163981 0.047998 0.544597 -0.987945
C22   C     C_3   0.153066 0.947286 0.538721 -1.031444
C23   C     C_3   0.664805 0.549160 0.552995 -1.047707
C24   C     C_R   0.662984 0.355486 0.091118 0.348327
C25   C     C_3   0.660946 0.448556 0.551772 -0.974231
C26   C     C_3   0.552361 0.234860 0.860969 -1.046339
C27   C     C_3   0.557531 0.767795 0.864274 -1.027429
C28   C     C_3   0.054293 0.737966 0.860232 -1.047206
C29   C     C_3   0.035092 0.277338 0.866085 -1.024275
C30   C     C_3   0.129937 0.784325 0.780654 -1.058103
C31   C     C_3   0.094447 0.226472 0.773131 -1.051186
C32   C     C_3   0.625847 0.281749 0.779950 -1.053647
C33   C     C_3   0.619637 0.714175 0.775456 -1.068493
C34   C     C_3   0.436138 0.892454 0.426697 -0.978677
C35   C     C_R   0.319160 0.000613 0.317391 0.036031
C36   C     C_3   0.432559 0.110858 0.403128 -1.050722
C37   C     C_3   0.931616 0.395087 0.433789 -0.987654
C38   C     C_3   0.933289 0.613619 0.413254 -1.052697
C39   C     C_3   0.665386 0.871782 0.695293 -1.027819
C40   C     C_3   0.743355 0.128640 0.615576 -0.987719
C41   C     C_3   0.157130 0.375063 0.690698 -1.031280
C42   C     C_3   0.248269 0.626005 0.612121 -0.976994
C43   C     C_3   0.494599 0.943119 0.708439 -0.965327
C44   C     C_3   0.580814 0.069231 0.769617 -1.006562
C45   C     C_3   0.006574 0.444537 0.724476 -0.966984
C46   C     C_R   0.816000 0.502926 0.334383 0.037692
C47   C     C_3   0.080527 0.573980 0.774834 -1.002060
C48   C     C_3   0.200704 0.168324 0.208122 -1.126081
C49   C     C_3   0.203424 0.834331 0.202049 -1.124215
C50   C     C_3   0.698348 0.670919 0.202050 -1.121351
C51   C     C_3   0.698860 0.332794 0.200589 -1.115824
C52   C     C_R   0.980600 0.000045 0.664752 0.081023
C53   C     C_R   0.470594 0.499934 0.657326 0.083465
C54   C     C_R   0.153150 0.834704 0.998628 -0.040191
C55   C     C_R   0.131827 0.176827 0.999404 -0.025281
C56   C     C_R   0.649527 0.332599 0.998100 -0.031891
C57   C     C_R   0.930484 0.145428 0.093121 -0.126797
C58   C     C_R   0.647099 0.669023 0.998409 -0.033203
C59   C     C_3   0.951855 0.054330 0.415474 0.143011
C60   C     C_3   0.942071 0.950641 0.406239 0.139828
C61   C     C_3   0.451085 0.552414 0.412409 0.151739
C62   C     C_3   0.447932 0.448816 0.408664 0.140248
C63   C     C_3   0.937161 0.050409 0.504058 -0.438794
C64   C     C_3   0.940940 0.948783 0.505212 -0.460921
C65   C     C_3   0.432161 0.549275 0.497723 -0.443643
C66   C     C_3   0.440652 0.447766 0.503220 -0.451586
C67   C     C_3   0.100554 0.999505 0.527727 0.526361
C68   C     C_R   0.418271 0.361092 0.092376 -0.129453
C69   C     C_3   0.603110 0.499987 0.534988 0.530649
C70   C     C_3   0.999986 0.001265 0.415820 0.175793
C71   C     C_3   0.505230 0.500351 0.420075 0.170437
C72   C     C_3   0.986421 0.000211 0.574669 0.229694
C73   C     C_3   0.481409 0.500104 0.570994 0.228135
C74   C     C_R   0.846297 0.148290 0.911884 -0.160951
C75   C     C_R   0.853048 0.848749 0.911750 -0.156327
C76   C     C_R   0.346658 0.648475 0.911567 -0.152065
C77   C     C_R   0.337015 0.355259 0.911576 -0.164465
C78   C     C_3   0.088328 0.000851 0.620724 -0.466316
C79   C     C_R   0.431249 0.645881 0.093075 -0.129830
C80   C     C_3   0.584650 0.503108 0.622915 -0.465753
C81   C     C_3   0.702576 0.203480 0.901402 -0.450493
C82   C     C_3   0.709747 0.791141 0.897425 -0.450918
C83   C     C_3   0.204487 0.705434 0.900665 -0.449899
C84   C     C_3   0.184813 0.302772 0.895248 -0.465986
C85   C     C_3   0.147491 0.755833 0.883449 0.645756
C86   C     C_3   0.122945 0.255278 0.881920 0.642332
C87   C     C_3   0.644757 0.253531 0.883614 0.642151
C88   C     C_3   0.645997 0.744564 0.882141 0.648262
C89   C     C_3   0.345357 0.769373 0.998268 -0.396850
C90   C     C_R   0.078030 0.858979 0.907998 -0.204345
C91   C     C_3   0.323395 0.241886 0.001135 -0.404992
C92   C     C_3   0.842068 0.268377 0.997239 -0.396462
C93   C     C_3   0.843334 0.726005 0.995303 -0.407300
C94   C     C_3   0.802970 0.208837 0.098889 -0.452900
C95   C     C_3   0.805440 0.790294 0.094887 -0.435760
C96   C     C_3   0.304399 0.710021 0.098268 -0.451425
C97   C     C_3   0.274353 0.305734 0.091808 -0.439495
C98   C     C_3   0.803695 0.212888 0.999279 0.348106
C99   C     C_3   0.808992 0.782760 0.997349 0.333938
C100  C     C_3   0.305663 0.714124 0.999053 0.346812
C101  C     C_R   0.062120 0.148982 0.910242 -0.194060
C102  C     C_3   0.282965 0.297496 0.998132 0.338784
C103  C     C_3   0.206099 0.790737 0.992312 0.319781
C104  C     C_3   0.182082 0.221072 0.990710 0.324842
C105  C     C_3   0.702882 0.288863 0.991964 0.318768
C106  C     C_3   0.702431 0.710126 0.990044 0.316151
C107  C     C_3   0.289982 0.815241 0.001832 -0.452382
C108  C     C_3   0.264366 0.196424 0.997246 -0.466903
C109  C     C_3   0.786023 0.313871 0.000454 -0.453780
C110  C     C_3   0.782560 0.682543 0.995339 -0.454227
C111  C     C_3   0.244863 0.754023 0.092801 -0.457411
C112  C     C_R   0.575847 0.357761 0.907712 -0.206892
C113  C     C_3   0.222699 0.258272 0.092583 -0.447217
C114  C     C_3   0.743063 0.252611 0.093420 -0.454475
C115  C     C_3   0.745919 0.747142 0.091744 -0.449142
C116  C     C_3   0.461687 0.947832 0.401656 0.125830
C117  C     C_3   0.464059 0.053030 0.395263 0.131958
C118  C     C_3   0.957081 0.450239 0.408892 0.125435
C119  C     C_3   0.960756 0.555004 0.403055 0.138237
C120  C     C_R   0.739421 0.955567 0.704252 0.154625
C121  C     C_R   0.742014 0.045318 0.704922 0.191449
C122  C     C_R   0.239077 0.456108 0.703332 0.158023
C123  C     C_R   0.571805 0.644270 0.908844 -0.198980
C124  C     C_R   0.243080 0.545818 0.704839 0.190434
C125  C     C_3   0.563917 0.954237 0.477033 -0.441183
C126  C     C_3   0.566754 0.049722 0.479656 -0.509753
C127  C     C_3   0.059486 0.455644 0.479318 -0.425378
C128  C     C_3   0.064121 0.550883 0.481882 -0.518756
C129  C     C_3   0.428288 0.005172 0.513462 -0.451468
C130  C     C_3   0.931931 0.507605 0.528773 -0.455022
C131  C     C_3   0.416266 0.001766 0.405572 0.188918
C132  C     C_3   0.914291 0.504117 0.417950 0.185476
C133  C     C_3   0.589839 0.002276 0.556920 0.216061
C134  C     C_R   0.156671 0.148323 0.092747 0.330654
C135  C     C_3   0.089516 0.503702 0.560419 0.214315
C136  C     C_3   0.531793 0.008010 0.607480 0.388351
C137  C     C_3   0.036521 0.510530 0.617555 0.387748
C138  C     C_R   0.014112 0.046131 0.279637 -0.155129
C139  C     C_R   0.016151 0.954568 0.281378 -0.164383
C140  C     C_R   0.524976 0.545821 0.288504 -0.146664
C141  C     C_R   0.523811 0.454535 0.287063 -0.151806
C142  C     C_R   0.869581 0.823454 0.001283 0.018068
C143  C     C_R   0.861015 0.171443 0.002435 0.023411
C144  C     C_R   0.341978 0.338465 0.000981 0.024811
H1    H     H_    0.972636 0.840725 0.175583 0.088452
H2    H     H_    0.979439 0.912412 0.551781 0.138716
H3    H     H_    0.843684 0.950072 0.228901 0.255254
H4    H     H_    0.817282 0.904968 0.297976 0.240364
H5    H     H_    0.798290 0.975259 0.300694 0.273664
H6    H     H_    0.368336 0.609912 0.281550 0.232020
H7    H     H_    0.355262 0.542610 0.233527 0.268605
H8    H     H_    0.300893 0.563402 0.295449 0.248599
H9    H     H_    0.355176 0.446278 0.230072 0.256839
H10   H     H_    0.327721 0.400195 0.296602 0.239770
H11   H     H_    0.302754 0.469709 0.294679 0.273949
H12   H     H_    0.237730 0.035734 0.593988 0.259396
H13   H     H_    0.456539 0.587882 0.543537 0.138174
H14   H     H_    0.149867 0.062922 0.467025 0.234021
H15   H     H_    0.160174 0.083667 0.588662 0.221825
H16   H     H_    0.117778 0.910165 0.535810 0.225803
H17   H     H_    0.166692 0.945090 0.476497 0.257732
H18   H     H_    0.220397 0.946748 0.618342 0.255930
H19   H     H_    0.637326 0.588332 0.556258 0.226731
H20   H     H_    0.731987 0.545619 0.632309 0.264223
H21   H     H_    0.678120 0.550726 0.490572 0.256859
H22   H     H_    0.722692 0.458443 0.554728 0.256918
H23   H     H_    0.686343 0.427200 0.628045 0.234386
H24   H     H_    0.479326 0.412168 0.552863 0.141980
H25   H     H_    0.624623 0.417828 0.487526 0.209712
H26   H     H_    0.495015 0.260909 0.801100 0.252383
H27   H     H_    0.533152 0.193520 0.826816 0.245324
H28   H     H_    0.554280 0.235411 0.935271 0.237865
H29   H     H_    0.495401 0.747685 0.794854 0.254902
H30   H     H_    0.556036 0.761968 0.935528 0.231518
H31   H     H_    0.548837 0.811473 0.847214 0.245769
H32   H     H_    0.996290 0.760988 0.792819 0.252400
H33   H     H_    0.038006 0.695019 0.836744 0.242742
H34   H     H_    0.052782 0.743968 0.931683 0.237985
H35   H     H_    0.120077 0.037059 0.673532 0.163201
H36   H     H_    0.975565 0.250487 0.812392 0.249282
H37   H     H_    0.042054 0.281110 0.943268 0.230714
H38   H     H_    0.016181 0.317452 0.827658 0.250402
H39   H     H_    0.186070 0.777987 0.771481 0.240856
H40   H     H_    0.067942 0.767731 0.705453 0.258020
H41   H     H_    0.124418 0.828419 0.780272 0.232594
H42   H     H_    0.154604 0.214980 0.774331 0.234683
H43   H     H_    0.049690 0.190830 0.743296 0.235961
H44   H     H_    0.055858 0.255921 0.706060 0.258910
H45   H     H_    0.680902 0.275006 0.769039 0.240601
H46   H     H_    0.123002 0.966239 0.676326 0.173022
H47   H     H_    0.562890 0.265433 0.705484 0.259247
H48   H     H_    0.621083 0.325860 0.779740 0.231299
H49   H     H_    0.679310 0.708852 0.772479 0.236960
H50   H     H_    0.590909 0.673351 0.759456 0.235431
H51   H     H_    0.570418 0.739016 0.703993 0.263361
H52   H     H_    0.407765 0.866473 0.355472 0.228450
H53   H     H_    0.493046 0.866967 0.486393 0.244068
H54   H     H_    0.394058 0.893994 0.457888 0.240236
H55   H     H_    0.416488 0.134261 0.332039 0.242330
H56   H     H_    0.374164 0.111000 0.408762 0.256483
H57   H     H_    0.612016 0.541221 0.670904 0.169473
H58   H     H_    0.483828 0.136868 0.472116 0.243476
H59   H     H_    0.892227 0.372689 0.357697 0.229540
H60   H     H_    0.987571 0.365937 0.481421 0.244435
H61   H     H_    0.895446 0.397396 0.472805 0.244649
H62   H     H_    0.910064 0.635497 0.337898 0.242319
H63   H     H_    0.881436 0.615064 0.430422 0.251464
H64   H     H_    0.988550 0.640560 0.476256 0.243356
H65   H     H_    0.766232 0.879626 0.664805 0.156746
H66   H     H_    0.662574 0.828688 0.674256 0.249248
H67   H     H_    0.595051 0.885022 0.646478 0.292083
H68   H     H_    0.619779 0.470782 0.683843 0.163476
H69   H     H_    0.689816 0.879713 0.779729 0.270058
H70   H     H_    0.687340 0.120778 0.707974 0.169950
H71   H     H_    0.692686 0.161488 0.571012 0.247745
H72   H     H_    0.738379 0.100476 0.554712 0.257877
H73   H     H_    0.812538 0.147020 0.666808 0.256819
H74   H     H_    0.263008 0.378237 0.667584 0.156895
H75   H     H_    0.153526 0.331404 0.672937 0.247269
H76   H     H_    0.087629 0.389382 0.638558 0.298317
H77   H     H_    0.177590 0.385078 0.772901 0.272921
H78   H     H_    0.182230 0.621273 0.692921 0.162897
H79   H     H_    0.693524 0.191660 0.825162 0.149584
H80   H     H_    0.211454 0.665207 0.581818 0.245897
H81   H     H_    0.225801 0.599481 0.540845 0.253447
H82   H     H_    0.322924 0.633814 0.658507 0.258576
H83   H     H_    0.623346 0.969243 0.757420 0.192874
H84   H     H_    0.532767 0.924309 0.789167 0.248756
H85   H     H_    0.453644 0.910747 0.648529 0.256520
H86   H     H_    0.449028 0.974293 0.705187 0.256563
H87   H     H_    0.510567 0.092955 0.609969 0.184851
H88   H     H_    0.577761 0.112633 0.784212 0.245118
H89   H     H_    0.652536 0.055976 0.825879 0.261240
H90   H     H_    0.710232 0.793124 0.826014 0.168195
H91   H     H_    0.535571 0.048147 0.785938 0.278748
H92   H     H_    0.132558 0.475151 0.769970 0.191086
H93   H     H_    0.047224 0.425531 0.805043 0.246736
H94   H     H_    0.966546 0.411879 0.664829 0.256461
H95   H     H_    0.960036 0.474295 0.723303 0.256664
H96   H     H_    0.019849 0.595890 0.615916 0.187606
H97   H     H_    0.073078 0.617375 0.785039 0.244853
H98   H     H_    0.152734 0.562735 0.835985 0.262511
H99   H     H_    0.033666 0.552373 0.787931 0.277655
H100  H     H_    0.276202 0.172427 0.256054 0.247807
H101  H     H_    0.195232 0.693729 0.824231 0.151636
H102  H     H_    0.170001 0.206832 0.208638 0.258332
H103  H     H_    0.188087 0.139604 0.253603 0.263043
H104  H     H_    0.182846 0.792282 0.199146 0.255688
H105  H     H_    0.277445 0.838499 0.253909 0.251467
H106  H     H_    0.176136 0.856437 0.241032 0.255331
H107  H     H_    0.773855 0.674308 0.258894 0.245894
H108  H     H_    0.666761 0.710746 0.191629 0.257733
H109  H     H_    0.677656 0.646289 0.245065 0.257831
H110  H     H_    0.674367 0.291436 0.194972 0.255848
H111  H     H_    0.772957 0.334309 0.253375 0.245578
H112  H     H_    0.967371 0.157368 0.176950 0.088557
H113  H     H_    0.189244 0.302599 0.826644 0.170086
H114  H     H_    0.673516 0.356299 0.240261 0.255987
H115  H     H_    0.677161 0.167369 0.919534 0.158544
H116  H     H_    0.685647 0.831177 0.904096 0.154739
H117  H     H_    0.178743 0.669416 0.918456 0.158196
H118  H     H_    0.156433 0.342770 0.894455 0.156967
H119  H     H_    0.345252 0.772712 0.925356 0.160766
H120  H     H_    0.327674 0.237698 0.931261 0.159270
H121  H     H_    0.841423 0.271633 0.923947 0.161715
H122  H     H_    0.842890 0.721424 0.922190 0.159208
H123  H     H_    0.813152 0.166006 0.833516 0.121029
H124  H     H_    0.450965 0.350455 0.175713 0.089040
H125  H     H_    0.822821 0.831297 0.832878 0.129877
H126  H     H_    0.312605 0.665549 0.832492 0.124109
H127  H     H_    0.305422 0.334903 0.835254 0.134345
H128  H     H_    0.269758 0.844212 0.936493 0.176380
H129  H     H_    0.241576 0.169106 0.927748 0.178523
H130  H     H_    0.765015 0.342633 0.934580 0.175879
H131  H     H_    0.757116 0.654288 0.926429 0.180004
H132  H     H_    0.872513 0.213619 0.174700 0.161046
H133  H     H_    0.874226 0.787438 0.172091 0.159774
H134  H     H_    0.373892 0.714526 0.174330 0.161375
H135  H     H_    0.468145 0.657603 0.177072 0.089840
H136  H     H_    0.341625 0.308714 0.171222 0.159367
H137  H     H_    0.776103 0.168806 0.101827 0.175546
H138  H     H_    0.777377 0.830442 0.093383 0.174923
H139  H     H_    0.276968 0.670074 0.100698 0.174511
H140  H     H_    0.236952 0.343497 0.081702 0.176907
H141  H     H_    0.688609 0.234081 0.096498 0.175405
H142  H     H_    0.693707 0.765760 0.098755 0.176895
H143  H     H_    0.189270 0.735590 0.093937 0.176826
H144  H     H_    0.170451 0.272135 0.104120 0.168018
H145  H     H_    0.292340 0.777268 0.167281 0.203808
H146  H     H_    0.864008 0.047490 0.471907 0.178194
H147  H     H_    0.275509 0.235828 0.164607 0.201968
H148  H     H_    0.790513 0.276288 0.167140 0.202232
H149  H     H_    0.793734 0.722915 0.163630 0.199553
H150  H     H_    0.417726 0.772957 0.069737 0.160088
H151  H     H_    0.393913 0.238857 0.075979 0.166920
H152  H     H_    0.914486 0.272499 0.068327 0.159373
H153  H     H_    0.914926 0.721165 0.066915 0.164772
H154  H     H_    0.334084 0.838057 0.079169 0.167018
H155  H     H_    0.306551 0.171515 0.070742 0.168253
H156  H     H_    0.829964 0.337054 0.077343 0.166882
H157  H     H_    0.870586 0.944332 0.483193 0.182276
H158  H     H_    0.824179 0.658189 0.069699 0.166304
H159  H     H_    0.443478 0.944230 0.318046 0.105041
H160  H     H_    0.451368 0.049655 0.314442 0.111899
H161  H     H_    0.935408 0.447437 0.323600 0.105267
H162  H     H_    0.943692 0.551108 0.320071 0.114007
H163  H     H_    0.590221 0.960493 0.427482 0.125260
H164  H     H_    0.601428 0.046717 0.438533 0.156164
H165  H     H_    0.082032 0.461683 0.425836 0.120694
H166  H     H_    0.094205 0.546953 0.435547 0.154663
H167  H     H_    0.595031 0.915886 0.509071 0.214008
H168  H     H_    0.358462 0.545817 0.462556 0.178528
H169  H     H_    0.590310 0.087380 0.522365 0.229127
H170  H     H_    0.090767 0.416942 0.507939 0.210801
H171  H     H_    0.091113 0.588538 0.523919 0.222292
H172  H     H_    0.391805 0.971347 0.519111 0.177736
H173  H     H_    0.390926 0.040277 0.514614 0.155305
H174  H     H_    0.896889 0.474012 0.537508 0.175902
H175  H     H_    0.896560 0.543021 0.532929 0.156534
H176  H     H_    0.017692 0.087953 0.301728 0.101632
H177  H     H_    0.022203 0.913094 0.304951 0.100242
H178  H     H_    0.531965 0.587489 0.313306 0.104896
H179  H     H_    0.368936 0.442446 0.476302 0.179778
H180  H     H_    0.528339 0.412919 0.308521 0.087899
H181  H     H_    0.274016 0.919969 0.328675 0.133153
H182  H     H_    0.286367 0.081745 0.249752 0.166372
H183  H     H_    0.770147 0.420368 0.335590 0.132121
H184  H     H_    0.782611 0.586024 0.278870 0.169659
H185  H     H_    0.977329 0.087970 0.697438 0.095218
H186  H     H_    0.971846 0.912525 0.690028 0.094647
H187  H     H_    0.468810 0.587619 0.690610 0.089645
H188  H     H_    0.465205 0.412434 0.685881 0.094490
H189  H     H_    0.038964 0.847955 0.824466 0.141182
H190  H     H_    0.963621 0.088645 0.550597 0.137855
H191  H     H_    0.009798 0.164054 0.832775 0.128878
H192  H     H_    0.536304 0.346924 0.824009 0.138462
H193  H     H_    0.525938 0.658276 0.828127 0.138427
H194  H     H_    0.001075 0.088090 0.439652 0.121286
H195  H     H_    0.975312 0.913060 0.407065 0.118584
H196  H     H_    0.496352 0.587801 0.434634 0.115341
H197  H     H_    0.484110 0.411549 0.415028 0.115799
H198  H     H_    0.871613 0.114105 0.288670 0.233080
H199  H     H_    0.848124 0.046994 0.237068 0.268404
H200  H     H_    0.802448 0.071298 0.306729 0.249301
N1    N     N_R   0.950530 0.896220 0.057200 -0.036200
N2    N     N_R   0.818150 0.028600 0.792440 -0.077851
N3    N     N_R   0.318150 0.471400 0.792440 -0.084785
N4    N     N_R   0.318150 0.528600 0.792440 -0.077479
N5    N     N_R   0.025710 0.028600 0.207560 -0.036853
N6    N     N_R   0.025710 0.971400 0.207560 -0.038319
N7    N     N_R   0.525710 0.528600 0.207560 -0.039015
N8    N     N_R   0.525710 0.471400 0.207560 -0.038304
N9    N     N_R   0.181850 0.971400 0.207560 -0.042340
N10   N     N_R   0.181850 0.028600 0.207560 -0.040071
N11   N     N_R   0.681850 0.471400 0.207560 -0.041814
N12   N     N_R   0.950530 0.103780 0.057200 -0.034556
N13   N     N_R   0.681850 0.528600 0.207560 -0.040478
N14   N     N_R   0.974290 0.028600 0.792440 -0.034806
N15   N     N_R   0.974290 0.971400 0.792440 -0.039633
N16   N     N_R   0.474290 0.528600 0.792440 -0.035074
N17   N     N_R   0.474290 0.471400 0.792440 -0.039343
N18   N     N_R   0.049470 0.896220 0.942800 -0.052562
N19   N     N_R   0.049470 0.103780 0.942800 -0.054274
N20   N     N_R   0.549470 0.396220 0.942800 -0.053619
N21   N     N_R   0.549470 0.603780 0.942800 -0.052782
N22   N     N_R   0.106670 0.103780 0.057200 -0.054845
N23   N     N_R   0.450530 0.396220 0.057200 -0.034993
N24   N     N_R   0.106670 0.896220 0.057200 -0.050102
N25   N     N_R   0.606670 0.603780 0.057200 -0.053651
N26   N     N_R   0.606670 0.396220 0.057200 -0.051446
N27   N     N_2   0.719803 0.901177 0.670130 -0.115868
N28   N     N_2   0.722867 0.101207 0.682837 -0.117506
N29   N     N_2   0.216437 0.401742 0.669541 -0.114534
N30   N     N_2   0.227563 0.601904 0.681955 -0.116760
N31   N     N_2   0.558055 0.966168 0.688313 -0.095867
N32   N     N_2   0.550053 0.061772 0.658770 -0.126075
N33   N     N_2   0.067144 0.469935 0.701812 -0.094232
N34   N     N_R   0.450530 0.603780 0.057200 -0.036040
N35   N     N_2   0.056655 0.564762 0.667028 -0.129743
N36   N     N_R   0.893330 0.103780 0.942800 -0.033500
N37   N     N_R   0.893330 0.896220 0.942800 -0.033847
N38   N     N_R   0.393330 0.603780 0.942800 -0.033998
N39   N     N_R   0.393330 0.396220 0.942800 -0.033004
N40   N     N_R   0.818150 0.971400 0.792440 -0.084209
Ni1   Ni    Ni4+2 0.065600 0.934400 0.131190 0.199981
Ni2   Ni    Ni4+2 0.065600 0.065600 0.131190 0.203233
Ni3   Ni    Ni4+2 0.565600 0.434400 0.131190 0.201805
Ni4   Ni    Ni4+2 0.565600 0.565600 0.131190 0.201496
Ni5   Ni    Ni4+2 0.934400 0.065600 0.868810 0.205482
Ni6   Ni    Ni4+2 0.934400 0.934400 0.868810 0.192179
Ni7   Ni    Ni4+2 0.434400 0.565600 0.868810 0.206949
Ni8   Ni    Ni4+2 0.434400 0.434400 0.868810 0.192199

loop_
_geom_bond_atom_site_label_1
_geom_bond_atom_site_label_2
_ccdc_geom_bond_type
N37   Ni6   S    
C95   H133  S    
C119  H162  S    
C42   N30   S    
C3    C79   A    
N18   N24   A    
N15   Ni6   S    
C84   C86   S    
N20   Ni8   S    
C95   C99   S    
C92   C109  S    
C19   H6    S    
C21   H14   S    
C137  N33   S    
C48   H102  S    
C3    C100  S    
C14   C52   A    
C120  N40   A    
C97   H136  S    
C117  C126  S    
C85   C103  S    
C48   H100  S    
C93   C110  S    
C119  C128  S    
C61   C71   S    
C24   C51   S    
C64   H157  S    
C26   H28   S    
C21   H15   S    
C93   H153  S    
C14   N15   A    
N34   Ni4   S    
C88   C106  S    
C127  H165  S    
C81   H115  S    
C82   H116  S    
C78   H35   S    
C54   C103  S    
C108  H129  S    
C20   H9    S    
C128  C135  S    
C22   H17   S    
C39   H69   S    
C93   H122  S    
C41   N29   S    
C32   H47   S    
C8    C35   A    
N34   N38   A    
C74   N36   A    
C140  N7    A    
C52   C72   S    
C17   H200  S    
C80   H57   S    
C36   C117  S    
N17   Ni8   S    
C38   C119  S    
C33   H50   S    
C83   C100  S    
C25   C69   S    
C122  N3    A    
C141  N8    A    
H74   N29   S    
C41   H76   S    
C50   H108  S    
C129  H172  S    
C135  C137  S    
C64   H2    S    
C107  H128  S    
C59   C63   S    
C33   C88   S    
C107  H154  S    
C25   H22   S    
C113  H147  S    
C114  H148  S    
C111  H145  S    
N11   Ni3   S    
C106  C115  S    
C60   C64   S    
C57   H112  S    
N9    Ni1   S    
C50   H109  S    
C66   C73   S    
C19   C61   S    
C55   C104  S    
N22   Ni2   S    
C79   N34   A    
C45   H93   S    
C22   C67   S    
C49   H104  S    
C61   C65   S    
C130  H175  S    
C26   H26   S    
C49   H106  S    
C31   H43   S    
C28   C85   S    
N2    N40   A    
C11   C46   A    
C103  C107  S    
C51   H110  S    
C138  H176  S    
C68   N23   A    
C8    N9    A    
N5    N6    A    
N16   Ni7   S    
C84   C102  S    
C1    H1    S    
N7    N8    A    
C36   H55   S    
C86   C104  S    
C43   H86   S    
N1    N37   A    
H78   N30   S    
N36   Ni5   S    
C48   C134  S    
C137  N35   S    
C54   C90   A    
C46   C132  S    
C15   H187  S    
C89   H150  S    
H83   N31   S    
N1    Ni1   S    
C6    C139  A    
C1    N1    A    
C1    C142  A    
C23   H21   S    
C26   C87   S    
C141  H180  S    
C19   H7    S    
C89   H119  S    
N24   Ni1   S    
C125  H167  S    
C109  H130  S    
N21   N25   A    
C80   H68   S    
C83   H101  S    
C102  C144  S    
C42   H80   S    
C27   H30   S    
N16   N17   A    
C119  C132  S    
C42   H82   S    
C96   C111  S    
N6    Ni1   S    
C38   H63   S    
C62   C66   S    
C30   H41   S    
C84   H113  S    
C18   H3    S    
C5    C122  A    
C61   H196  S    
C101  N19   A    
C45   H95   S    
C74   H123  S    
C34   H54   S    
C87   C105  S    
C40   H72   S    
C30   C85   S    
C90   N18   A    
C8    H181  S    
C123  H193  S    
N11   N13   A    
C51   H114  S    
C116  C125  S    
N23   N39   A    
N19   N22   A    
C83   H117  S    
C51   H111  S    
C7    C141  A    
C43   H84   S    
H96   N35   S    
C23   H20   S    
C108  H155  S    
N23   Ni3   S    
C5    C135  S    
C105  C109  S    
C138  N5    A    
C112  N20   A    
C37   H61   S    
C77   C144  A    
C47   H98   S    
C124  N4    A    
C15   N16   A    
C128  H171  S    
C67   C70   S    
C10   H183  S    
C110  H158  S    
C44   H89   S    
C22   H16   S    
C122  N29   S    
C82   C88   S    
C96   C100  S    
C139  N6    A    
C37   H60   S    
C62   C71   S    
C68   C144  A    
C117  C131  S    
C62   H197  S    
C118  C132  S    
C128  H166  S    
C50   H107  S    
C13   C50   S    
C9    H182  S    
C118  C127  S    
C11   H184  S    
C45   N33   S    
C57   N12   A    
C110  H131  S    
C12   N14   A    
C20   H11   S    
C40   H73   S    
C115  H149  S    
C82   C99   S    
C74   C143  A    
C84   H118  S    
N9    N10   A    
C11   N13   A    
C5    C124  A    
C58   C123  A    
C15   C53   A    
C127  C135  S    
C94   H132  S    
C7    C140  A    
C22   H18   S    
N12   Ni2   S    
C81   C98   S    
C94   C98   S    
C25   H25   S    
C118  H161  S    
C32   H48   S    
C103  C111  S    
C12   C52   A    
C17   H199  S    
N3    Ni8   S    
C136  N31   S    
C120  N27   S    
C76   H126  S    
C63   H146  S    
C77   H127  S    
C90   H189  S    
C28   H33   S    
C93   C99   S    
C97   C102  S    
H92   N33   S    
C49   H105  S    
C33   H49   S    
C40   N28   S    
C140  H178  S    
C41   H75   S    
C10   N11   A    
C96   H139  S    
C89   C100  S    
N39   Ni8   S    
C65   H13   S    
C2    C54   A    
C44   H91   S    
C27   H31   S    
N3    N4    A    
C28   H32   S    
C101  H191  S    
C13   N25   A    
C39   H66   S    
C29   H38   S    
N12   N36   A    
C125  H163  S    
C130  C132  S    
C126  H164  S    
C9    N10   A    
C59   H194  S    
C89   C107  S    
C114  H141  S    
C81   C87   S    
C20   H10   S    
N8    Ni3   S    
C92   H121  S    
H70   N28   S    
C83   C85   S    
C26   H27   S    
C82   H90   S    
C124  N30   S    
N7    Ni4   S    
C97   H140  S    
N4    Ni7   S    
N5    Ni2   S    
C35   C131  S    
C104  C108  S    
C112  H192  S    
C6    C70   S    
C91   C108  S    
C36   H56   S    
C43   H85   S    
C55   C134  A    
C92   H152  S    
C39   N27   S    
C77   N39   A    
C66   H24   S    
H65   N27   S    
C12   H185  S    
C75   C142  A    
C47   H99   S    
C91   H151  S    
C4    C121  A    
C20   C62   S    
C56   C105  S    
C68   H124  S    
C59   C70   S    
N13   Ni4   S    
N18   Ni6   S    
C63   C72   S    
C33   H51   S    
C79   H135  S    
C9    C35   A    
C111  H143  S    
C130  C137  S    
C63   H190  S    
C126  H169  S    
C41   H77   S    
C91   H120  S    
C129  H173  S    
N25   Ni4   S    
C98   C143  S    
N21   Ni7   S    
N26   Ni3   S    
C23   C69   S    
C99   C142  S    
C47   N35   S    
C78   H46   S    
C24   C56   A    
C27   H29   S    
C94   C114  S    
C92   C98   S    
C25   H23   S    
C24   N26   A    
C38   H64   S    
C16   N17   A    
C48   H103  S    
C18   H4    S    
C113  H144  S    
C7    C71   S    
C115  H142  S    
C34   C116  S    
C65   C73   S    
C117  H160  S    
N20   N26   A    
C69   C71   S    
C16   C53   A    
C29   H37   S    
C73   C80   S    
C37   C118  S    
C139  H177  S    
C126  C133  S    
C95   C115  S    
C29   H36   S    
C31   H44   S    
C10   C46   A    
C121  N28   S    
C72   C78   S    
C109  H156  S    
C18   H5    S    
C121  N2    A    
C31   C86   S    
C16   H188  S    
C21   C67   S    
C27   C88   S    
C67   C78   S    
C36   H58   S    
C23   H19   S    
C40   H71   S    
C81   H79   S    
C57   C143  A    
C130  H174  S    
C105  C114  S    
C47   H97   S    
N2    Ni5   S    
C13   C58   A    
C75   H125  S    
C116  H159  S    
C32   C87   S    
C104  C113  S    
C43   N31   S    
C58   C106  S    
C6    C138  A    
C2    C49   S    
N40   Ni6   S    
C133  C136  S    
C129  C136  S    
C76   N38   A    
C60   C70   S    
C95   H138  S    
C125  C133  S    
N10   Ni2   S    
C19   H8    S    
C37   H59   S    
C39   H67   S    
C3    C76   A    
C134  N22   A    
C2    N24   A    
C29   C86   S    
C17   C59   S    
C14   H186  S    
C18   C60   S    
C94   H137  S    
C60   H195  S    
C44   N32   S    
C91   C102  S    
C97   C113  S    
C106  C110  S    
C42   H81   S    
C34   H52   S    
C38   H62   S    
C30   H40   S    
C53   C73   S    
H87   N32   S    
C123  N21   A    
C65   H168  S    
N38   Ni7   S    
C30   H39   S    
C55   C101  A    
C96   H134  S    
C66   H179  S    
C44   H88   S    
N14   Ni5   S    
N19   Ni5   S    
C45   H94   S    
C34   H53   S    
C116  C131  S    
C31   H42   S    
C21   H12   S    
C32   H45   S    
C64   C72   S    
N14   N15   A    
C17   H198  S    
C127  H170  S    
C136  N32   S    
C4    C120  A    
C69   C80   S    
C75   N37   A    
C28   H34   S    
C56   C112  A    
C4    C133  S    
C129  C131  S    
