data_mof_unit_46465.cif
_audit_creation_date              2013-03-05T16:06:47-0500
_audit_creation_method            fapswitch 2.2
_symmetry_space_group_name_H-M    P1
_symmetry_Int_Tables_number       1
_space_group_crystal_system       triclinic
_cell_length_a                    10.930224
_cell_length_b                    9.494402
_cell_length_c                    19.442874
_cell_angle_alpha                 90.078618
_cell_angle_beta                  90.41329
_cell_angle_gamma                 90.45889
_cell_volume                      2017.58327087

loop_
_atom_site_label
_atom_site_type_symbol
_atom_site_description
_atom_site_fract_x
_atom_site_fract_y
_atom_site_fract_z
_atom_type_partial_charge
O1    O     O_R   0.319640 0.618740 0.500000 -0.569901
O2    O     O_R   0.680360 0.381260 0.500000 -0.569780
O3    O     O_R   0.680360 0.618740 0.500000 -0.534297
O4    O     O_R   0.319640 0.381260 0.500000 -0.534365
C1    C     C_R   0.871957 0.502680 0.495314 -0.321174
C2    C     C_R   0.128042 0.497313 0.504683 -0.321081
C3    C     C_R   0.262077 0.499190 0.502256 0.948954
C4    C     C_R   0.737922 0.500809 0.497731 0.949124
O5    O     O_R   0.500020 0.618830 0.400190 -0.577452
O6    O     O_R   0.499980 0.381170 0.599810 -0.577587
O7    O     O_R   0.499980 0.618830 0.599810 -0.564726
O8    O     O_R   0.500020 0.381170 0.400190 -0.564527
C5    C     C_R   0.500437 0.499969 0.367812 0.907293
C6    C     C_R   0.499578 0.500031 0.632186 0.908316
Cu1   Cu    Cu3+1 0.500000 0.640660 0.500000 1.098009
Cu2   Cu    Cu3+1 0.500000 0.359340 0.500000 1.098021
H1    H     H_    0.371567 0.129416 0.418138 0.189367
H2    H     H_    0.628426 0.870582 0.581866 0.188956
H3    H     H_    0.628966 0.132196 0.581660 0.154108
H4    H     H_    0.371035 0.867804 0.418340 0.154104
C7    C     C_R   0.062005 0.373010 0.487761 0.262792
C8    C     C_R   0.937993 0.626973 0.512254 0.263050
C9    C     C_R   0.935190 0.376938 0.481051 0.217954
C10   C     C_R   0.064808 0.623052 0.518953 0.218156
C11   C     C_R   0.414617 0.414590 0.743683 0.294531
C12   C     C_R   0.585011 0.586103 0.256352 0.294693
C13   C     C_R   0.416538 0.414058 0.255531 0.298041
C14   C     C_R   0.584169 0.585280 0.744416 0.297354
C15   C     C_R   0.417041 0.414288 0.815579 -0.193220
C16   C     C_R   0.582764 0.586356 0.184457 -0.193205
C17   C     C_R   0.419205 0.413113 0.183683 -0.189574
C18   C     C_R   0.581595 0.586284 0.816267 -0.189554
H5    H     H_    0.351279 0.350314 0.843228 0.184427
H6    H     H_    0.648236 0.650841 0.156872 0.184164
H7    H     H_    0.353486 0.348917 0.155502 0.184268
H8    H     H_    0.647691 0.649987 0.844436 0.184490
C19   C     C_R   0.499276 0.500440 0.852071 -0.024655
C20   C     C_R   0.501098 0.499573 0.147910 -0.024400
C21   C     C_R   0.428581 0.073718 0.454546 0.090910
C22   C     C_R   0.571418 0.926281 0.545455 0.090526
C23   C     C_R   0.571552 0.075273 0.545398 0.077069
C24   C     C_R   0.428449 0.924727 0.454602 0.077541
C25   C     C_R   0.499296 0.500065 0.707592 -0.252236
C26   C     C_R   0.500812 0.499946 0.292401 -0.252285
C27   C     C_R   0.507581 0.627590 0.964354 -0.148966
C28   C     C_R   0.492957 0.372417 0.035600 -0.149007
C29   C     C_R   0.508133 0.627371 0.035982 -0.151422
C30   C     C_R   0.492352 0.372644 0.963973 -0.151415
H9    H     H_    0.511626 0.727346 0.937476 0.152507
H10   H     H_    0.488950 0.272643 0.062461 0.152452
H11   H     H_    0.512483 0.726991 0.063131 0.151906
H12   H     H_    0.487939 0.273043 0.936807 0.151980
N1    N     N_R   0.500000 0.852070 0.500000 -0.198475
N2    N     N_R   0.500000 0.147930 0.500000 -0.198551
C31   C     C_R   0.500834 0.499780 0.072152 0.135757
C32   C     C_R   0.499653 0.500232 0.927815 0.135574
N3    N     N_R   0.122214 0.241049 0.477201 0.175620
O9    O     O_R   0.160466 0.169908 0.530202 -0.231184
O10   O     O_R   0.117287 0.180156 0.417247 -0.234973
N4    N     N_R   0.877776 0.758908 0.522869 0.175620
O11   O     O_R   0.839569 0.830176 0.469900 -0.231083
O12   O     O_R   0.882622 0.819641 0.582864 -0.234879
N5    N     N_R   0.871771 0.252121 0.458279 0.179970
O13   O     O_R   0.816447 0.250347 0.398792 -0.273643
O14   O     O_R   0.874842 0.138062 0.495229 -0.234069
N6    N     N_R   0.128225 0.747859 0.541742 0.179933
O15   O     O_R   0.183565 0.749592 0.601225 -0.273343
O16   O     O_R   0.125106 0.861958 0.504823 -0.234247
N7    N     N_R   0.322962 0.331641 0.708458 0.148031
O17   O     O_R   0.260362 0.385613 0.657948 -0.325507
O18   O     O_R   0.288905 0.210472 0.733361 -0.294952
N8    N     N_R   0.676013 0.669854 0.291631 0.147952
O19   O     O_R   0.739408 0.616154 0.341904 -0.325075
O20   O     O_R   0.708707 0.791744 0.266981 -0.295060
N9    N     N_R   0.323885 0.332953 0.289986 0.134386
O21   O     O_R   0.260373 0.389703 0.338947 -0.354563
O22   O     O_R   0.289572 0.211184 0.265457 -0.311786
N10   N     N_R   0.677288 0.665616 0.709916 0.134478
O23   O     O_R   0.740051 0.608518 0.660744 -0.355065
O24   O     O_R   0.712767 0.786840 0.734584 -0.311099

loop_
_geom_bond_atom_site_label_1
_geom_bond_atom_site_label_2
_geom_bond_distance
_ccdc_geom_bond_type
N6    O16   1.300902 A    
N5    O14   1.300905 A    
C12   N8    1.438096 S    
C20   C31   1.472945 S    
C11   C25   1.416539 A    
C12   C26   1.416407 A    
C18   H8    1.083546 S    
C24   N1    1.366369 A    
C8    N4    1.435056 S    
O7    C6    1.292437 A    
N10   O24   1.301446 A    
N3    O10   1.301052 A    
C21   N2    1.366156 A    
Cu1   Cu2   2.670965 S    
C15   H5    1.083541 S    
C16   C20   1.399303 A    
N4    O12   1.301051 A    
H1    C21   1.081216 S    
N7    O18   1.301453 A    
O5    C5    1.291524 A    
H2    C22   1.081230 S    
C19   C32   1.472651 S    
O7    Cu1   1.951912 S    
C13   C26   1.415692 A    
C1    C8    1.415597 A    
O8    Cu2   1.951914 S    
C27   C32   1.403363 A    
C28   C31   1.403501 A    
O1    Cu1   1.980672 S    
C14   N10   1.437518 S    
C10   N6    1.435933 S    
C9    N5    1.435927 S    
N6    O15   1.301300 A    
O4    C3    1.289580 A    
C13   N9    1.437367 S    
C21   C24   1.414573 A    
C27   C29   1.392618 A    
C11   C15   1.397930 A    
C28   C30   1.392605 A    
C16   H6    1.083526 S    
C13   C17   1.397470 A    
C14   C18   1.397511 A    
N8    O20   1.301559 A    
O3    C4    1.289591 A    
O6    C6    1.291506 A    
N10   O23   1.300981 A    
C29   H11   1.083062 S    
C2    C7    1.415605 A    
N4    O11   1.301201 A    
O4    Cu2   1.983987 S    
N9    O21   1.300975 A    
C7    N3    1.435073 S    
C1    C9    1.412427 A    
C27   H9    1.083103 S    
C2    C10   1.412426 A    
C18   C19   1.399036 A    
N9    O22   1.301424 A    
C22   C23   1.414577 A    
C12   C16   1.397898 A    
C7    C9    1.392104 A    
C8    C10   1.392095 A    
C11   N7    1.438358 S    
Cu1   N1    2.007212 S    
O2    Cu2   1.980672 S    
C29   C31   1.403573 A    
C30   C32   1.403440 A    
O1    C3    1.294309 A    
O2    C4    1.294302 A    
N8    O19   1.301054 A    
C1    C4    1.466087 S    
H4    C24   1.081718 S    
C2    C3    1.466090 S    
C28   H10   1.083077 S    
C14   C25   1.415839 A    
C17   C20   1.399148 A    
O5    Cu1   1.951349 S    
O6    Cu2   1.951347 S    
N3    O9    1.301210 A    
C17   H7    1.083547 S    
N7    O17   1.300955 A    
Cu2   N2    2.007212 S    
C23   N2    1.366371 A    
N5    O13   1.301299 A    
C30   H12   1.083090 S    
O8    C5    1.292457 A    
C22   N1    1.366156 A    
C15   C19   1.399221 A    
O3    Cu1   1.983987 S    
C5    C26   1.466236 S    
H3    C23   1.081717 S    
C6    C25   1.466125 S    
