data_mof_unit_16589.cif
_audit_creation_date              2012-12-11T14:43:55-0500
_audit_creation_method            fapswitch 2.2
_symmetry_space_group_name_H-M    P1
_symmetry_Int_Tables_number       1
_space_group_crystal_system       triclinic
_cell_length_a                    18.937911
_cell_length_b                    10.925665
_cell_length_c                    18.76168
_cell_angle_alpha                 89.98269
_cell_angle_beta                  90.09997
_cell_angle_gamma                 89.948949
_cell_volume                      3881.95790983

loop_
_atom_site_label
_atom_site_type_symbol
_atom_type_description
_atom_site_fract_x
_atom_site_fract_y
_atom_site_fract_z
_atom_type_partial_charge
C1    C     C_R   0.730871 0.378061 0.146407 0.576869
C2    C     C_R   0.269632 0.377932 0.854029 0.548713
C3    C     C_R   0.230873 0.878068 0.146411 0.575820
C4    C     C_R   0.769635 0.877930 0.854029 0.548680
C5    C     C_R   0.526092 0.384029 0.926285 0.255416
C6    C     C_R   0.487599 0.393041 0.071286 0.255155
C7    C     C_R   0.026120 0.884000 0.926290 0.255387
C8    C     C_R   0.987649 0.893081 0.071295 0.255206
C9    C     C_R   0.022388 0.996405 0.962397 -0.167834
C10   C     C_R   0.000958 0.001191 0.033076 -0.173295
C11   C     C_R   0.522322 0.496423 0.962400 -0.167958
C12   C     C_R   0.500880 0.501173 0.033077 -0.173203
C13   C     C_R   0.691593 0.878943 0.037153 -0.078161
C14   C     C_R   0.303892 0.868884 0.962104 -0.131820
C15   C     C_R   0.191613 0.378869 0.037166 -0.078244
C16   C     C_R   0.803890 0.368868 0.962098 -0.131865
C17   C     C_R   0.692131 0.874231 0.962996 0.220209
C18   C     C_R   0.303500 0.855798 0.036259 0.233428
C19   C     C_R   0.192139 0.374169 0.963007 0.220206
C20   C     C_R   0.803497 0.355789 0.036254 0.233263
C21   C     C_R   0.752936 0.915833 0.926353 0.019622
C22   C     C_R   0.251623 0.919282 0.076027 0.065223
C23   C     C_R   0.252926 0.415848 0.926353 0.019595
C24   C     C_R   0.751613 0.419261 0.076019 0.065486
C25   C     C_R   0.808531 0.970052 0.964498 -0.166910
C26   C     C_R   0.207193 0.003974 0.042795 -0.178468
C27   C     C_R   0.308508 0.470147 0.964488 -0.166889
C28   C     C_R   0.707166 0.503919 0.042780 -0.178206
C29   C     C_R   0.807689 0.972518 0.037148 -0.121106
C30   C     C_R   0.207351 0.014478 0.970140 -0.132354
C31   C     C_R   0.307679 0.472588 0.037139 -0.120818
C32   C     C_R   0.707321 0.514410 0.970126 -0.132395
C33   C     C_R   0.749104 0.929294 0.074261 -0.010605
C34   C     C_R   0.254181 0.944682 0.929065 0.006742
C35   C     C_R   0.249113 0.429283 0.074264 -0.010282
C36   C     C_R   0.754168 0.444643 0.929055 0.006864
C37   C     C_R   0.492911 0.052242 0.462842 0.222531
C38   C     C_R   0.505288 0.053609 0.536002 0.284147
C39   C     C_R   0.989008 0.555352 0.461990 0.222229
C40   C     C_R   0.002405 0.553450 0.534965 0.287844
C41   C     C_R   0.496123 0.163864 0.573377 0.033365
C42   C     C_R   0.498775 0.162645 0.424240 -0.008297
C43   C     C_R   0.996919 0.663384 0.573542 0.034277
C44   C     C_R   0.999301 0.665456 0.424385 -0.008356
C45   C     C_R   0.530099 0.155856 0.147302 0.591636
C46   C     C_R   0.469071 0.155102 0.853343 0.599535
C47   C     C_R   0.030093 0.655860 0.147308 0.591857
C48   C     C_R   0.969061 0.655101 0.853351 0.599194
C49   C     C_R   0.493476 0.274351 0.535480 -0.208510
C50   C     C_R   0.496223 0.273756 0.461160 -0.197245
C51   C     C_R   0.998731 0.775004 0.536752 -0.208177
C52   C     C_R   0.001878 0.776007 0.462390 -0.192644
C53   C     C_R   0.823859 0.920403 0.451908 -0.146120
C54   C     C_R   0.178001 0.928476 0.546403 -0.145901
C55   C     C_R   0.323990 0.431887 0.453683 -0.146405
C56   C     C_R   0.675832 0.412883 0.549222 -0.146830
C57   C     C_R   0.834012 0.893216 0.523076 -0.147437
C58   C     C_R   0.167577 0.901139 0.475664 -0.152505
C59   C     C_R   0.333261 0.403745 0.524840 -0.144205
C60   C     C_R   0.664801 0.382367 0.478492 -0.155348
C61   C     C_R   0.779613 0.843013 0.563227 0.013912
C62   C     C_R   0.221328 0.847243 0.436036 0.008209
C63   C     C_R   0.281466 0.340699 0.562336 0.014671
C64   C     C_R   0.720420 0.340721 0.436807 0.008263
C65   C     C_R   0.717726 0.803635 0.528910 -0.100187
C66   C     C_R   0.283658 0.808792 0.469835 -0.100103
C67   C     C_R   0.226616 0.283964 0.523716 -0.110308
C68   C     C_R   0.784194 0.307713 0.469677 -0.094217
C69   C     C_R   0.706560 0.828841 0.456141 -0.019473
C70   C     C_R   0.295446 0.834949 0.542151 -0.014559
C71   C     C_R   0.218636 0.307043 0.449996 -0.014418
C72   C     C_R   0.795711 0.331517 0.542479 -0.009520
C73   C     C_R   0.758219 0.899337 0.419594 0.029778
C74   C     C_R   0.243168 0.904020 0.579075 0.027208
C75   C     C_R   0.262469 0.396142 0.417788 0.034487
C76   C     C_R   0.742726 0.397971 0.580262 0.026631
C77   C     C_R   0.741295 0.969389 0.147291 0.559171
C78   C     C_R   0.259629 0.973606 0.854182 0.568137
C79   C     C_R   0.241299 0.469378 0.147296 0.556496
C80   C     C_R   0.759625 0.473591 0.854177 0.567780
C81   C     C_R   0.710524 0.329095 0.359569 0.564346
C82   C     C_R   0.289566 0.329149 0.640248 0.566171
C83   C     C_R   0.210903 0.830602 0.359654 0.562058
C84   C     C_R   0.789323 0.829754 0.640358 0.565850
C85   C     C_R   0.530059 0.156924 0.352768 0.541866
C86   C     C_R   0.468766 0.157094 0.646390 0.570990
C87   C     C_R   0.030250 0.657403 0.352874 0.542194
C88   C     C_R   0.968964 0.657004 0.646452 0.569240
C89   C     C_R   0.742563 0.966849 0.353335 0.532722
C90   C     C_R   0.257784 0.967868 0.646336 0.532984
C91   C     C_R   0.243563 0.464906 0.352379 0.532596
C92   C     C_R   0.757663 0.466716 0.646481 0.534074
C93   C     C_R   0.497058 0.161689 0.926387 0.027497
C94   C     C_R   0.498469 0.165507 0.075863 0.027744
C95   C     C_R   0.997019 0.661685 0.926407 0.027551
C96   C     C_R   0.998439 0.665531 0.075882 0.028016
C97   C     C_R   0.506965 0.274848 0.962385 0.022190
C98   C     C_R   0.497502 0.278100 0.037502 0.026504
C99   C     C_R   0.006960 0.774844 0.962397 0.022154
C100  C     C_R   0.997503 0.778121 0.037515 0.026536
C101  C     C_R   0.491925 0.055128 0.038912 -0.159698
C102  C     C_R   0.491846 0.053136 0.965938 -0.155766
C103  C     C_R   0.991841 0.555155 0.038942 -0.159568
C104  C     C_R   0.991755 0.553149 0.965967 -0.155738
Cr1   Cr    Cr6+3 0.772000 0.169640 0.250110 1.047027
Cr2   Cr    Cr6+3 0.228000 0.169640 0.749890 1.026604
Cr3   Cr    Cr6+3 0.272000 0.669640 0.250110 1.046527
Cr4   Cr    Cr6+3 0.728000 0.669640 0.749890 1.025163
Cr5   Cr    Cr6+3 0.614960 0.323350 0.249260 1.028137
Cr6   Cr    Cr6+3 0.385040 0.323350 0.750740 1.026358
Cr7   Cr    Cr6+3 0.114960 0.823350 0.249260 1.027023
Cr8   Cr    Cr6+3 0.885040 0.823350 0.750740 1.027785
Cr9   Cr    Cr6+3 0.616670 0.010620 0.250840 1.006354
Cr10  Cr    Cr6+3 0.383330 0.010620 0.749160 1.017596
Cr11  Cr    Cr6+3 0.116670 0.510620 0.250840 1.008007
Cr12  Cr    Cr6+3 0.883330 0.510620 0.749160 1.019356
H1    H     H_    0.490338 0.967884 0.066388 0.164439
H2    H     H_    0.484960 0.964770 0.940660 0.165488
H3    H     H_    0.990224 0.467921 0.066427 0.164274
H4    H     H_    0.984832 0.464787 0.940697 0.165421
H5    H     H_    0.865971 0.966917 0.423826 0.128373
H6    H     H_    0.136273 0.977063 0.573943 0.132701
H7    H     H_    0.363386 0.488582 0.428105 0.126039
H8    H     H_    0.633059 0.456460 0.577938 0.132236
H9    H     H_    0.883125 0.918615 0.548011 0.132284
H10   H     H_    0.118825 0.929472 0.450829 0.124722
H11   H     H_    0.379608 0.437045 0.551792 0.133515
H12   H     H_    0.614314 0.401707 0.454538 0.133515
H13   H     H_    0.677627 0.757644 0.559770 0.139622
H14   H     H_    0.323787 0.763167 0.438733 0.140281
H15   H     H_    0.191262 0.220836 0.550234 0.132737
H16   H     H_    0.825400 0.267400 0.437592 0.143491
H17   H     H_    0.035289 0.081077 0.935392 0.130157
H18   H     H_    0.995040 0.089752 0.058282 0.109887
H19   H     H_    0.535200 0.581113 0.935402 0.130051
H20   H     H_    0.494926 0.589723 0.058287 0.110362
H21   H     H_    0.644490 0.850080 0.065221 0.148316
H22   H     H_    0.342736 0.820500 0.930433 0.109335
H23   H     H_    0.144522 0.349943 0.065243 0.147830
H24   H     H_    0.842745 0.320505 0.930431 0.109405
H25   H     H_    0.855468 0.005413 0.938769 0.148777
H26   H     H_    0.168605 0.056608 0.072465 0.145914
H27   H     H_    0.355428 0.505585 0.938750 0.148680
H28   H     H_    0.668568 0.556539 0.072445 0.146557
H29   H     H_    0.851875 0.015131 0.063947 0.178648
H30   H     H_    0.171140 0.079607 0.946452 0.186266
H31   H     H_    0.351857 0.515252 0.063929 0.178678
H32   H     H_    0.671096 0.579514 0.946436 0.186256
H33   H     H_    0.489441 0.360377 0.563453 0.125465
H34   H     H_    0.497635 0.359278 0.432453 0.128060
H35   H     H_    0.997586 0.860657 0.565545 0.125557
H36   H     H_    0.006744 0.862414 0.434668 0.125867
O1    O     O_R   0.787540 0.042690 0.170470 -0.489663
O2    O     O_R   0.212460 0.042690 0.829530 -0.513387
O3    O     O_R   0.287540 0.542690 0.170470 -0.490033
O4    O     O_R   0.712460 0.542690 0.829530 -0.513727
O5    O     O_R   0.556540 0.252920 0.323970 -0.519035
O6    O     O_R   0.443460 0.252920 0.676030 -0.531817
O7    O     O_R   0.056540 0.752920 0.323970 -0.518323
O8    O     O_R   0.943460 0.752920 0.676030 -0.531798
O9    O     O_R   0.545870 0.051100 0.330840 -0.502027
O10   O     O_R   0.454130 0.051100 0.669160 -0.463420
O11   O     O_R   0.045870 0.551100 0.330840 -0.499135
O12   O     O_R   0.954130 0.551100 0.669160 -0.462142
O13   O     O_R   0.681340 0.959300 0.325510 -0.520688
O14   O     O_R   0.318660 0.959300 0.674490 -0.527149
O15   O     O_R   0.181340 0.459300 0.325510 -0.505524
O16   O     O_R   0.818660 0.459300 0.674490 -0.524551
O17   O     O_3   0.667880 0.167870 0.250070 -0.277931
O18   O     O_3   0.332120 0.167870 0.749930 -0.280091
O19   O     O_3   0.167880 0.667870 0.250070 -0.276309
O20   O     O_3   0.832120 0.667870 0.749930 -0.279176
O21   O     O_R   0.765660 0.292160 0.175050 -0.431961
O22   O     O_R   0.234340 0.292160 0.824950 -0.486151
O23   O     O_R   0.265660 0.792160 0.175050 -0.431765
O24   O     O_R   0.734340 0.792160 0.824950 -0.486075
O25   O     O_R   0.670190 0.408980 0.168550 -0.533202
O26   O     O_R   0.329810 0.408980 0.831450 -0.522366
O27   O     O_R   0.170190 0.908980 0.168550 -0.533316
O28   O     O_R   0.829810 0.908980 0.831450 -0.522272
O29   O     O_R   0.556580 0.251450 0.175160 -0.441260
O30   O     O_R   0.443420 0.251450 0.824840 -0.446251
O31   O     O_R   0.056580 0.751450 0.175160 -0.440949
O32   O     O_R   0.943420 0.751450 0.824840 -0.446371
O33   O     O_R   0.545920 0.049510 0.170320 -0.533515
O34   O     O_R   0.454080 0.049510 0.829680 -0.535408
O35   O     O_R   0.045920 0.549510 0.170320 -0.534050
O36   O     O_R   0.954080 0.549510 0.829680 -0.535765
O37   O     O_R   0.681390 0.957840 0.176710 -0.513722
O38   O     O_R   0.318610 0.957840 0.823290 -0.507031
O39   O     O_R   0.181390 0.457840 0.176710 -0.516548
O40   O     O_R   0.818610 0.457840 0.823290 -0.507355
O41   O     O_R   0.787500 0.044280 0.330990 -0.533004
O42   O     O_R   0.212500 0.044280 0.669010 -0.531741
O43   O     O_R   0.287500 0.544280 0.330990 -0.535314
O44   O     O_R   0.712500 0.544280 0.669010 -0.529407
O45   O     O_R   0.765610 0.293630 0.323860 -0.510160
O46   O     O_R   0.234390 0.293630 0.676140 -0.492348
O47   O     O_R   0.265610 0.793630 0.323860 -0.510081
O48   O     O_R   0.734390 0.793630 0.676140 -0.497796
O49   O     O_R   0.670140 0.410570 0.329080 -0.526109
O50   O     O_R   0.329860 0.410570 0.670920 -0.524415
O51   O     O_R   0.170140 0.910570 0.329080 -0.534952
O52   O     O_R   0.829860 0.910570 0.670920 -0.522132
C105  C     C_3   0.639549 0.787571 0.418237 -0.238574
C106  C     C_3   0.601031 0.679643 0.451682 -0.325431
C107  C     C_3   0.542285 0.633169 0.402790 -0.441967
H37   H     H_    0.507462 0.709596 0.385769 0.186326
H38   H     H_    0.565080 0.588846 0.354795 0.173326
H39   H     H_    0.509604 0.565563 0.431678 0.122235
H40   H     H_    0.639982 0.606759 0.460794 0.183133
H41   H     H_    0.577853 0.705761 0.503376 0.152651
H42   H     H_    0.602743 0.866172 0.414643 0.225668
H43   H     H_    0.654363 0.757175 0.363685 0.172746
C108  C     C_3   0.363014 0.794301 0.579736 -0.221639
C109  C     C_3   0.409825 0.702522 0.540638 -0.326683
C110  C     C_3   0.462788 0.642916 0.591621 -0.457597
H44   H     H_    0.497285 0.713116 0.616403 0.186098
H45   H     H_    0.434798 0.592317 0.634427 0.171990
H46   H     H_    0.496229 0.576936 0.562163 0.122448
H47   H     H_    0.376411 0.631373 0.517173 0.159791
H48   H     H_    0.438570 0.748844 0.496984 0.211153
H49   H     H_    0.347274 0.751917 0.631247 0.168450
H50   H     H_    0.396008 0.875867 0.590065 0.233287
C111  C     C_3   0.171748 0.224832 0.405701 -0.254197
C112  C     C_3   0.093590 0.247795 0.419846 -0.286357
C113  C     C_3   0.047075 0.177181 0.367574 -0.416879
H51   H     H_    0.058343 0.206106 0.311978 0.156090
H52   H     H_    0.056487 0.077273 0.372724 0.150707
H53   H     H_    0.990618 0.195893 0.378982 0.155722
H54   H     H_    0.080568 0.218511 0.474925 0.139673
H55   H     H_    0.082929 0.346972 0.414062 0.244948
H56   H     H_    0.183146 0.236060 0.348024 0.166247
H57   H     H_    0.184755 0.128315 0.418359 0.160561
C114  C     C_3   0.863299 0.289004 0.579364 -0.220368
C115  C     C_3   0.909306 0.198249 0.537718 -0.323986
C116  C     C_3   0.965797 0.139971 0.585058 -0.459672
H58   H     H_    0.998290 0.211080 0.611612 0.188637
H59   H     H_    0.940852 0.081834 0.626521 0.171717
H60   H     H_    0.000948 0.081919 0.551965 0.120024
H61   H     H_    0.875699 0.125241 0.515656 0.164456
H62   H     H_    0.935545 0.245844 0.492870 0.202890
H63   H     H_    0.847990 0.244491 0.630381 0.164845
H64   H     H_    0.896266 0.369869 0.591058 0.235512
O53   O     O_3   0.553159 0.378165 0.857990 -0.682911
H65   H     H_    0.564625 0.461980 0.841340 0.325537
O54   O     O_3   0.459325 0.398094 0.139120 -0.687060
H66   H     H_    0.455520 0.484782 0.154338 0.318527
O55   O     O_3   0.053183 0.878097 0.857995 -0.682790
H67   H     H_    0.064678 0.961896 0.841340 0.325724
O56   O     O_3   0.959393 0.898186 0.139136 -0.686614
H68   H     H_    0.955648 0.984879 0.154358 0.318255
O57   O     O_3   0.632633 0.830729 0.928981 -0.729743
H69   H     H_    0.629965 0.868895 0.881163 0.338348
O58   O     O_3   0.351390 0.779793 0.070059 -0.693142
H70   H     H_    0.383734 0.743948 0.034140 0.300095
O59   O     O_3   0.132647 0.330603 0.929002 -0.729756
H71   H     H_    0.129953 0.368790 0.881189 0.338371
O60   O     O_3   0.851398 0.279810 0.070059 -0.693303
H72   H     H_    0.883725 0.243917 0.034139 0.300085
O61   O     O_3   0.476573 0.942273 0.430706 -0.756148
H73   H     H_    0.446385 0.959716 0.388647 0.338616
O62   O     O_3   0.522289 0.947930 0.572578 -0.700297
H74   H     H_    0.536662 0.884695 0.537989 0.342950
O63   O     O_3   0.967298 0.448843 0.429102 -0.753588
H75   H     H_    0.940140 0.471138 0.385747 0.340870
O64   O     O_3   0.017549 0.445518 0.570112 -0.699942
H76   H     H_    0.029458 0.381987 0.534659 0.338940

loop_
_geom_bond_atom_site_label_1
_geom_bond_atom_site_label_2
_ccdc_geom_bond_type
C58   C62   A    
Cr1   O1    S    
C62   C83   S    
C8    O56   S    
C101  C102  A    
C56   C76   A    
C48   C95   S    
C55   C59   A    
Cr8   O52   S    
C85   O9    A    
Cr3   O3    S    
C14   C18   A    
C87   O11   A    
O61   H73   S    
C78   O38   A    
C34   C78   S    
C72   C76   A    
Cr5   O5    S    
C108  H50   S    
Cr3   O43   S    
C97   C98   A    
C45   O29   A    
O56   H68   S    
Cr8   O32   S    
C71   C75   A    
Cr3   O19   S    
C105  C106  S    
C84   O48   A    
C110  H46   S    
C15   C19   A    
C41   C86   S    
Cr12  O36   S    
C26   H26   S    
C17   O57   S    
O55   H67   S    
C57   C61   A    
C7    C99   A    
C96   C100  A    
C7    O55   S    
Cr10  O38   S    
C111  H57   S    
C64   C68   A    
C91   O15   A    
C111  C112  S    
C5    C11   A    
C81   O45   A    
O57   H69   S    
C95   C99   A    
Cr10  O10   S    
C94   C98   A    
C59   H11   S    
C112  H54   S    
C116  H59   S    
C29   C33   A    
C91   O43   A    
C115  C116  S    
Cr12  O20   S    
Cr10  O18   S    
O59   H71   S    
C115  H62   S    
C37   C42   A    
C68   H16   S    
C3    O27   A    
C109  H47   S    
Cr7   O7    S    
C77   O1    A    
C106  H41   S    
C54   C74   A    
C1    O25   A    
C106  H40   S    
C41   C49   A    
C40   C43   A    
C20   C24   A    
C94   C101  A    
Cr2   O2    S    
C90   O42   A    
C70   C74   A    
C107  H39   S    
C27   H27   S    
C114  C115  S    
C80   O4    A    
C28   H28   S    
C23   C27   A    
C77   O37   A    
Cr4   O44   S    
C44   C87   S    
O63   H75   S    
C114  H63   S    
Cr7   O19   S    
Cr6   O6    S    
C68   C72   A    
Cr2   O46   S    
Cr11  O39   S    
C44   C52   A    
Cr1   O45   S    
C32   C36   A    
C54   H6    S    
C105  H42   S    
C79   O39   A    
O53   H65   S    
C90   O14   A    
Cr7   O27   S    
Cr2   O18   S    
C51   C52   A    
C16   H24   S    
C85   O5    A    
C4    O28   A    
C43   C88   S    
C45   C94   S    
C6    C12   A    
C15   C35   A    
Cr5   O17   S    
C60   C64   A    
C30   H30   S    
C15   H23   S    
C112  H55   S    
C25   C29   A    
C114  H64   S    
C55   H7    S    
C75   C91   S    
C59   C63   A    
C30   C34   A    
C63   C82   S    
C27   C31   A    
C107  H37   S    
C14   H22   S    
C6    O54   S    
C60   H12   S    
C109  C110  S    
C38   C41   A    
C83   O51   A    
C36   C80   S    
C47   C96   S    
Cr7   O51   S    
C39   C40   A    
C82   O50   A    
C62   C66   A    
C106  C107  S    
C78   O2    A    
C81   O49   A    
C110  H44   S    
C88   O12   A    
C79   O3    A    
C31   H31   S    
C17   C21   A    
C56   C60   A    
C108  H49   S    
C13   H21   S    
C115  H61   S    
Cr4   O48   S    
C19   C23   A    
C108  C109  S    
C51   H35   S    
C63   C67   A    
C13   C33   A    
C37   C38   A    
C92   O16   A    
C11   H19   S    
Cr11  O35   S    
C50   H34   S    
C93   C97   A    
C65   H13   S    
C113  H51   S    
Cr4   O4    S    
C28   C32   A    
C16   C20   A    
Cr10  O14   S    
C89   O41   A    
O62   H74   S    
Cr7   O31   S    
Cr2   O42   S    
Cr2   O22   S    
C25   H25   S    
C112  C113  S    
C48   O36   A    
C46   O34   A    
C69   C73   A    
C86   O6    A    
C89   O13   A    
Cr9   O33   S    
Cr1   O17   S    
C42   C50   A    
C86   O10   A    
Cr6   O18   S    
C47   O31   A    
C113  H52   S    
C76   C92   S    
C105  H43   S    
C58   H10   S    
Cr4   O20   S    
C4    O24   A    
C31   C35   A    
C1    O21   A    
C96   C103  A    
Cr11  O19   S    
C113  H53   S    
C70   C108  S    
C83   O47   A    
O60   H72   S    
C6    C98   A    
C103  C104  A    
C95   C104  A    
C48   O32   A    
C12   H20   S    
C54   C58   A    
Cr5   O29   S    
C7    C9    A    
Cr12  O40   S    
C21   C25   A    
C53   C57   A    
Cr8   O8    S    
Cr11  O15   S    
C18   C22   A    
Cr3   O47   S    
C53   C73   A    
Cr12  O12   S    
C103  H3    S    
C24   C28   A    
Cr9   O13   S    
C5    O53   S    
C92   O44   A    
C61   C84   S    
C102  H2    S    
C93   C102  A    
C14   C34   A    
Cr9   O17   S    
C11   C12   A    
C39   O63   S    
C82   O46   A    
C39   C44   A    
C32   H32   S    
C49   H33   S    
C18   O58   S    
C110  H45   S    
Cr9   O37   S    
C66   C70   A    
C69   C105  S    
Cr10  O34   S    
C99   C100  A    
Cr8   O28   S    
C33   C77   S    
Cr6   O50   S    
O64   H76   S    
C111  H56   S    
C101  H1    S    
C74   C90   S    
Cr5   O49   S    
C46   O30   A    
C55   C75   A    
C73   C89   S    
C3    O23   A    
Cr11  O11   S    
C53   H5    S    
C38   O62   S    
C2    O22   A    
C57   H9    S    
C29   H29   S    
C4    C21   S    
Cr1   O41   S    
C45   O33   A    
Cr8   O20   S    
C46   C93   S    
Cr3   O23   S    
C43   C51   A    
C65   C69   A    
Cr4   O24   S    
C35   C79   S    
C42   C85   S    
C87   O7    A    
C56   H8    S    
C5    C97   A    
C67   C71   A    
C88   O8    A    
C72   C114  S    
C8    C100  A    
C84   O52   A    
C67   H15   S    
C37   O61   S    
C64   C81   S    
C109  H48   S    
C80   O40   A    
C20   O60   S    
Cr9   O9    S    
C13   C17   A    
C40   O64   S    
C61   C65   A    
C10   H18   S    
Cr6   O30   S    
C1    C24   S    
C8    C10   A    
C49   C50   A    
C22   C26   A    
C116  H60   S    
C2    C23   S    
C107  H38   S    
Cr5   O25   S    
Cr6   O26   S    
Cr12  O16   S    
C3    C22   S    
Cr1   O21   S    
C2    O26   A    
C66   H14   S    
C19   O59   S    
C116  H58   S    
C52   H36   S    
C47   O35   A    
C71   C111  S    
C16   C36   A    
O58   H70   S    
O54   H66   S    
C9    C10   A    
C104  H4    S    
C26   C30   A    
C9    H17   S    
