data_mof_unit_26542.cif
_audit_creation_date              2012-12-10T17:00:50-0500
_audit_creation_method            fapswitch 2.2
_symmetry_space_group_name_H-M    P1
_symmetry_Int_Tables_number       1
_space_group_crystal_system       triclinic
_cell_length_a                    10.781584
_cell_length_b                    10.755546
_cell_length_c                    10.147451
_cell_angle_alpha                 91.017319
_cell_angle_beta                  103.422087
_cell_angle_gamma                 91.438248
_cell_volume                      1143.87952753

loop_
_atom_site_label
_atom_site_type_symbol
_atom_type_description
_atom_site_fract_x
_atom_site_fract_y
_atom_site_fract_z
_atom_type_partial_charge
C1    C     C_R   0.477706 0.265688 0.492547 0.931076
C2    C     C_2   0.123145 0.479422 0.413007 -0.354548
C3    C     C_2   0.069792 0.423811 0.503839 -0.188509
C4    C     C_2   0.879699 0.472346 0.583708 -0.232071
C5    C     C_2   0.932208 0.420785 0.486773 -0.033238
C6    C     C_2   0.433562 0.928823 0.386850 -0.365725
C7    C     C_R   0.862219 0.350181 0.364826 0.212777
C8    C     C_R   0.838781 0.407598 0.238773 -0.091213
C9    C     C_R   0.818116 0.336066 0.119416 -0.137488
C10   C     C_R   0.824497 0.206995 0.125663 -0.154036
C11   C     C_R   0.841370 0.148509 0.250100 -0.152987
C12   C     C_2   0.492233 0.872200 0.501966 -0.214248
C13   C     C_R   0.858744 0.219864 0.369558 -0.145879
C14   C     C_3   0.343272 0.359081 0.831121 -0.173604
C15   C     C_R   0.963811 0.512301 0.716467 0.129687
C16   C     C_R   0.049345 0.614698 0.724833 -0.141786
C17   C     C_R   0.139912 0.642486 0.845535 -0.191488
C18   C     C_R   0.143714 0.570096 0.959422 -0.143421
C19   C     C_R   0.060620 0.466878 0.951149 -0.169328
C20   C     C_R   0.972553 0.436640 0.829431 -0.195560
C21   C     C_R   0.547238 0.940881 0.630681 0.169738
C22   C     C_R   0.471303 0.955783 0.724873 -0.138199
C23   C     C_2   0.436206 0.065632 0.370731 0.575459
C24   C     C_R   0.497322 0.054941 0.818771 -0.199131
C25   C     C_R   0.604562 0.132792 0.825954 -0.048461
C26   C     C_R   0.688177 0.109586 0.742245 -0.149845
C27   C     C_R   0.659394 0.014036 0.643930 -0.147330
C28   C     C_3   0.521941 0.050677 0.181757 -0.299315
C29   C     C_R   0.644288 0.682524 0.919557 0.083488
C30   C     C_R   0.617095 0.798459 0.969385 -0.172681
C31   C     C_R   0.708560 0.895151 0.991800 -0.102769
C32   C     C_R   0.824530 0.880723 0.956515 -0.122294
C33   C     C_R   0.851935 0.766460 0.906047 -0.161392
C34   C     C_2   0.424382 0.139987 0.474122 -0.409992
C35   C     C_R   0.764450 0.666379 0.892923 -0.106673
C36   C     C_2   0.570744 0.573854 0.948010 0.127510
C37   C     C_2   0.584962 0.556844 0.097554 -0.127881
C38   C     C_R   0.259596 0.496184 0.443636 0.900238
C39   C     C_R   0.498094 0.737994 0.500760 0.905724
C40   C     C_R   0.741234 0.491991 0.555948 0.872267
H1    H     H_    0.663608 0.604954 0.167293 0.139917
H2    H     H_    0.846448 0.048267 0.254591 0.123493
H3    H     H_    0.880791 0.174024 0.466088 0.105338
H4    H     H_    0.338224 0.300909 0.739048 0.177439
H5    H     H_    0.283843 0.442008 0.806306 0.173791
H6    H     H_    0.300587 0.302649 0.900678 0.139823
H7    H     H_    0.047271 0.671361 0.637222 0.134216
H8    H     H_    0.205934 0.720980 0.851244 0.130399
H9    H     H_    0.212198 0.592960 0.053413 0.141621
H10   H     H_    0.065615 0.409405 0.038593 0.152615
H11   H     H_    0.911084 0.354599 0.823148 0.121397
H12   H     H_    0.416086 0.475344 0.083629 0.216545
H13   H     H_    0.384196 0.900377 0.715143 0.122664
H14   H     H_    0.432721 0.072935 0.883506 0.139980
H15   H     H_    0.622967 0.210785 0.896724 0.178762
H16   H     H_    0.771716 0.169326 0.749025 0.111359
H17   H     H_    0.718361 0.003643 0.571570 0.113441
H18   H     H_    0.463490 0.974661 0.120121 0.145610
H19   H     H_    0.607577 0.013546 0.251820 0.156939
H20   H     H_    0.556203 0.114266 0.112349 0.204625
H21   H     H_    0.528578 0.810596 0.000383 0.107703
H22   H     H_    0.689698 0.980980 0.037489 0.116634
H23   H     H_    0.127318 0.388779 0.597346 0.164924
H24   H     H_    0.894736 0.956447 0.972162 0.120017
H25   H     H_    0.944085 0.754733 0.885677 0.162288
H26   H     H_    0.793992 0.574595 0.874262 0.157745
H27   H     H_    0.067653 0.514299 0.318705 0.144303
H28   H     H_    0.392920 0.872749 0.296262 0.175744
H29   H     H_    0.381313 0.105839 0.552515 0.124204
H30   H     H_    0.847995 0.507598 0.233808 0.101759
H31   H     H_    0.804313 0.380942 0.022778 0.128360
H32   H     H_    0.819661 0.152922 0.034211 0.115910
N1    N     N_2   0.501330 0.501330 0.852460 0.068693
N2    N     N_2   0.501370 0.501360 0.148130 -0.175846
O1    O     O_R   0.499980 0.319060 0.613030 -0.607292
O2    O     O_3   0.446371 0.119794 0.249944 -0.574363
O3    O     O_R   0.500020 0.319100 0.386910 -0.536512
O4    O     O_R   0.317800 0.500000 0.570840 -0.632169
O5    O     O_R   0.317840 0.500040 0.344720 -0.628344
O6    O     O_R   0.499980 0.680900 0.613090 -0.612550
O7    O     O_R   0.500020 0.680940 0.386970 -0.623109
O8    O     O_R   0.682160 0.499960 0.655280 -0.619692
O9    O     O_R   0.682200 0.500000 0.429160 -0.606359
O10   O     O_3   0.470658 0.389587 0.896378 -0.561070
Zn1   Zn    Zn3+2 0.499970 0.499970 0.650990 0.960834
Zn2   Zn    Zn3+2 0.500030 0.500030 0.349010 0.961338

loop_
_geom_bond_atom_site_label_1
_geom_bond_atom_site_label_2
_ccdc_geom_bond_type
C37   N2    D    
C1    O3    A    
C19   C20   A    
C31   H22   S    
C17   H8    S    
C14   O10   S    
C23   O2    S    
C33   H25   S    
C7    C8    A    
C14   H6    S    
C29   C36   S    
C26   C27   A    
C29   C30   A    
C36   C37   S    
C20   H11   S    
H12   N2    S    
C6    C12   D    
C30   C31   A    
C38   O5    A    
C24   H14   S    
C15   C16   A    
C11   H2    S    
C9    H31   S    
C18   C19   A    
O1    Zn1   S    
C4    C40   S    
C8    C9    A    
C22   H13   S    
C9    C10   A    
N1    O10   S    
O7    Zn2   S    
C6    H28   S    
C21   C27   A    
C21   C22   A    
C40   O9    A    
C16   H7    S    
C1    C34   S    
C14   H5    S    
C28   H20   S    
C15   C20   A    
C1    O1    A    
C40   O8    A    
C24   C25   A    
C32   H24   S    
C2    H27   S    
C27   H17   S    
C39   O7    A    
C5    C7    S    
C16   C17   A    
C38   O4    A    
C35   H26   S    
C25   C26   A    
C12   C21   S    
O6    Zn1   S    
C2    C38   S    
C31   C32   A    
C23   C34   D    
C17   C18   A    
N2    Zn2   S    
C34   H29   S    
N1    Zn1   S    
O4    Zn1   S    
O3    Zn2   S    
C3    H23   S    
C22   C24   A    
C28   O2    S    
C13   H3    S    
C14   H4    S    
C28   H19   S    
C25   H15   S    
C4    C5    D    
C3    C5    S    
C26   H16   S    
C28   H18   S    
O8    Zn1   S    
C29   C35   A    
C8    H30   S    
C39   O6    A    
C12   C39   S    
C2    C3    D    
C32   C33   A    
C11   C13   A    
C19   H10   S    
C4    C15   S    
C6    C23   S    
C33   C35   A    
C37   H1    S    
C10   C11   A    
C7    C13   A    
O9    Zn2   S    
C30   H21   S    
C36   N1    D    
O5    Zn2   S    
C18   H9    S    
C10   H32   S    
