data_mof_unit_8592.cif
_audit_creation_date              2012-12-10T20:48:49-0500
_audit_creation_method            fapswitch 2.2
_symmetry_space_group_name_H-M    P1
_symmetry_Int_Tables_number       1
_space_group_crystal_system       triclinic
_cell_length_a                    15.81654
_cell_length_b                    8.905492
_cell_length_c                    8.210683
_cell_angle_alpha                 90.009809
_cell_angle_beta                  89.275919
_cell_angle_gamma                 90.007019
_cell_volume                      1156.41574523

loop_
_atom_site_label
_atom_site_type_symbol
_atom_type_description
_atom_site_fract_x
_atom_site_fract_y
_atom_site_fract_z
_atom_type_partial_charge
C1    C     C_R   0.499997 0.218451 0.499991 0.919132
C2    C     C_3   0.053411 0.442495 0.334747 0.266367
C3    C     C_3   0.946692 0.439197 0.661405 0.225221
C4    C     C_3   0.953289 0.416673 0.346690 0.297310
C5    C     C_1   0.749916 0.505076 0.496030 -0.058857
C6    C     C_1   0.250084 0.504941 0.503828 -0.015554
C7    C     C_3   0.083344 0.515958 0.502849 -0.058477
C8    C     C_3   0.916666 0.516209 0.495346 0.019658
C9    C     C_3   0.949403 0.688683 0.483864 -0.332647
C10   C     C_3   0.050764 0.688684 0.516987 -0.367989
C11   C     C_2   0.077516 0.752306 0.682558 0.527640
C12   C     C_1   0.824804 0.510528 0.493951 0.166041
C13   C     C_2   0.096565 0.801316 0.404386 0.441526
C14   C     C_2   0.903274 0.802057 0.595505 0.664405
C15   C     C_2   0.925396 0.753121 0.316595 0.363036
C16   C     C_2   0.081938 0.539668 0.191086 0.303185
C17   C     C_2   0.089758 0.427071 0.813176 0.366954
C18   C     C_2   0.910292 0.437518 0.182276 0.321181
C19   C     C_2   0.915300 0.532192 0.806714 0.291321
C20   C     C_1   0.175170 0.510307 0.505325 0.155939
C21   C     C_R   0.338344 0.500152 0.501057 0.883351
C22   C     C_R   0.661657 0.500186 0.498935 0.885900
C23   C     C_1   0.499999 0.934638 0.500012 -0.137978
C24   C     C_1   0.499997 0.065331 0.499987 -0.144535
C25   C     C_R   0.500001 0.781522 0.500008 0.938138
C26   C     C_3   0.046561 0.412407 0.648500 0.345347
H1    H     H_    0.125668 0.697457 0.752625 0.133369
H2    H     H_    0.053621 0.401333 0.921414 0.085659
H3    H     H_    0.937556 0.380102 0.078317 0.060969
H4    H     H_    0.849889 0.520334 0.846222 0.175175
H5    H     H_    0.065479 0.906060 0.373404 0.112700
H6    H     H_    0.925215 0.917509 0.597721 0.135271
H7    H     H_    0.971301 0.782463 0.224140 0.086654
H8    H     H_    0.846568 0.304860 0.698142 0.330778
H9    H     H_    0.953013 0.197737 0.292803 0.364359
H10   H     H_    0.046543 0.192218 0.695222 0.392613
H11   H     H_    0.153521 0.308769 0.296625 0.379886
H12   H     H_    0.038041 0.601103 0.119056 0.095619
N1    N     N_1   0.500000 0.500030 0.073640 -0.005370
N2    N     N_1   0.500000 0.500030 0.926360 -0.006225
O1    O     O_R   0.500000 0.285340 0.636850 -0.613428
O2    O     O_2   0.170869 0.788068 0.364904 -0.519876
O3    O     O_2   0.837147 0.773964 0.667459 -0.564997
O4    O     O_2   0.851519 0.779033 0.284121 -0.465736
O5    O     O_3   0.908701 0.295809 0.682953 -0.713189
O6    O     O_3   0.936777 0.264154 0.385466 -0.634506
O7    O     O_3   0.062336 0.260884 0.604234 -0.614970
O8    O     O_3   0.091254 0.299697 0.308186 -0.684821
O9    O     O_2   0.156723 0.549578 0.153494 -0.467837
O10   O     O_2   0.166282 0.438821 0.825774 -0.526500
O11   O     O_2   0.842626 0.500905 0.165804 -0.507990
O12   O     O_R   0.500000 0.285340 0.363150 -0.614830
O13   O     O_2   0.958430 0.624803 0.875981 -0.605696
O14   O     O_R   0.377140 0.500000 0.636930 -0.596083
O15   O     O_R   0.377140 0.500000 0.363070 -0.594133
O16   O     O_R   0.622860 0.500000 0.636930 -0.620630
O17   O     O_R   0.622860 0.500000 0.363070 -0.587553
O18   O     O_R   0.500000 0.714650 0.636900 -0.610615
O19   O     O_R   0.500000 0.714650 0.363100 -0.606535
O20   O     O_2   0.055473 0.876352 0.730306 -0.568448
Zn1   Zn    Zn3+2 0.500000 0.499990 0.682780 1.049102
Zn2   Zn    Zn3+2 0.500000 0.499990 0.317220 1.062199

loop_
_geom_bond_atom_site_label_1
_geom_bond_atom_site_label_2
_ccdc_geom_bond_type
C17   O10   D    
C15   O4    D    
C7    C10   S    
C2    C4    S    
C9    C14   S    
C3    C19   S    
O14   Zn1   S    
O1    Zn1   S    
C8    C12   S    
C6    C20   T    
C9    C10   S    
H9    O6    S    
C2    C7    S    
C11   H1    S    
C4    C8    S    
C4    C18   S    
C19   O13   D    
O18   Zn1   S    
C9    C15   S    
O17   Zn2   S    
C18   H3    S    
O12   Zn2   S    
C1    C24   S    
H11   O8    S    
C19   H4    S    
C7    C26   S    
C26   O7    S    
C22   O17   A    
C17   C26   S    
C1    O1    A    
C13   O2    D    
C15   H7    S    
C18   O11   D    
C7    C20   S    
C23   C25   S    
C21   O14   A    
C1    O12   A    
C10   C11   S    
N2    Zn1   S    
C23   C24   T    
C11   O20   D    
O15   Zn2   S    
C22   O16   A    
C2    C16   S    
C16   O9    D    
H10   O7    S    
C21   O15   A    
C3    C8    S    
C25   O18   A    
C16   H12   S    
N1    N2    T    
H8    O5    S    
N1    Zn2   S    
C13   H5    S    
O16   Zn1   S    
C14   O3    D    
O19   Zn2   S    
C4    O6    S    
C25   O19   A    
C2    O8    S    
C6    C21   S    
C3    O5    S    
C3    C26   S    
C5    C22   S    
C17   H2    S    
C14   H6    S    
C8    C9    S    
C10   C13   S    
C5    C12   T    
