data_mof_unit_39589.cif
_audit_creation_date              2012-12-11T15:13:43-0500
_audit_creation_method            fapswitch 2.2
_symmetry_space_group_name_H-M    P1
_symmetry_Int_Tables_number       1
_space_group_crystal_system       triclinic
_cell_length_a                    6.986444
_cell_length_b                    13.531898
_cell_length_c                    20.116647
_cell_angle_alpha                 103.948518
_cell_angle_beta                  89.886293
_cell_angle_gamma                 90.136157
_cell_volume                      1845.73791693

loop_
_atom_site_label
_atom_site_type_symbol
_atom_type_description
_atom_site_fract_x
_atom_site_fract_y
_atom_site_fract_z
_atom_type_partial_charge
O1    O     O_R   0.506780 0.600060 0.449950 -0.543400
O2    O     O_R   0.179840 0.597110 0.589410 -0.528181
O3    O     O_R   0.004570 0.399940 0.550050 -0.536356
C1    C     C_R   0.347928 0.620221 0.616315 0.728997
O4    O     O_R   0.177380 0.612160 0.452890 -0.534778
O5    O     O_R   0.002100 0.415100 0.412560 -0.543758
C2    C     C_R   0.347047 0.638970 0.436450 0.697039
O6    O     O_R   0.509250 0.584900 0.587440 -0.532110
O7    O     O_3   0.337570 0.435330 0.486930 -0.377735
V1    V     V_3+5 0.064650 0.512000 0.502430 1.523467
O8    O     O_R   0.672090 0.402890 0.410590 -0.548624
C3    C     C_R   0.840999 0.381159 0.383458 0.682936
O9    O     O_R   0.674540 0.387840 0.547110 -0.540683
C4    C     C_R   0.843782 0.360131 0.562625 0.713734
V2    V     V_3+5 0.564040 0.488000 0.497570 1.491877
O10   O     O_3   0.840990 0.564670 0.513070 -0.357396
C5    C     C_R   0.945120 0.114302 0.609859 -0.022655
H1    H     H_    0.947990 0.166830 0.517194 0.133090
H2    H     H_    0.996385 0.992526 0.696070 0.123374
C6    C     C_R   0.856152 0.283889 0.603339 -0.088335
C7    C     C_R   0.828910 0.317673 0.934608 -0.141138
C8    C     C_R   0.825386 0.394997 0.900380 -0.074684
C9    C     C_R   0.843550 0.372482 0.829375 -0.102746
C10   C     C_R   0.860306 0.270701 0.789789 0.071437
C11   C     C_R   0.882626 0.193386 0.826238 0.076234
C12   C     C_R   0.866499 0.243331 0.715996 0.043250
C13   C     C_R   0.923310 0.142110 0.682002 0.098930
C14   C     C_R   0.955437 0.069842 0.720345 -0.131890
C15   C     C_R   0.930552 0.094105 0.790579 -0.156813
C16   C     C_R   0.815317 0.310414 0.673867 -0.082789
C17   C     C_R   0.921469 0.186848 0.571988 -0.213293
C18   C     C_R   0.860468 0.217451 0.898317 -0.073540
H3    H     H_    0.813079 0.336338 0.989846 0.120144
H4    H     H_    0.952464 0.033962 0.816821 0.107855
C19   C     C_3   0.795403 0.156565 0.252304 -0.168025
C20   C     C_3   0.969421 0.212758 0.291619 -0.041281
C21   C     C_3   0.850722 0.311348 0.313073 -0.101529
C22   C     C_3   0.676256 0.256385 0.273720 -0.088708
C23   C     C_3   0.744886 0.288568 0.208212 -0.120513
C24   C     C_3   0.918184 0.342735 0.248189 -0.064080
C25   C     C_3   0.036630 0.244776 0.226973 -0.071102
C26   C     C_3   0.863134 0.189562 0.187569 -0.053138
H5    H     H_    0.662150 0.324019 0.173063 0.143546
C27   C     C_3   0.532867 0.744925 0.723056 -0.078024
C28   C     C_3   0.419801 0.844665 0.746251 -0.069358
C29   C     C_3   0.358785 0.814158 0.812293 -0.118133
C30   C     C_3   0.472804 0.714034 0.789015 -0.070961
C31   C     C_3   0.292639 0.661797 0.752616 -0.030892
C32   C     C_3   0.177262 0.761802 0.775876 -0.138315
C33   C     C_3   0.239992 0.792634 0.709098 -0.127811
C34   C     C_3   0.353662 0.691876 0.686530 -0.084533
C35   C     C_R   0.432152 0.890398 0.390977 -0.163496
C36   C     C_R   0.362635 0.717731 0.397737 -0.082402
C37   C     C_R   0.324769 0.680095 0.067479 -0.099560
C38   C     C_R   0.325533 0.603275 0.103520 -0.030871
C39   C     C_R   0.350469 0.628238 0.174479 -0.164202
C40   C     C_R   0.369092 0.730482 0.212110 0.077817
C41   C     C_R   0.380288 0.807743 0.175083 0.058385
C42   C     C_R   0.378678 0.758404 0.285346 0.084857
C43   C     C_R   0.414542 0.861510 0.319354 0.126110
C44   C     C_R   0.433714 0.935165 0.281715 -0.181305
C45   C     C_R   0.413491 0.909347 0.211003 -0.199221
C46   C     C_R   0.350699 0.687914 0.326249 -0.196887
C47   C     C_R   0.410140 0.818765 0.430149 -0.043046
C48   C     C_R   0.357517 0.782083 0.102822 -0.130965
O11   O     O_R   0.203580 0.914920 0.912610 -0.543253
O12   O     O_R   0.535710 0.887810 0.047120 -0.541114
O13   O     O_R   0.710730 0.084950 0.087430 -0.529473
C49   C     C_R   0.366954 0.861505 0.064058 0.702656
O14   O     O_R   0.533010 0.902850 0.910600 -0.547599
O15   O     O_R   0.708010 0.100090 0.949930 -0.537604
C50   C     C_R   0.364997 0.882469 0.883034 0.709552
O16   O     O_R   0.206300 0.899780 0.050100 -0.539823
O17   O     O_3   0.375170 0.064580 0.013100 -0.357083
V3    V     V_3+5 0.648200 0.988020 0.997570 1.483461
O18   O     O_R   0.038030 0.112330 0.952840 -0.539212
C51   C     C_R   0.869243 0.139088 0.936867 0.686953
O19   O     O_R   0.040730 0.097300 0.089360 -0.537702
C52   C     C_R   0.871833 0.119191 0.116741 0.693306
V4    V     V_3+5 0.148780 0.012220 0.002360 1.493734
O20   O     O_3   0.871930 0.935430 0.986900 -0.375101
H6    H     H_    0.745884 0.079036 0.253409 0.116994
H7    H     H_    0.528074 0.261483 0.294224 0.132440
C53   C     C_1   0.971471 0.446354 0.245383 0.268063
N1    N     N_1   0.009013 0.528651 0.243023 -0.377977
C54   C     C_1   0.224118 0.233193 0.194240 0.283839
N2    N     N_1   0.367090 0.220390 0.164759 -0.354266
C55   C     C_1   0.477134 0.947328 0.742263 0.304807
N3    N     N_1   0.518635 0.028753 0.738916 -0.337502
C56   C     C_1   0.718093 0.731972 0.688563 0.315461
N4    N     N_1   0.860654 0.719231 0.658789 -0.344609
C57   C     C_1   0.603252 0.673480 0.833078 0.361214
N5    N     N_1   0.706431 0.641990 0.867874 -0.362542
C58   C     C_1   0.222902 0.560553 0.755021 0.381832
N6    N     N_1   0.170320 0.480005 0.756345 -0.356205
H8    H     H_    0.030725 0.768451 0.797952 0.136384
H9    H     H_    0.153587 0.828368 0.675117 0.156721
C59   C     C_1   0.441916 0.849610 0.503198 0.333786
N7    N     N_1   0.467946 0.874135 0.561682 -0.350931
H10   H     H_    0.462291 0.013845 0.307258 0.146508
H11   H     H_    0.464960 0.968831 0.416375 0.135401
H12   H     H_    0.320947 0.608731 0.304332 0.126432
C60   C     C_1   0.290612 0.654204 0.994197 0.308487
N8    N     N_1   0.262312 0.633479 0.935813 -0.346571
H13   H     H_    0.357305 0.565607 0.198832 0.131052
C61   C     C_1   0.300515 0.497314 0.068562 0.312208
N9    N     N_1   0.280452 0.412547 0.040649 -0.344453
H14   H     H_    0.425405 0.970168 0.184756 0.127251
C62   C     C_1   0.988434 0.011246 0.572794 0.322087
N10   N     N_1   0.021103 0.928604 0.543067 -0.344142
C63   C     C_1   0.703443 0.401523 0.698411 0.305493
N11   N     N_1   0.614204 0.474770 0.716901 -0.373564
H15   H     H_    0.853738 0.437435 0.807917 0.168806
H16   H     H_    0.810694 0.473280 0.929152 0.156915
C64   C     C_1   0.091176 0.172804 0.338394 0.270972
N12   N     N_1   0.186533 0.141809 0.375707 -0.385905

loop_
_geom_bond_atom_site_label_1
_geom_bond_atom_site_label_2
_ccdc_geom_bond_type
C41   C45   A    
C38   C39   A    
C22   H7    S    
C30   C57   S    
C24   C53   S    
C19   C20   S    
C1    O6    A    
C40   C41   A    
C37   C48   A    
C6    C16   A    
C28   C29   S    
O13   V3    S    
C25   C54   S    
C29   C32   S    
C12   C13   A    
C31   C58   S    
C14   C15   A    
C10   C12   A    
C21   C24   S    
O5    C3    A    
C22   C23   S    
C36   C47   A    
O19   V4    S    
C40   C42   A    
C45   H14   S    
C61   N9    T    
V2    O10   S    
C39   C40   A    
C25   C26   S    
C3    C21   S    
C32   C33   S    
C19   C26   S    
C35   C43   A    
O1    C2    A    
C18   C51   S    
C29   C30   S    
O8    V2    S    
C31   C34   S    
O11   C50   A    
C63   N11   T    
C9    C10   A    
C49   O16   A    
O1    V2    S    
C60   N8    T    
O7    V1    S    
C29   C50   S    
C27   C30   S    
O13   C52   A    
C47   C59   S    
C42   C43   A    
O17   V4    S    
C7    C8    A    
C20   C25   S    
C44   C45   A    
C46   H12   S    
C19   H6    S    
C23   C26   S    
O18   C51   A    
C11   C15   A    
C7    C18   A    
C35   H11   S    
O17   V3    S    
C38   C61   S    
C5    C13   A    
C4    C6    S    
C37   C60   S    
C19   C22   S    
C10   C11   A    
C35   C47   A    
C23   C24   S    
O4    C2    A    
O19   C52   A    
V3    O20   S    
C23   H5    S    
C1    C34   S    
C15   H4    S    
C43   C44   A    
O12   C49   A    
O2    C1    A    
C21   C22   S    
C9    H15   S    
C41   C48   A    
C30   C31   S    
C8    H16   S    
C28   C55   S    
C33   C34   S    
C53   N1    T    
H2    C14   S    
O3    C4    A    
C27   C34   S    
C24   C25   S    
C12   C16   A    
O6    V2    S    
O9    V2    S    
C5    C17   A    
C44   H10   S    
O12   V3    S    
C2    C36   S    
O2    V1    S    
O15   C51   A    
C27   C56   S    
C27   C28   S    
C37   C38   A    
C31   C32   S    
C33   H9    S    
C54   N2    T    
O18   V4    S    
V4    O20   S    
C5    C62   S    
O5    V1    S    
O8    C3    A    
O11   V4    S    
C42   C46   A    
C16   C63   S    
O7    V2    S    
O4    V1    S    
O3    V1    S    
V1    O10   S    
C62   N10   T    
O15   V3    S    
C36   C46   A    
C56   N4    T    
C28   C33   S    
C11   C18   A    
C48   C49   S    
C57   N5    T    
O16   V4    S    
C32   H8    S    
C58   N6    T    
C39   H13   S    
C26   C52   S    
C7    H3    S    
C55   N3    T    
C20   C21   S    
C59   N7    T    
O14   V3    S    
C8    C9    A    
O14   C50   A    
H1    C17   S    
O9    C4    A    
C20   C64   S    
C64   N12   T    
C13   C14   A    
C6    C17   A    
