data_mof_unit_20225.cif
_audit_creation_date              2012-12-10T17:10:25-0500
_audit_creation_method            fapswitch 2.2
_symmetry_space_group_name_H-M    P1
_symmetry_Int_Tables_number       1
_space_group_crystal_system       triclinic
_cell_length_a                    10.798249
_cell_length_b                    13.005223
_cell_length_c                    11.649444
_cell_angle_alpha                 99.804385
_cell_angle_beta                  95.224597
_cell_angle_gamma                 90.557461
_cell_volume                      1604.85168436

loop_
_atom_site_label
_atom_site_type_symbol
_atom_type_description
_atom_site_fract_x
_atom_site_fract_y
_atom_site_fract_z
_atom_type_partial_charge
C1    C     C_R   0.498288 0.298967 0.478621 0.803201
C2    C     C_R   0.501712 0.701033 0.521379 0.803200
C3    C     C_R   0.502530 0.814383 0.533769 -0.050285
C4    C     C_R   0.497470 0.185617 0.466231 -0.050285
C5    C     C_R   0.487815 0.015093 0.343631 -0.216790
C6    C     C_R   0.512184 0.984906 0.656369 -0.216790
C7    C     C_R   0.488758 0.123187 0.354771 -0.201153
C8    C     C_R   0.511242 0.876813 0.645229 -0.201153
C9    C     C_R   0.505363 0.139310 0.566606 -0.270376
C10   C     C_R   0.494637 0.860690 0.433394 -0.270375
C11   C     C_R   0.504430 0.031292 0.556184 0.177623
C12   C     C_R   0.495570 0.968708 0.443815 0.177623
C13   C     C_R   0.415696 0.380649 0.018407 -0.349681
C14   C     C_R   0.584304 0.619351 0.981592 -0.349681
C15   C     C_R   0.419989 0.394521 0.141187 0.057657
C16   C     C_R   0.580011 0.605479 0.858813 0.057657
C17   C     C_R   0.531719 0.554812 0.158935 0.020389
C18   C     C_R   0.468281 0.445188 0.841065 0.020388
C19   C     C_R   0.529358 0.544189 0.035553 0.075214
C20   C     C_R   0.470642 0.455811 0.964447 0.075214
C21   C     C_R   0.262103 0.512175 0.499411 0.816813
C22   C     C_R   0.737897 0.487825 0.500589 0.816813
C23   C     C_R   0.133531 0.613308 0.700759 -0.185869
C24   C     C_R   0.866469 0.386691 0.299241 -0.185869
C25   C     C_R   0.082090 0.630083 0.807305 -0.194029
C26   C     C_R   0.917910 0.369917 0.192695 -0.194029
C27   C     C_R   0.973883 0.575486 0.821088 0.214069
C28   C     C_R   0.026117 0.424513 0.178911 0.214069
C29   C     C_R   0.915142 0.506085 0.724386 0.213127
C30   C     C_R   0.084858 0.493915 0.275614 0.213127
C31   C     C_R   0.951537 0.509040 0.610203 0.026299
C32   C     C_R   0.048463 0.490960 0.389797 0.026299
C33   C     C_R   0.071317 0.549245 0.602080 0.039430
C34   C     C_R   0.928683 0.450755 0.397919 0.039430
C35   C     C_R   0.874394 0.473729 0.504625 -0.201473
C36   C     C_R   0.125606 0.526271 0.495375 -0.201473
Cu1   Cu    Cu3+1 0.509250 0.507730 0.615930 0.927807
Cu2   Cu    Cu3+1 0.490750 0.492270 0.384070 0.927808
H1    H     H_    0.369886 0.311502 0.966220 0.137824
H2    H     H_    0.630114 0.688498 0.033780 0.137824
H3    H     H_    0.219185 0.655114 0.694458 0.159737
H4    H     H_    0.780815 0.344886 0.305542 0.159737
H5    H     H_    0.129004 0.683641 0.880023 0.145961
H6    H     H_    0.870996 0.316359 0.119977 0.145961
H7    H     H_    0.487827 0.812916 0.347026 0.147105
H8    H     H_    0.512173 0.187084 0.652974 0.147105
H9    H     H_    0.517365 0.842232 0.723758 0.150563
H10   H     H_    0.482635 0.157768 0.276241 0.150563
H11   H     H_    0.481025 0.967920 0.257010 0.131749
H12   H     H_    0.518975 0.032080 0.742990 0.131749
H13   H     H_    0.421077 0.378313 0.785885 0.125597
H14   H     H_    0.578922 0.621686 0.214115 0.125597
H15   H     H_    0.622393 0.664293 0.818580 0.131282
H16   H     H_    0.377607 0.335707 0.181420 0.131282
N1    N     N_R   0.523180 0.519350 0.790130 -0.184543
N2    N     N_R   0.476820 0.480650 0.209870 -0.184543
O1    O     O_R   0.506570 0.354460 0.582000 -0.595171
O2    O     O_R   0.493430 0.645540 0.418000 -0.595170
O3    O     O_R   0.490940 0.341410 0.386200 -0.600873
O4    O     O_R   0.509060 0.658590 0.613800 -0.600873
O5    O     O_R   0.327470 0.506520 0.597900 -0.572810
O6    O     O_R   0.672530 0.493480 0.402100 -0.572810
O7    O     O_R   0.311840 0.493460 0.402100 -0.571636
O8    O     O_R   0.688160 0.506540 0.597900 -0.571636
C37   C     C_3   0.080884 0.404094 0.063018 -0.896657
H17   H     H_    0.016380 0.356507 0.994170 0.223457
H18   H     H_    0.103737 0.477694 0.032839 0.256170
H19   H     H_    0.167000 0.359789 0.072734 0.233107
C38   C     C_3   0.919116 0.595906 0.936982 -0.896657
H20   H     H_    0.983620 0.643493 0.005830 0.223457
H21   H     H_    0.833000 0.640211 0.927265 0.233107
H22   H     H_    0.896263 0.522306 0.967161 0.256170
C39   C     C_3   0.837409 0.415584 0.747733 -0.805284
H23   H     H_    0.893423 0.371766 0.806954 0.204862
H24   H     H_    0.753732 0.443924 0.790454 0.255760
H25   H     H_    0.808938 0.358982 0.666770 0.221826
C40   C     C_3   0.162591 0.584416 0.252267 -0.805284
H26   H     H_    0.106576 0.628234 0.193046 0.204862
H27   H     H_    0.191062 0.641018 0.333230 0.221826
H28   H     H_    0.246268 0.556075 0.209546 0.255760

loop_
_geom_bond_atom_site_label_1
_geom_bond_atom_site_label_2
_ccdc_geom_bond_type
C27   C29   A    
C24   H4    S    
C39   H23   S    
C19   C20   A    
C25   H5    S    
C26   H6    S    
C21   C36   S    
C40   H26   S    
C22   C35   S    
C32   C36   A    
C24   C26   A    
C1    O3    A    
C2    O4    A    
C29   C39   S    
C33   C36   A    
C34   C35   A    
C38   H21   S    
C16   H15   S    
Cu2   O2    S    
C30   C40   S    
C21   O7    A    
C37   H18   S    
C31   C33   A    
C21   O5    A    
C27   C38   S    
C9    H8    S    
C39   H24   S    
C5    H11   S    
C4    C7    A    
C17   H14   S    
C18   H13   S    
C40   H27   S    
C13   H1    S    
C15   H16   S    
C5    C12   A    
C3    C8    A    
C6    C11   A    
C5    C7    A    
C6    C8    A    
C23   C33   A    
C14   H2    S    
C24   C34   A    
C32   C34   A    
C38   H22   S    
Cu1   Cu2   S    
C1    O1    A    
C22   O6    A    
C37   H19   S    
C10   H7    S    
C6    H12   S    
C9    C11   A    
C17   N2    A    
C10   C12   A    
C18   N1    A    
C13   C15   A    
C39   H25   S    
C14   C16   A    
Cu1   O8    S    
Cu2   O7    S    
C40   H28   S    
C13   C20   A    
C14   C19   A    
Cu1   O5    S    
C11   C12   A    
C2    O2    A    
C25   C27   A    
C26   C28   A    
C23   H3    S    
C1    C4    S    
C7    H10   S    
C28   C30   A    
C2    C3    S    
C8    H9    S    
C29   C31   A    
C3    C10   A    
C15   N2    A    
C30   C32   A    
C31   C35   A    
C17   C19   A    
C28   C37   S    
C18   C20   A    
C23   C25   A    
C38   H20   S    
C16   N1    A    
Cu1   O4    S    
C22   O8    A    
Cu2   O3    S    
Cu1   N1    S    
Cu2   N2    S    
C37   H17   S    
C4    C9    A    
Cu1   O1    S    
Cu2   O6    S    
