data_mof_unit_61145.cif
_audit_creation_date              2012-10-26T17:54:59-0400
_audit_creation_method            fapswitch 2.2
_symmetry_space_group_name_H-M    P1
_symmetry_Int_Tables_number       1
_space_group_crystal_system       triclinic
_cell_length_a                    21.712187
_cell_length_b                    21.712176
_cell_length_c                    30.144392
_cell_angle_alpha                 90.000042
_cell_angle_beta                  90.000074
_cell_angle_gamma                 89.99998
_cell_volume                      14210.6338717

loop_
_atom_site_label
_atom_site_type_symbol
_atom_type_description
_atom_site_fract_x
_atom_site_fract_y
_atom_site_fract_z
_atom_type_partial_charge
C1    C     C_R   0.500000 0.118562 0.500000 0.615508
C2    C     C_R   0.000000 0.500000 0.773311 0.062045
C3    C     C_R   0.958612 0.537722 0.842931 -0.144729
C4    C     C_R   0.537703 0.958596 0.157069 -0.144736
C5    C     C_R   0.041388 0.537722 0.157068 -0.144729
C6    C     C_R   0.462295 0.041403 0.157069 -0.144733
C7    C     C_R   0.958613 0.462278 0.157068 -0.144728
C8    C     C_R   0.037534 0.541558 0.342924 -0.144787
C9    C     C_R   0.541542 0.962449 0.342925 -0.144780
C10   C     C_R   0.962468 0.458441 0.342924 -0.144789
C11   C     C_R   0.458458 0.037551 0.342925 -0.144778
C12   C     C_R   0.037534 0.458442 0.657076 -0.144787
C13   C     C_R   0.499999 1.000000 0.226690 0.062047
C14   C     C_R   0.541543 0.037550 0.657075 -0.144778
C15   C     C_R   0.962467 0.541558 0.657076 -0.144790
C16   C     C_R   0.458457 0.962449 0.657075 -0.144778
C17   C     C_R   0.499999 0.000000 0.866011 -0.011751
C18   C     C_R   1.000000 0.500000 0.866011 -0.011742
C19   C     C_R   0.499999 1.000000 0.133989 -0.011751
C20   C     C_R   1.000000 0.500000 0.133989 -0.011744
C21   C     C_R   0.000001 0.500000 0.366006 -0.011844
C22   C     C_R   0.500000 0.000000 0.366007 -0.011835
C23   C     C_R   0.000000 0.500000 0.633994 -0.011846
C24   C     C_R   0.000000 0.500000 0.226689 0.062045
C25   C     C_R   0.500000 1.000000 0.633993 -0.011834
C26   C     C_R   0.460940 0.959283 0.796598 0.005455
C27   C     C_R   0.959299 0.539075 0.796599 0.005455
C28   C     C_R   0.539057 0.040718 0.796598 0.005454
C29   C     C_R   0.040702 0.460925 0.796599 0.005455
C30   C     C_R   0.460941 0.040717 0.203402 0.005454
C31   C     C_R   0.959299 0.460925 0.203401 0.005455
C32   C     C_R   0.539057 0.959282 0.203402 0.005454
C33   C     C_R   0.040702 0.539075 0.203401 0.005455
C34   C     C_R   0.961112 0.459121 0.296591 0.005450
C35   C     C_R   0.000001 0.500000 0.273303 0.062065
C36   C     C_R   0.459137 0.038906 0.296592 0.005451
C37   C     C_R   0.038890 0.540878 0.296591 0.005451
C38   C     C_R   0.540861 0.961093 0.296592 0.005451
C39   C     C_R   0.961111 0.540879 0.703408 0.005451
C40   C     C_R   0.459137 0.961094 0.703408 0.005450
C41   C     C_R   0.038890 0.459122 0.703409 0.005451
C42   C     C_R   0.540862 0.038906 0.703408 0.005451
C43   C     C_3   0.521329 0.182841 0.394610 -0.124462
C44   C     C_3   0.182835 0.478738 0.394606 -0.124460
C45   C     C_3   0.478675 0.817160 0.394610 -0.124462
C46   C     C_R   0.499999 1.000000 0.273304 0.062061
C47   C     C_3   0.817155 0.521247 0.394601 -0.124457
C48   C     C_3   0.521323 0.817156 0.605392 -0.124463
C49   C     C_3   0.182835 0.521261 0.605394 -0.124460
C50   C     C_3   0.478670 0.182839 0.605390 -0.124462
C51   C     C_3   0.817165 0.478751 0.605395 -0.124461
C52   C     C_3   0.021868 0.682846 0.894661 -0.124530
C53   C     C_3   0.682850 0.978202 0.894652 -0.124522
C54   C     C_3   0.978134 0.317142 0.894657 -0.124526
C55   C     C_3   0.317153 0.021807 0.894654 -0.124527
C56   C     C_3   0.021865 0.317147 0.105342 -0.124529
C57   C     C_R   0.000000 0.500000 0.726697 0.062065
C58   C     C_3   0.682846 0.021799 0.105346 -0.124522
C59   C     C_3   0.978128 0.682840 0.105337 -0.124530
C60   C     C_3   0.317146 0.978190 0.105347 -0.124523
C61   C     C_R   0.499999 0.000000 0.726696 0.062061
C62   C     C_R   0.421174 0.920161 0.773157 -0.134631
C63   C     C_R   0.920192 0.578858 0.773158 -0.134626
C64   C     C_R   0.578824 0.079840 0.773157 -0.134632
C65   C     C_R   0.118562 0.500000 0.500000 0.615475
C66   C     C_R   0.079809 0.421143 0.773158 -0.134627
C67   C     C_R   0.421175 0.079841 0.226843 -0.134630
C68   C     C_R   0.920193 0.421142 0.226842 -0.134627
C69   C     C_R   0.578823 0.920158 0.226843 -0.134632
C70   C     C_R   0.079808 0.578857 0.226842 -0.134625
C71   C     C_R   0.921508 0.419833 0.273150 -0.134665
C72   C     C_R   0.419866 0.078526 0.273151 -0.134657
C73   C     C_R   0.078493 0.580166 0.273150 -0.134663
C74   C     C_R   0.580132 0.921473 0.273151 -0.134658
C75   C     C_R   0.921508 0.580167 0.726850 -0.134664
C76   C     C_R   0.500000 0.881438 0.500000 0.615509
C77   C     C_R   0.419865 0.921475 0.726849 -0.134658
C78   C     C_R   0.078493 0.419834 0.726850 -0.134663
C79   C     C_R   0.580134 0.078525 0.726849 -0.134657
C80   C     C_R   0.485710 0.216993 0.460831 0.215777
C81   C     C_R   0.216994 0.514316 0.460836 0.215783
C82   C     C_R   0.514291 0.783007 0.460831 0.215776
C83   C     C_R   0.783006 0.485679 0.460837 0.215785
C84   C     C_R   0.485709 0.783007 0.539169 0.215778
C85   C     C_R   0.216994 0.485684 0.539164 0.215782
C86   C     C_R   0.514289 0.216993 0.539169 0.215777
C87   C     C_R   0.881437 0.500000 0.500000 0.615480
C88   C     C_R   0.783006 0.514321 0.539163 0.215782
C89   C     C_R   0.985919 0.716987 0.960792 0.215728
C90   C     C_R   0.716988 0.014108 0.960797 0.215733
C91   C     C_R   0.014082 0.283013 0.960792 0.215726
C92   C     C_R   0.283012 0.985896 0.960796 0.215728
C93   C     C_R   0.985918 0.283013 0.039208 0.215724
C94   C     C_R   0.716988 0.985892 0.039203 0.215731
C95   C     C_R   0.014081 0.716987 0.039209 0.215725
C96   C     C_R   0.283012 0.014104 0.039204 0.215731
C97   C     C_R   0.500000 0.185120 0.500000 0.048358
C98   C     C_R   0.000000 0.618561 0.000000 0.615698
C99   C     C_R   0.185120 0.500000 0.500000 0.048345
C100  C     C_R   0.500000 0.814880 0.500000 0.048359
C101  C     C_R   0.814879 0.500000 0.500000 0.048346
C102  C     C_R   0.000000 0.685116 0.000000 0.048441
C103  C     C_R   0.685117 0.000000 0.000000 0.048430
C104  C     C_R   0.000000 0.314883 0.000000 0.048446
C105  C     C_R   0.314883 0.000000 1.000000 0.048437
C106  C     C_R   0.500000 1.000000 0.585646 0.561222
C107  C     C_R   0.000000 0.500000 0.585646 0.561187
C108  C     C_R   0.500000 0.000000 0.414354 0.561220
C109  C     C_R   0.618561 0.000000 0.000000 0.615680
C110  C     C_R   0.000000 0.500000 0.414353 0.561194
C111  C     C_R   0.000000 0.500000 0.085645 0.561417
C112  C     C_R   0.500000 1.000000 0.085645 0.561400
C113  C     C_R   1.000000 0.500000 0.914355 0.561424
C114  C     C_R   0.500000 0.000000 0.914355 0.561397
C115  C     C_R   0.484883 0.281224 0.461227 -0.129756
C116  C     C_R   0.281225 0.515142 0.461232 -0.129754
C117  C     C_R   0.515118 0.718775 0.461227 -0.129755
C118  C     C_R   0.718774 0.484853 0.461233 -0.129759
C119  C     C_R   0.484882 0.718775 0.538773 -0.129758
C120  C     C_R   1.000000 0.381439 0.000000 0.615717
C121  C     C_R   0.281225 0.484857 0.538768 -0.129754
C122  C     C_R   0.515117 0.281225 0.538773 -0.129755
C123  C     C_R   0.718774 0.515147 0.538767 -0.129754
C124  C     C_R   0.985084 0.781219 0.961187 -0.129775
C125  C     C_R   0.781219 0.014942 0.961192 -0.129777
C126  C     C_R   0.014917 0.218781 0.961187 -0.129779
C127  C     C_R   0.218780 0.985062 0.961191 -0.129775
C128  C     C_R   0.985083 0.218781 0.038814 -0.129777
C129  C     C_R   0.781220 0.985057 0.038808 -0.129774
C130  C     C_R   0.014916 0.781219 0.038814 -0.129770
C131  C     C_R   0.381439 0.000000 1.000000 0.615690
C132  C     C_R   0.218781 0.014938 0.038809 -0.129778
C133  C     C_R   0.500000 0.313515 0.500000 -0.072448
C134  C     C_R   0.313515 0.500000 0.500000 -0.072447
C135  C     C_R   0.500000 0.686485 0.500000 -0.072447
C136  C     C_R   0.686485 0.500000 0.500000 -0.072444
C137  C     C_R   0.000000 0.813511 0.000000 -0.072482
C138  C     C_R   0.813511 1.000000 1.000000 -0.072477
C139  C     C_R   0.000000 0.186489 0.000000 -0.072478
C140  C     C_R   0.186489 0.000000 1.000000 -0.072477
C141  C     C_R   0.380775 0.500000 0.500000 0.561628
C142  C     C_R   0.499999 0.000000 0.773310 0.062048
C143  C     C_R   0.500000 0.619225 0.500000 0.561628
C144  C     C_R   0.619225 0.500000 0.500000 0.561628
C145  C     C_R   0.500000 0.380775 0.500000 0.561628
C146  C     C_R   0.880773 0.000000 1.000000 0.561639
C147  C     C_R   0.000000 0.119227 0.000000 0.561639
C148  C     C_R   0.119226 0.000000 1.000000 0.561640
C149  C     C_R   1.000000 0.880773 1.000000 0.561639
C150  C     C_R   0.537704 0.041403 0.842931 -0.144736
C151  C     C_R   0.041388 0.462279 0.842931 -0.144727
C152  C     C_R   0.462294 0.958598 0.842931 -0.144735
Cu1   Cu    Cu3+1 0.438190 0.000000 0.500000 0.973564
Cu2   Cu    Cu3+1 0.500000 0.500000 0.544440 0.925691
Cu3   Cu    Cu3+1 1.000000 0.000000 0.955560 0.925676
Cu4   Cu    Cu3+1 1.000000 0.000000 0.044440 0.925677
Cu5   Cu    Cu3+1 0.000000 0.561810 0.500000 0.973589
Cu6   Cu    Cu3+1 0.561810 0.000000 0.500000 0.973567
Cu7   Cu    Cu3+1 1.000000 0.438190 0.500000 0.973584
Cu8   Cu    Cu3+1 0.938190 0.500000 0.000000 0.973318
Cu9   Cu    Cu3+1 0.500000 0.061810 0.000000 0.973336
Cu10  Cu    Cu3+1 0.061810 0.500000 0.000000 0.973317
Cu11  Cu    Cu3+1 0.500000 0.938190 0.000000 0.973342
Cu12  Cu    Cu3+1 0.500000 0.500000 0.455560 0.925690
H1    H     H_    0.390784 0.888897 0.790650 0.119167
H2    H     H_    0.388488 0.108798 0.290644 0.119127
H3    H     H_    0.108752 0.611557 0.290643 0.119121
H4    H     H_    0.611510 0.891201 0.290644 0.119127
H5    H     H_    0.891249 0.611557 0.709357 0.119120
H6    H     H_    0.388486 0.891204 0.709356 0.119126
H7    H     H_    0.108752 0.388444 0.709357 0.119120
H8    H     H_    0.611513 0.108797 0.709356 0.119127
H9    H     H_    0.472313 0.305595 0.431201 0.153223
H10   H     H_    0.305596 0.527732 0.431211 0.153221
H11   H     H_    0.527690 0.694405 0.431202 0.153224
H12   H     H_    0.888940 0.609259 0.790650 0.119173
H13   H     H_    0.694404 0.472259 0.431213 0.153214
H14   H     H_    0.472310 0.694405 0.568798 0.153221
H15   H     H_    0.305596 0.472268 0.568789 0.153220
H16   H     H_    0.527686 0.305595 0.568799 0.153225
H17   H     H_    0.694404 0.527740 0.568787 0.153219
H18   H     H_    0.972670 0.805586 0.931126 0.153256
H19   H     H_    0.805587 0.027377 0.931136 0.153248
H20   H     H_    0.027332 0.194414 0.931126 0.153251
H21   H     H_    0.194413 0.972631 0.931134 0.153251
H22   H     H_    0.972668 0.194414 0.068874 0.153253
H23   H     H_    0.609213 0.111104 0.790650 0.119167
H24   H     H_    0.805587 0.972623 0.068864 0.153252
H25   H     H_    0.027329 0.805586 0.068875 0.153261
H26   H     H_    0.194413 0.027369 0.068866 0.153246
H27   H     H_    0.567076 0.072948 0.861126 0.145727
H28   H     H_    0.072921 0.432894 0.861127 0.145740
H29   H     H_    0.432922 0.927053 0.861126 0.145727
H30   H     H_    0.927080 0.567106 0.861127 0.145739
H31   H     H_    0.567075 0.927051 0.138874 0.145726
H32   H     H_    0.072920 0.567107 0.138873 0.145740
H33   H     H_    0.432923 0.072948 0.138874 0.145728
H34   H     H_    0.111061 0.390742 0.790650 0.119173
H35   H     H_    0.927080 0.432894 0.138873 0.145740
H36   H     H_    0.066777 0.573225 0.361118 0.145621
H37   H     H_    0.573196 0.933192 0.361118 0.145634
H38   H     H_    0.933225 0.426775 0.361117 0.145619
H39   H     H_    0.426804 0.066808 0.361119 0.145635
H40   H     H_    0.066777 0.426775 0.638882 0.145621
H41   H     H_    0.573197 0.066806 0.638882 0.145634
H42   H     H_    0.933224 0.573225 0.638882 0.145619
H43   H     H_    0.426803 0.933194 0.638881 0.145634
H44   H     H_    0.559731 0.156827 0.410355 0.128999
H45   H     H_    0.390787 0.111106 0.209350 0.119167
H46   H     H_    0.536979 0.229719 0.384787 0.114890
H47   H     H_    0.508335 0.158171 0.363804 0.141919
H48   H     H_    0.156802 0.440338 0.410337 0.128995
H49   H     H_    0.229711 0.463077 0.384786 0.114884
H50   H     H_    0.158180 0.491757 0.363800 0.141918
H51   H     H_    0.440275 0.843179 0.410353 0.129001
H52   H     H_    0.463021 0.770282 0.384789 0.114888
H53   H     H_    0.491672 0.841825 0.363803 0.141918
H54   H     H_    0.843171 0.559662 0.410330 0.128982
H55   H     H_    0.770275 0.536890 0.384774 0.114888
H56   H     H_    0.888941 0.390741 0.209349 0.119173
H57   H     H_    0.841820 0.508229 0.363800 0.141915
H58   H     H_    0.559728 0.843170 0.589650 0.128998
H59   H     H_    0.536970 0.770276 0.615215 0.114888
H60   H     H_    0.508326 0.841824 0.636198 0.141919
H61   H     H_    0.156801 0.559661 0.589663 0.128996
H62   H     H_    0.229711 0.536922 0.615214 0.114884
H63   H     H_    0.158180 0.508241 0.636200 0.141917
H64   H     H_    0.440271 0.156820 0.589645 0.129001
H65   H     H_    0.463016 0.229717 0.615211 0.114888
H66   H     H_    0.491666 0.158173 0.636197 0.141919
H67   H     H_    0.609211 0.888893 0.209350 0.119167
H68   H     H_    0.843200 0.440350 0.589667 0.128993
H69   H     H_    0.770289 0.463089 0.615215 0.114885
H70   H     H_    0.841817 0.491775 0.636201 0.141915
H71   H     H_    0.060209 0.656861 0.910508 0.129109
H72   H     H_    0.037538 0.729729 0.884866 0.114901
H73   H     H_    0.009036 0.658153 0.863829 0.141915
H74   H     H_    0.656867 0.939849 0.910486 0.129091
H75   H     H_    0.729733 0.962542 0.884851 0.114900
H76   H     H_    0.658156 0.991053 0.863825 0.141911
H77   H     H_    0.939779 0.343105 0.910506 0.129094
H78   H     H_    0.111060 0.609259 0.209350 0.119175
H79   H     H_    0.962487 0.270256 0.884851 0.114906
H80   H     H_    0.990960 0.341853 0.863831 0.141917
H81   H     H_    0.343145 0.060154 0.910489 0.129097
H82   H     H_    0.270270 0.037477 0.884858 0.114900
H83   H     H_    0.341840 0.008956 0.863825 0.141915
H84   H     H_    0.060215 0.343118 0.089494 0.129099
H85   H     H_    0.037521 0.270262 0.115144 0.114905
H86   H     H_    0.009036 0.341851 0.136169 0.141917
H87   H     H_    0.656853 0.060146 0.089513 0.129096
H88   H     H_    0.729728 0.037470 0.115143 0.114898
H89   H     H_    0.891250 0.388442 0.290643 0.119119
H90   H     H_    0.658160 0.008946 0.136176 0.141911
H91   H     H_    0.939793 0.656850 0.089487 0.129111
H92   H     H_    0.962450 0.729721 0.115131 0.114903
H93   H     H_    0.990959 0.658149 0.136169 0.141915
H94   H     H_    0.343115 0.939831 0.089508 0.129085
H95   H     H_    0.270261 0.962541 0.115153 0.114906
H96   H     H_    0.341852 0.991033 0.136170 0.141917
O1    O     O_R   0.447800 0.090100 0.499990 -0.502363
O2    O     O_R   0.590100 0.052200 0.999990 -0.502503
O3    O     O_R   0.052200 0.409900 0.999990 -0.502519
O4    O     O_R   0.409900 0.947800 0.999990 -0.502501
O5    O     O_R   0.947800 0.409900 0.000010 -0.502516
O6    O     O_R   0.590100 0.947800 0.000010 -0.502501
O7    O     O_R   0.052200 0.590100 0.000010 -0.502523
O8    O     O_R   0.409900 0.052200 0.000010 -0.502507
O9    O     O_R   0.447790 0.999890 0.564870 -0.510348
O10   O     O_R   0.999890 0.552210 0.564870 -0.510349
O11   O     O_R   0.552210 0.000110 0.564870 -0.510346
O12   O     O_R   0.090100 0.552200 0.499990 -0.502345
O13   O     O_R   0.000110 0.447790 0.564870 -0.510350
O14   O     O_R   0.447790 0.000110 0.435130 -0.510348
O15   O     O_R   0.999890 0.447790 0.435130 -0.510349
O16   O     O_R   0.552210 0.999890 0.435130 -0.510347
O17   O     O_R   0.000110 0.552210 0.435130 -0.510345
O18   O     O_R   0.947790 0.499890 0.064870 -0.510338
O19   O     O_R   0.499890 0.052210 0.064870 -0.510338
O20   O     O_R   0.052210 0.500110 0.064870 -0.510332
O21   O     O_R   0.500110 0.947790 0.064870 -0.510333
O22   O     O_R   0.947790 0.500110 0.935130 -0.510329
O23   O     O_R   0.552200 0.909900 0.499990 -0.502360
O24   O     O_R   0.499890 0.947790 0.935130 -0.510335
O25   O     O_R   0.052210 0.499890 0.935130 -0.510336
O26   O     O_R   0.500110 0.052210 0.935130 -0.510336
O27   O     O_R   0.409730 0.499930 0.462460 -0.512338
O28   O     O_R   0.499930 0.590270 0.462460 -0.512341
O29   O     O_R   0.590270 0.500070 0.462460 -0.512339
O30   O     O_R   0.500070 0.409730 0.462460 -0.512342
O31   O     O_R   0.409730 0.500070 0.537540 -0.512339
O32   O     O_R   0.499930 0.409730 0.537540 -0.512342
O33   O     O_R   0.590270 0.499930 0.537540 -0.512339
O34   O     O_R   0.909900 0.447800 0.499990 -0.502342
O35   O     O_R   0.500070 0.590270 0.537540 -0.512342
O36   O     O_R   0.909730 0.999930 0.962460 -0.512350
O37   O     O_R   0.999930 0.090270 0.962460 -0.512353
O38   O     O_R   0.090270 0.000070 0.962460 -0.512351
O39   O     O_R   0.000070 0.909730 0.962460 -0.512352
O40   O     O_R   0.909730 0.000070 0.037540 -0.512350
O41   O     O_R   0.999930 0.909730 0.037540 -0.512352
O42   O     O_R   0.090270 0.999930 0.037540 -0.512350
O43   O     O_R   0.000070 0.090270 0.037540 -0.512353
O44   O     O_3   0.469534 0.185331 0.422769 -0.566776
O45   O     O_R   0.447800 0.909900 0.500010 -0.502362
O46   O     O_3   0.185333 0.530517 0.422779 -0.566755
O47   O     O_3   0.530469 0.814668 0.422769 -0.566775
O48   O     O_3   0.814667 0.469475 0.422781 -0.566752
O49   O     O_3   0.469531 0.814669 0.577231 -0.566774
O50   O     O_3   0.185333 0.469482 0.577221 -0.566755
O51   O     O_3   0.530465 0.185331 0.577232 -0.566776
O52   O     O_3   0.814667 0.530527 0.577219 -0.566753
O53   O     O_3   0.969936 0.685322 0.922689 -0.566964
O54   O     O_3   0.685323 0.030115 0.922699 -0.566942
O55   O     O_3   0.030062 0.314678 0.922689 -0.566965
O56   O     O_R   0.090100 0.447800 0.500010 -0.502345
O57   O     O_3   0.314676 0.969891 0.922697 -0.566948
O58   O     O_3   0.969936 0.314678 0.077311 -0.566965
O59   O     O_3   0.685325 0.969885 0.077302 -0.566943
O60   O     O_3   0.030063 0.685324 0.077312 -0.566966
O61   O     O_3   0.314678 0.030105 0.077302 -0.566947
O62   O     O_R   0.552200 0.090100 0.500010 -0.502363
O63   O     O_R   0.909900 0.552200 0.500010 -0.502336
O64   O     O_R   0.947800 0.590100 0.999990 -0.502524

loop_
_geom_bond_atom_site_label_1
_geom_bond_atom_site_label_2
_ccdc_geom_bond_type
C82   O47   S    
C148  O38   A    
C62   C77   A    
C50   H64   S    
C21   C110  S    
C65   O56   A    
C87   O63   A    
C105  C131  S    
C56   H84   S    
C12   C23   A    
C2    C29   A    
Cu8   O22   S    
C68   H56   S    
C128  C139  A    
Cu9   O8    S    
Cu10  O7    S    
C50   H65   S    
C34   C35   A    
C60   H94   S    
C113  O25   A    
Cu11  O21   S    
C75   H5    S    
C85   C121  A    
C43   H47   S    
C95   C102  A    
C143  O28   A    
Cu4   O42   S    
C55   O57   S    
C53   H76   S    
Cu9   Cu11  S    
C141  O31   A    
C10   C21   A    
C147  O43   A    
C88   O52   S    
C52   O53   S    
C59   H91   S    
C24   C35   A    
C124  C137  A    
Cu8   O18   S    
C65   C99   S    
C146  O36   A    
C81   C99   A    
C98   C102  S    
Cu5   O12   S    
Cu6   O11   S    
C79   H8    S    
C124  H18   S    
C20   C111  S    
C23   C107  S    
C56   H85   S    
C69   C74   A    
C10   H38   S    
C15   C39   A    
C59   O60   S    
C4    C32   A    
C16   C40   A    
C6    C30   A    
C149  O41   A    
C64   C79   A    
C44   H50   S    
C133  C145  S    
C45   O47   S    
C117  C135  A    
C132  H26   S    
C118  C136  A    
C52   H72   S    
C51   O52   S    
C16   C25   A    
Cu12  O27   S    
C43   H44   S    
C72   H2    S    
C85   O50   S    
C146  O40   A    
C125  C138  A    
C76   C100  S    
C43   O44   S    
Cu3   O36   S    
C51   H69   S    
C60   H96   S    
C123  H17   S    
C134  C141  S    
Cu12  O30   S    
C143  O35   A    
C67   H45   S    
C48   H58   S    
C84   C119  A    
C45   H51   S    
C58   H90   S    
C107  O13   A    
C15   H42   S    
C145  O30   A    
Cu5   O17   S    
C3    H30   S    
Cu3   Cu4   S    
C40   C77   A    
C109  O2    A    
C89   O53   S    
C80   C97   A    
C13   C32   A    
C1    O62   A    
C2    C57   A    
C5    C20   A    
C6    C19   A    
Cu3   O38   S    
Cu2   Cu12  S    
Cu2   O31   S    
C67   C72   A    
Cu1   Cu6   S    
C86   C97   A    
C127  H21   S    
C87   C101  S    
C148  O42   A    
C5    C33   A    
C95   C130  A    
C36   C46   A    
C39   C75   A    
Cu1   O1    S    
C50   O51   S    
C113  O22   A    
C110  O17   A    
C117  H11   S    
C135  C143  S    
C47   H57   S    
C106  O11   A    
C83   C118  A    
C107  O10   A    
C58   H87   S    
C18   C113  S    
C84   O49   S    
C86   O51   S    
C126  C139  A    
C41   C78   A    
C114  O26   A    
C48   H60   S    
Cu5   O63   S    
C40   C61   A    
Cu8   Cu10  S    
C85   C99   A    
C145  O32   A    
C29   C151  A    
C120  O3    A    
C66   H34   S    
C5    H32   S    
C151  H28   S    
Cu11  O6    S    
C8    H36   S    
C127  C140  A    
C49   H61   S    
C49   O50   S    
C92   C127  A    
Cu9   O26   S    
C38   C74   A    
C83   C101  A    
C6    H33   S    
C89   C124  A    
C54   H79   S    
C3    C27   A    
C93   C128  A    
C115  H9    S    
C63   C75   A    
C83   O48   S    
C138  C146  S    
C81   C116  A    
C17   C114  S    
C50   H66   S    
C12   H40   S    
C38   C46   A    
C110  O15   A    
Cu11  O24   S    
C106  O9    A    
C141  O27   A    
C36   C72   A    
C96   C105  A    
C17   C150  A    
C73   H3    S    
C16   H43   S    
C53   H75   S    
C74   H4    S    
C63   H12   S    
C121  H15   S    
C122  H16   S    
C128  H22   S    
C60   O61   S    
C108  O14   A    
C69   H67   S    
C116  C134  A    
Cu3   O39   S    
C129  H24   S    
C44   O46   S    
C65   O12   A    
C71   H89   S    
C90   O54   S    
C150  H27   S    
C126  H20   S    
C147  O37   A    
C77   H6    S    
C55   H82   S    
C56   H86   S    
Cu11  O4    S    
C86   C122  A    
C53   O54   S    
C2    C27   A    
C121  C134  A    
C49   H63   S    
Cu5   Cu7   S    
C93   O58   S    
C95   O60   S    
C25   C106  S    
C31   C68   A    
C66   C78   A    
C47   H54   S    
Cu2   O35   S    
C87   O34   A    
Cu12  O28   S    
C44   H49   S    
C54   H77   S    
Cu9   O19   S    
Cu10  O20   S    
C131  O8    A    
C115  C133  A    
C149  O39   A    
C119  C135  A    
C84   C100  A    
C12   C41   A    
C13   C30   A    
C80   C115  A    
C144  O33   A    
C70   C73   A    
C11   H39   S    
C9    H37   S    
C33   C70   A    
C28   C64   A    
Cu6   O23   S    
C94   C103  A    
Cu4   O41   S    
C17   C152  A    
C8    C37   A    
C18   C151  A    
C80   O44   S    
C76   O45   A    
C59   H92   S    
C108  O16   A    
Cu7   O56   S    
Cu6   O16   S    
C132  C140  A    
Cu3   O37   S    
C24   C33   A    
C116  H10   S    
C103  C109  S    
C111  O20   A    
C24   C31   A    
C41   C57   A    
C136  C144  S    
Cu6   O62   S    
C68   C71   A    
C22   C108  S    
Cu2   O32   S    
C78   H7    S    
C90   C125  A    
C56   O58   S    
C112  O21   A    
C14   C25   A    
C90   C103  A    
Cu10  O25   S    
C92   C105  A    
C92   O57   S    
C7    C20   A    
C14   H41   S    
C94   O59   S    
C59   H93   S    
C82   C117  A    
C130  C137  A    
C52   H71   S    
C104  C120  S    
C4    H31   S    
C26   C152  A    
Cu2   O33   S    
C28   C150  A    
C91   C126  A    
C89   C102  A    
C125  H19   S    
C45   H53   S    
C76   O23   A    
C58   H88   S    
Cu7   O34   S    
C91   C104  A    
C140  C148  S    
C88   C101  A    
C19   C112  S    
C139  C147  S    
C152  H29   S    
C51   H70   S    
C60   H95   S    
C11   C36   A    
C35   C37   A    
Cu12  O29   S    
Cu1   O45   S    
C9    C22   A    
C39   C57   A    
C58   O59   S    
C45   H52   S    
C3    C18   A    
C43   H46   S    
C9    C38   A    
C4    C19   A    
Cu9   O2    S    
C129  C138  A    
Cu4   O43   S    
Cu1   O14   S    
C119  H14   S    
C130  H25   S    
C96   C132  A    
C15   C23   A    
C98   O64   A    
Cu8   O5    S    
C55   H83   S    
C137  C149  S    
C88   C123  A    
C93   C104  A    
C81   O46   S    
C94   C129  A    
C7    C31   A    
C111  O18   A    
C1    C97   S    
C91   O55   S    
C47   H55   S    
C44   H48   S    
C54   H80   S    
C122  C133  A    
C98   O7    A    
Cu8   O64   S    
C8    C21   A    
C10   C34   A    
C42   C61   A    
C47   O48   S    
C27   C63   A    
C52   H73   S    
C1    O1    A    
C114  O24   A    
C28   C142  A    
C131  O4    A    
C37   C73   A    
C120  O5    A    
C51   H68   S    
C82   C100  A    
Cu4   O40   S    
Cu1   O9    S    
C30   C67   A    
C109  O6    A    
C53   H74   S    
C32   C69   A    
C48   H59   S    
C144  O29   A    
C11   C22   A    
C14   C42   A    
C123  C136  A    
Cu7   O15   S    
C26   C62   A    
C112  O19   A    
C70   H78   S    
Cu10  O3    S    
Cu5   O10   S    
C96   O61   S    
Cu7   O13   S    
C54   O55   S    
C7    H35   S    
C48   O49   S    
C64   H23   S    
C29   C66   A    
C118  H13   S    
C61   C142  A    
C42   C79   A    
C62   H1    S    
C55   H81   S    
C13   C46   A    
C49   H62   S    
C26   C142  A    
C34   C71   A    
