data_mof_unit_65504.cif
_audit_creation_date              2012-12-10T18:51:23-0500
_audit_creation_method            fapswitch 2.2
_symmetry_space_group_name_H-M    P1
_symmetry_Int_Tables_number       1
_space_group_crystal_system       triclinic
_cell_length_a                    19.453616
_cell_length_b                    18.123895
_cell_length_c                    19.290134
_cell_angle_alpha                 90.007357
_cell_angle_beta                  90.201094
_cell_angle_gamma                 89.937996
_cell_volume                      6801.17873645

loop_
_atom_site_label
_atom_site_type_symbol
_atom_type_description
_atom_site_fract_x
_atom_site_fract_y
_atom_site_fract_z
_atom_type_partial_charge
C1    C     C_R   0.367522 0.500025 0.499878 0.832980
C2    C     C_R   0.632478 0.499975 0.500122 0.832979
C3    C     C_R   0.852210 0.499979 0.500345 0.087987
C4    C     C_R   0.147790 0.500021 0.499654 0.087987
C5    C     C_R   0.707946 0.499960 0.500293 -0.032295
C6    C     C_R   0.292054 0.500039 0.499706 -0.032295
C7    C     C_R   0.964406 0.548710 0.543168 -0.136800
C8    C     C_R   0.035594 0.451290 0.456831 -0.136799
C9    C     C_R   0.035983 0.548729 0.542984 -0.138315
C10   C     C_R   0.964017 0.451271 0.457015 -0.138314
C11   C     C_R   0.072116 0.500020 0.499813 0.084469
C12   C     C_R   0.927884 0.499980 0.500186 0.084469
C13   C     C_R   0.455771 0.721030 0.457840 0.032992
C14   C     C_R   0.544228 0.278969 0.542160 0.032996
C15   C     C_R   0.544296 0.720936 0.542088 0.039350
C16   C     C_R   0.455705 0.279064 0.457911 0.039348
C17   C     C_R   0.454738 0.798587 0.456827 0.262693
C18   C     C_R   0.545261 0.201413 0.543174 0.262693
C19   C     C_R   0.545359 0.798481 0.543097 0.261583
C20   C     C_R   0.454642 0.201519 0.456902 0.261583
C21   C     C_R   0.500046 0.838747 0.499971 -0.096620
C22   C     C_R   0.499953 0.161253 0.500029 -0.096619
C23   C     C_R   0.481608 0.961229 0.559770 -0.077295
C24   C     C_R   0.518392 0.038770 0.440230 -0.077295
C25   C     C_R   0.518430 0.961209 0.440219 -0.070626
C26   C     C_R   0.481570 0.038791 0.559780 -0.070625
C27   C     C_R   0.499963 0.078506 0.500011 0.172897
C28   C     C_R   0.500037 0.921494 0.499989 0.172898
C29   C     C_R   0.499916 0.500001 0.367470 0.931682
C30   C     C_R   0.500084 0.499999 0.632530 0.931678
C31   C     C_R   0.553982 0.534257 0.255539 0.186283
C32   C     C_R   0.446021 0.465737 0.744461 0.186286
C33   C     C_R   0.554201 0.534132 0.744876 0.181589
C34   C     C_R   0.445795 0.465873 0.255125 0.181586
C35   C     C_R   0.553895 0.534399 0.182823 0.343397
C36   C     C_R   0.446109 0.465594 0.817177 0.343394
C37   C     C_R   0.554062 0.534311 0.817591 0.348579
C38   C     C_R   0.445933 0.465694 0.182409 0.348582
C39   C     C_R   0.499936 0.500022 0.146170 -0.237844
C40   C     C_R   0.500063 0.499976 0.853830 -0.237840
C41   C     C_R   0.499904 0.500023 0.291625 -0.292723
C42   C     C_R   0.500096 0.499977 0.708375 -0.292725
C43   C     C_R   0.500033 0.499994 0.929925 0.538223
C44   C     C_R   0.499966 0.500004 0.070075 0.538218
C45   C     C_R   0.744384 0.433061 0.500396 -0.145256
C46   C     C_R   0.255616 0.566939 0.499604 -0.145256
C47   C     C_R   0.255759 0.433127 0.499652 -0.096421
C48   C     C_R   0.744241 0.566873 0.500347 -0.096422
C49   C     C_R   0.815958 0.433092 0.500383 -0.127823
C50   C     C_R   0.184042 0.566907 0.499616 -0.127822
C51   C     C_R   0.184187 0.433140 0.499610 -0.123431
C52   C     C_R   0.815813 0.566859 0.500390 -0.123431
Cu1   Cu    Cu3+1 0.500000 0.573360 0.500000 1.010230
Cu2   Cu    Cu3+1 0.500000 0.426640 0.500000 1.010230
H1    H     H_    0.717673 0.380659 0.500614 0.168172
H2    H     H_    0.282327 0.619341 0.499386 0.168172
H3    H     H_    0.282584 0.380727 0.499838 0.176674
H4    H     H_    0.717416 0.619273 0.500162 0.176673
H5    H     H_    0.843003 0.380833 0.501221 0.150727
H6    H     H_    0.156997 0.619167 0.498778 0.150727
H7    H     H_    0.157267 0.380874 0.500442 0.151864
H8    H     H_    0.842733 0.619126 0.499557 0.151864
H9    H     H_    0.937587 0.586027 0.577626 0.156571
H10   H     H_    0.062413 0.413973 0.422373 0.156572
H11   H     H_    0.063117 0.586055 0.577312 0.152935
H12   H     H_    0.936883 0.413945 0.422687 0.152936
H13   H     H_    0.420821 0.690436 0.424919 0.172952
H14   H     H_    0.579178 0.309563 0.575082 0.172951
H15   H     H_    0.579297 0.690288 0.574932 0.195227
H16   H     H_    0.420704 0.309712 0.425066 0.195224
H17   H     H_    0.466903 0.932085 0.606418 0.174048
H18   H     H_    0.533097 0.067915 0.393582 0.174048
H19   H     H_    0.533158 0.932048 0.393562 0.176844
H20   H     H_    0.466841 0.067952 0.606437 0.176845
N1    N     N_R   0.446468 0.529497 0.034266 -0.142254
N2    N     N_R   0.553531 0.470501 0.965734 -0.142255
N3    N     N_R   0.446501 0.529491 0.965306 -0.143293
N4    N     N_R   0.553498 0.470507 0.034694 -0.143292
N5    N     N_R   0.500000 0.683620 0.500000 -0.231890
N6    N     N_R   0.500000 0.316380 0.500000 -0.231889
O1    O     O_R   0.400190 0.561980 0.499990 -0.597308
O2    O     O_R   0.599810 0.438020 0.500010 -0.597307
O3    O     O_R   0.599810 0.561980 0.500010 -0.571508
O4    O     O_R   0.400190 0.438020 0.499990 -0.571507
O5    O     O_R   0.499990 0.561970 0.400150 -0.557196
O6    O     O_R   0.500010 0.438030 0.599850 -0.557196
O7    O     O_R   0.500010 0.561970 0.599850 -0.561598
O8    O     O_R   0.499990 0.438030 0.400150 -0.561600
Br1   Br    Br    0.629651 0.578668 0.305440 -0.372316
Br2   Br    Br    0.370356 0.421319 0.694560 -0.372312
Br3   Br    Br    0.630070 0.578194 0.695581 -0.386025
Br4   Br    Br    0.369922 0.421819 0.304421 -0.386028
Cl1   Cl    Cl    0.620529 0.580082 0.137785 -0.413486
Cl2   Cl    Cl    0.379480 0.419904 0.862215 -0.413491
Cl3   Cl    Cl    0.620690 0.579971 0.863139 -0.406112
Cl4   Cl    Cl    0.379298 0.420042 0.136863 -0.406108
Cl5   Cl    Cl    0.394590 0.843162 0.402755 -0.526656
Cl6   Cl    Cl    0.605408 0.156838 0.597246 -0.526656
Cl7   Cl    Cl    0.605547 0.842885 0.597155 -0.505857
Cl8   Cl    Cl    0.394455 0.157115 0.402843 -0.505861

loop_
_geom_bond_atom_site_label_1
_geom_bond_atom_site_label_2
_ccdc_geom_bond_type
C13   N5    A    
C14   C18   A    
C51   H7    S    
C24   C27   A    
Cu2   O4    S    
C3    C49   A    
Cu1   Cu2   S    
C1    O4    A    
C15   C19   A    
C26   C27   A    
C33   C42   A    
C32   C36   A    
Cu1   N5    S    
N2    N4    A    
C37   C40   A    
C33   Br3   S    
C38   C39   A    
C1    O1    A    
C37   Cl3   S    
Cu1   O1    S    
C23   C26   A    
C29   O8    A    
C3    C12   S    
C40   C43   S    
C32   Br2   S    
C31   Br1   S    
C14   N6    A    
C30   O6    A    
C31   C41   A    
C29   O5    A    
C10   H12   S    
C34   C38   A    
C2    O3    A    
C34   C41   A    
Cu2   N6    S    
C35   Cl1   S    
C7    C12   A    
C15   H15   S    
C5    C48   A    
C15   N5    A    
C6    C47   A    
C4    C51   A    
C1    C6    S    
C23   H17   S    
C36   C40   A    
C16   H16   S    
C24   C25   A    
Cu2   O6    S    
C19   Cl7   S    
C47   C51   A    
C5    C45   A    
C33   C37   A    
C4    C50   A    
C25   C28   A    
C44   N1    A    
C35   C39   A    
C47   H3    S    
N1    N3    A    
C20   Cl8   S    
C45   C49   A    
C16   C20   A    
Cu1   O7    S    
C23   C28   A    
C4    C11   S    
C9    C11   A    
C7    H9    S    
C10   C12   A    
C8    H10   S    
C21   C28   S    
C20   C22   A    
C22   C27   S    
C31   C35   A    
C2    O2    A    
C2    C5    S    
C38   Cl4   S    
Cu2   O2    S    
C24   H18   S    
C13   H13   S    
C43   N2    A    
C7    C9    A    
C32   C42   A    
C6    C46   A    
C29   C41   S    
C18   C22   A    
C3    C52   A    
C48   H4    S    
C39   C44   S    
C43   N3    A    
C46   C50   A    
C49   H5    S    
C13   C17   A    
Cu1   O3    S    
C50   H6    S    
C44   N4    A    
C52   H8    S    
Cu2   O8    S    
C8    C11   A    
C26   H20   S    
C25   H19   S    
C9    H11   S    
C36   Cl2   S    
C48   C52   A    
C45   H1    S    
C8    C10   A    
C46   H2    S    
C14   H14   S    
C30   C42   S    
Cu1   O5    S    
C18   Cl6   S    
C16   N6    A    
C30   O7    A    
C17   Cl5   S    
C19   C21   A    
C34   Br4   S    
C17   C21   A    
