data_mof_unit_14745.cif
_audit_creation_date              2013-03-05T16:12:50-0500
_audit_creation_method            fapswitch 2.2
_symmetry_space_group_name_H-M    P1
_symmetry_Int_Tables_number       1
_space_group_crystal_system       triclinic
_cell_length_a                    10.685255
_cell_length_b                    9.81527
_cell_length_c                    27.767118
_cell_angle_alpha                 91.01894
_cell_angle_beta                  90.34208
_cell_angle_gamma                 89.934614
_cell_volume                      2911.66425264

loop_
_atom_site_label
_atom_site_type_symbol
_atom_site_description
_atom_site_fract_x
_atom_site_fract_y
_atom_site_fract_z
_atom_type_partial_charge
O1    O     O_R   0.316770 0.614620 0.500000 -0.629540
O2    O     O_R   0.683230 0.385380 0.500000 -0.629534
O3    O     O_R   0.683230 0.614620 0.500000 -0.623292
O4    O     O_R   0.316770 0.385380 0.500000 -0.623262
C1    C     C_R   0.259852 0.500049 0.499966 0.872367
C2    C     C_R   0.740148 0.499951 0.500030 0.872188
O5    O     O_R   0.500030 0.614650 0.428760 -0.620067
O6    O     O_R   0.499970 0.385350 0.571240 -0.620123
O7    O     O_R   0.499970 0.614650 0.571240 -0.618211
O8    O     O_R   0.500030 0.385350 0.428760 -0.618216
C3    C     C_R   0.502401 0.498484 0.405956 0.885097
C4    C     C_R   0.497695 0.501513 0.594053 0.885093
Zn1   Zn    Zn3+2 0.500000 0.653120 0.500000 0.949052
Zn2   Zn    Zn3+2 0.500000 0.346880 0.500000 0.949044
C5    C     C_R   0.387061 0.491196 0.177731 0.527817
C6    C     C_R   0.613656 0.507248 0.822272 0.527819
O9    O     O_2   0.281997 0.488719 0.204297 -0.565255
O10   O     O_2   0.718713 0.509320 0.795696 -0.565076
N1    N     N_R   0.499883 0.496770 0.201150 -0.350306
N2    N     N_R   0.500810 0.502220 0.798866 -0.350426
C7    C     C_R   0.610491 0.493278 0.177060 0.500625
C8    C     C_R   0.390219 0.505939 0.822958 0.500703
C9    C     C_R   0.550809 0.384546 0.276421 -0.096807
C10   C     C_R   0.450986 0.615529 0.723712 -0.096912
C11   C     C_R   0.554187 0.381961 0.326651 0.150621
C12   C     C_R   0.447532 0.618455 0.673485 0.150871
C13   C     C_R   0.458101 0.608198 0.328606 -0.262259
C14   C     C_R   0.541227 0.391031 0.671335 -0.261996
C15   C     C_R   0.456880 0.609307 0.278638 -0.099092
C16   C     C_R   0.542599 0.389657 0.721298 -0.099426
C17   C     C_R   0.502533 0.497246 0.252575 0.270801
C18   C     C_R   0.498138 0.502107 0.747449 0.271415
C19   C     C_R   0.496528 0.486352 0.101426 -0.097203
C20   C     C_R   0.504233 0.512122 0.898586 -0.097177
C21   C     C_R   0.381640 0.484656 0.126678 -0.087442
C22   C     C_R   0.619112 0.513647 0.873325 -0.087458
C23   C     C_R   0.268005 0.467811 0.100103 0.177679
C24   C     C_R   0.732783 0.530223 0.899892 0.177572
C25   C     C_R   0.611053 0.486039 0.127002 0.009057
C26   C     C_R   0.389690 0.512794 0.873022 0.008949
C27   C     C_R   0.505288 0.495027 0.353167 -0.059041
C28   C     C_R   0.495105 0.504888 0.646860 -0.059376
H1    H     H_    0.420644 0.695594 0.348095 0.166569
H2    H     H_    0.577689 0.303242 0.651786 0.166803
C29   C     C_R   0.386735 0.500351 0.973987 0.086855
C30   C     C_R   0.614067 0.497986 0.026028 0.086881
C31   C     C_R   0.616354 0.517514 0.975541 -0.023160
C32   C     C_R   0.384460 0.480711 0.024465 -0.023174
C33   C     C_R   0.502828 0.508436 0.949481 0.032547
C34   C     C_R   0.497965 0.489889 0.050529 0.032543
C35   C     C_R   0.276076 0.523628 0.947579 -0.226037
C36   C     C_R   0.724718 0.474880 0.052460 -0.226053
C37   C     C_R   0.276871 0.524729 0.897832 -0.149403
C38   C     C_R   0.723899 0.474094 0.102209 -0.149398
O11   O     O_2   0.280910 0.502021 0.798284 -0.559314
O12   O     O_2   0.719793 0.497816 0.201731 -0.559517
C39   C     C_R   0.273777 0.445592 0.049746 0.176215
C40   C     C_R   0.727059 0.552496 0.950246 0.176257
H3    H     H_    0.188542 0.535928 0.878931 0.187170
H4    H     H_    0.812228 0.463108 0.121128 0.187155
C41   C     C_R   0.063968 0.380748 0.486754 -0.182444
C42   C     C_R   0.936031 0.619257 0.513229 -0.182451
C43   C     C_R   0.935866 0.380673 0.486797 -0.193114
C44   C     C_R   0.064132 0.619332 0.513186 -0.192984
C45   C     C_R   0.872516 0.499926 0.500034 -0.012890
C46   C     C_R   0.127483 0.500077 0.499953 -0.012927
C47   C     C_R   0.575739 0.073477 0.530897 -0.065583
C48   C     C_R   0.424262 0.926523 0.469103 -0.065513
C49   C     C_R   0.424289 0.070604 0.469094 -0.081228
C50   C     C_R   0.575715 0.929396 0.530905 -0.081148
H5    H     H_    0.636232 0.129407 0.555560 0.127292
H6    H     H_    0.363769 0.870593 0.444440 0.127303
H7    H     H_    0.363858 0.124255 0.444421 0.125458
H8    H     H_    0.636153 0.875746 0.555575 0.125249
N3    N     N_R   0.500000 0.857200 0.500000 -0.079763
N4    N     N_R   0.500000 0.142800 0.500000 -0.079806
H9    H     H_    0.419929 0.696907 0.260090 0.150915
H10   H     H_    0.578687 0.301518 0.739773 0.150559
C51   C     C_3   0.140835 0.468833 0.124271 -0.759095
H11   H     H_    0.061656 0.467761 0.098341 0.208016
H12   H     H_    0.130975 0.378457 0.147421 0.266465
H13   H     H_    0.128926 0.564542 0.145652 0.266084
C52   C     C_3   0.859941 0.528970 0.875717 -0.758993
H14   H     H_    0.939122 0.529890 0.901648 0.208039
H15   H     H_    0.871693 0.433242 0.854334 0.266118
H16   H     H_    0.869935 0.619330 0.852568 0.266458
C53   C     C_3   0.389954 0.741322 0.649989 -0.851285
H17   H     H_    0.315737 0.708635 0.624112 0.245876
H18   H     H_    0.345875 0.811296 0.676833 0.229888
H19   H     H_    0.463035 0.800130 0.631196 0.250625
C54   C     C_3   0.613153 0.260070 0.350284 -0.851354
H20   H     H_    0.686763 0.293986 0.376229 0.245418
H21   H     H_    0.540709 0.200243 0.369032 0.250954
H22   H     H_    0.658304 0.190667 0.323526 0.230092
H23   H     H_    0.416787 0.701511 0.744863 0.143570
H24   H     H_    0.585954 0.298853 0.255356 0.144055
H25   H     H_    0.187665 0.542932 0.964948 0.163882
H26   H     H_    0.813148 0.455529 0.035114 0.163886
C55   C     C_3   0.174342 0.355137 0.026316 -0.924365
H27   H     H_    0.208451 0.304834 0.992773 0.255759
H28   H     H_    0.150106 0.270676 0.050682 0.254371
H29   H     H_    0.087887 0.413795 0.018579 0.224748
C56   C     C_3   0.826556 0.642947 0.973639 -0.924420
H30   H     H_    0.850849 0.727307 0.949238 0.254369
H31   H     H_    0.792479 0.693393 0.007160 0.255773
H32   H     H_    0.912976 0.584249 0.981395 0.224742
H33   H     H_    0.112944 0.288396 0.476070 0.153668
H34   H     H_    0.887056 0.711609 0.523914 0.153667
H35   H     H_    0.886753 0.288305 0.476134 0.156926
H36   H     H_    0.113243 0.711702 0.523848 0.156924

loop_
_geom_bond_atom_site_label_1
_geom_bond_atom_site_label_2
_geom_bond_distance
_ccdc_geom_bond_type
C35   H25   1.078300 S    
C53   H17   1.110711 S    
C43   C45   1.396153 A    
C24   C52   1.519031 S    
C13   C15   1.387679 A    
O3    C2    1.278721 A    
N1    C17   1.427966 S    
C51   H13   1.109936 S    
C37   H3    1.083622 S    
C32   C39   1.424704 A    
C31   C33   1.410862 A    
C38   H4    1.083627 S    
C48   N3    1.365705 A    
O5    C3    1.294630 A    
C23   C51   1.519054 S    
C19   C25   1.411223 A    
O1    C1    1.279062 A    
N1    C7    1.361609 A    
C10   C12   1.395738 A    
C25   C38   1.395817 A    
C42   H34   1.083869 S    
C29   C35   1.408187 A    
C39   C55   1.521117 S    
C30   C36   1.408184 A    
C9    H24   1.083971 S    
C49   N4    1.365454 A    
C36   H26   1.078274 S    
C41   C43   1.368812 A    
O7    Zn1   2.020430 S    
C4    C28   1.466517 S    
C24   C40   1.412986 A    
C41   C46   1.396526 A    
C2    C45   1.414388 S    
C55   H27   1.109680 S    
C48   C49   1.414205 A    
C50   H8    1.081846 S    
C42   C44   1.368802 A    
C49   H7    1.081848 S    
C47   H5    1.081809 S    
O3    Zn1   1.993571 S    
O6    C4    1.294713 A    
C32   C34   1.410784 A    
O2    C2    1.279061 A    
O2    Zn2   1.994417 S    
C5    C21   1.418741 A    
C36   C38   1.381633 A    
C11   C54   1.510040 S    
Zn1   N3    2.003100 S    
O8    Zn2   2.020435 S    
C10   H23   1.083930 S    
C11   C27   1.421584 A    
C54   H20   1.110769 S    
C51   H12   1.110171 S    
C12   C53   1.509980 S    
C9    C17   1.396002 A    
C19   C34   1.414476 A    
C14   H2    1.083527 S    
C48   H6    1.081808 S    
C35   C37   1.381634 A    
C44   C46   1.396151 A    
C43   H35   1.083830 S    
C5    N1    1.366997 A    
C10   C18   1.395876 A    
C54   H21   1.109846 S    
C13   C27   1.405262 A    
C44   H36   1.083829 S    
C52   H14   1.107628 S    
C7    C25   1.390576 A    
C29   C33   1.421397 A    
C6    N2    1.366896 A    
C8    C26   1.390596 A    
C52   H16   1.110166 S    
C56   H31   1.109675 S    
C52   H15   1.109930 S    
N2    C8    1.361521 A    
C53   H18   1.111027 S    
C20   C26   1.411273 A    
O1    Zn1   1.994417 S    
C22   C24   1.425278 A    
C56   H30   1.111125 S    
C12   C28   1.421754 A    
N2    C18   1.427770 S    
C29   C32   1.418565 A    
C5    O9    1.347452 S    
C30   C31   1.418644 A    
C20   C33   1.414483 A    
O6    Zn2   2.007238 S    
C42   C45   1.396522 A    
C21   C23   1.425339 A    
O4    C1    1.278724 A    
C7    O12   1.350838 S    
C8    O11   1.350828 S    
C47   N4    1.365703 A    
C30   C34   1.421424 A    
C47   C50   1.414202 A    
C14   C16   1.387635 A    
C15   C17   1.395062 A    
C1    C46   1.414394 S    
C54   H22   1.111013 S    
C16   C18   1.394861 A    
C14   C28   1.405464 A    
C19   C21   1.417632 A    
C3    C27   1.466118 S    
C56   H32   1.109888 S    
C20   C22   1.417638 A    
C9    C11   1.395661 A    
O4    Zn2   1.993571 S    
C41   H33   1.083868 S    
O7    C4    1.288515 A    
C23   C39   1.413021 A    
O8    C3    1.288377 A    
C51   H11   1.107616 S    
C16   H10   1.083017 S    
C13   H1    1.083597 S    
O5    Zn1   2.007244 S    
C55   H29   1.109888 S    
C15   H9    1.083045 S    
C6    O10   1.347445 S    
C26   C37   1.395813 A    
C53   H19   1.109899 S    
C50   N3    1.365453 A    
C40   C56   1.521119 S    
C55   H28   1.111126 S    
C6    C22   1.418711 A    
Zn2   N4    2.003100 S    
C31   C40   1.424747 A    
