data_mof_unit_48633.cif
_audit_creation_date              2012-12-11T15:35:17-0500
_audit_creation_method            fapswitch 2.2
_symmetry_space_group_name_H-M    P1
_symmetry_Int_Tables_number       1
_space_group_crystal_system       triclinic
_cell_length_a                    17.297059
_cell_length_b                    24.524788
_cell_length_c                    14.733815
_cell_angle_alpha                 90.188997
_cell_angle_beta                  124.191684
_cell_angle_gamma                 89.734319
_cell_volume                      5169.85748989

loop_
_atom_site_label
_atom_site_type_symbol
_atom_type_description
_atom_site_fract_x
_atom_site_fract_y
_atom_site_fract_z
_atom_type_partial_charge
C1    C     C_R   0.362091 0.154129 0.910279 0.260392
C2    C     C_R   0.601362 0.117501 0.907350 -0.156358
C3    C     C_R   0.246901 0.544652 0.308894 0.039481
C4    C     C_R   0.097199 0.375761 0.905937 -0.179605
C5    C     C_R   0.101361 0.617504 0.907350 -0.156339
C6    C     C_R   0.440497 0.999685 0.633006 0.080250
C7    C     C_R   0.940498 0.499685 0.633007 0.080250
C8    C     C_R   0.790166 0.999366 0.375207 0.039572
C9    C     C_R   0.290167 0.499367 0.375208 0.039574
C10   C     C_R   0.689067 0.131813 0.996110 0.033397
C11   C     C_R   0.684036 0.861602 0.995375 0.041883
C12   C     C_R   0.189067 0.631815 0.996111 0.033376
C13   C     C_R   0.357623 0.846703 0.912699 0.265378
C14   C     C_R   0.184038 0.361606 0.995375 0.041890
C15   C     C_3   0.020694 0.949046 0.645281 0.301405
C16   C     C_3   0.019097 0.051496 0.643174 0.250732
C17   C     C_3   0.520693 0.449047 0.645287 0.301392
C18   C     C_3   0.519093 0.551497 0.643179 0.250734
C19   C     C_3   0.911402 0.952554 0.565001 0.229399
C20   C     C_3   0.919843 0.057504 0.535253 0.195395
C21   C     C_3   0.411400 0.452554 0.565004 0.229399
C22   C     C_3   0.419840 0.557505 0.535257 0.195383
C23   C     C_3   0.052695 0.999804 0.517669 -0.606527
C24   C     C_R   0.862095 0.654131 0.910280 0.260424
C25   C     C_3   0.552697 0.499808 0.517677 -0.606543
C26   C     C_3   0.068658 0.000215 0.632972 -0.127030
C27   C     C_3   0.568658 0.500217 0.632980 -0.127010
C28   C     C_3   0.888893 0.998411 0.473684 -0.317277
C29   C     C_3   0.388893 0.498412 0.473688 -0.317275
C30   C     C_R   0.446445 0.848371 0.094721 0.447777
C31   C     C_R   0.445318 0.152584 0.092360 0.439797
C32   C     C_R   0.946446 0.348371 0.094722 0.447778
C33   C     C_R   0.945324 0.652585 0.092361 0.439789
C34   C     C_3   0.952368 0.984880 0.428689 0.771695
C35   C     C_R   0.857624 0.346703 0.912699 0.265374
C36   C     C_3   0.452371 0.484882 0.428696 0.771705
C37   C     C_R   0.250948 0.749893 0.905050 0.270750
C38   C     C_R   0.251026 0.223430 0.975236 0.230459
C39   C     C_R   0.750939 0.249898 0.905049 0.270754
C40   C     C_R   0.751044 0.723426 0.975262 0.230461
C41   C     C_R   0.714236 0.199109 0.895320 -0.236517
C42   C     C_R   0.699625 0.767542 0.968694 -0.182173
C43   C     C_R   0.214253 0.699101 0.895323 -0.236536
C44   C     C_R   0.199613 0.267545 0.968679 -0.182171
C45   C     C_R   0.753971 0.164724 0.985583 -0.081273
C46   C     C_R   0.687238 0.125409 0.089429 0.518522
C47   C     C_R   0.738288 0.819325 0.990529 -0.121037
C48   C     C_R   0.253978 0.664722 0.985590 -0.081266
C49   C     C_R   0.238288 0.319328 0.990529 -0.121053
C50   C     C_R   0.843271 0.175903 0.076934 0.426071
C51   C     C_R   0.828997 0.828341 0.017983 0.422115
C52   C     C_R   0.343272 0.675906 0.076945 0.426082
C53   C     C_R   0.329001 0.328339 0.018000 0.422134
C54   C     C_R   0.376727 0.728946 0.093419 0.440277
C55   C     C_R   0.381064 0.283692 0.021604 0.449942
C56   C     C_R   0.876729 0.228944 0.093414 0.440271
C57   C     C_R   0.686487 0.873205 0.088833 0.537142
C58   C     C_R   0.881064 0.783695 0.021587 0.449944
C59   C     C_R   0.336423 0.765249 0.002730 -0.168021
C60   C     C_R   0.341292 0.231484 0.000577 -0.171175
C61   C     C_R   0.836422 0.265250 0.002728 -0.168027
C62   C     C_R   0.841302 0.731485 0.000581 -0.171183
C63   C     C_R   0.387366 0.950982 0.457974 -0.170940
C64   C     C_R   0.390299 0.049254 0.461138 -0.168695
C65   C     C_R   0.887367 0.450981 0.457975 -0.170937
C66   C     C_R   0.890301 0.549254 0.461141 -0.168703
C67   C     C_R   0.371596 0.951521 0.354358 0.211214
C68   C     C_R   0.187237 0.625410 0.089430 0.518523
C69   C     C_R   0.374740 0.049811 0.357984 0.211312
C70   C     C_R   0.871597 0.451520 0.354359 0.211212
C71   C     C_R   0.874743 0.549811 0.357987 0.211316
C72   C     C_R   0.383596 0.000679 0.314274 -0.035584
C73   C     C_R   0.883597 0.500679 0.314275 -0.035580
C74   C     C_R   0.474637 0.045136 0.243804 -0.063225
C75   C     C_R   0.475371 0.954819 0.244512 -0.073393
C76   C     C_R   0.974637 0.545136 0.243803 -0.063220
C77   C     C_R   0.975372 0.454819 0.244513 -0.073397
C78   C     C_R   0.406244 0.999842 0.516518 0.048449
C79   C     C_R   0.186487 0.373207 0.088833 0.537144
C80   C     C_R   0.906245 0.499841 0.516519 0.048450
C81   C     C_R   0.230248 0.954127 0.736446 0.432499
C82   C     C_R   0.230120 0.046248 0.737274 0.400728
C83   C     C_R   0.730248 0.454127 0.736451 0.432482
C84   C     C_R   0.730121 0.546248 0.737284 0.400745
C85   C     C_R   0.390724 0.184337 0.002282 -0.040747
C86   C     C_R   0.377485 0.818601 0.005715 -0.074995
C87   C     C_R   0.890733 0.684340 0.002284 -0.040746
C88   C     C_R   0.877487 0.318601 0.005715 -0.074996
C89   C     C_R   0.438083 0.000148 0.264471 0.034512
C90   C     C_R   0.597197 0.875759 0.905937 -0.179590
C91   C     C_R   0.938083 0.500148 0.264472 0.034516
C92   C     C_R   0.172808 0.000321 0.710817 -0.040655
C93   C     C_R   0.672808 0.500322 0.710825 -0.040653
C94   C     C_R   0.453047 0.044900 0.696244 -0.099163
C95   C     C_R   0.454349 0.954628 0.696774 -0.079084
C96   C     C_R   0.953049 0.544899 0.696244 -0.099169
C97   C     C_R   0.954349 0.454628 0.696775 -0.079086
C98   C     C_R   0.746239 0.954907 0.308514 0.044961
C99   C     C_R   0.746901 0.044652 0.308894 0.039478
C100  C     C_R   0.246239 0.454907 0.308514 0.044961
Cl1   Cl    Cl    0.063287 0.932051 0.784939 -0.433590
Cl2   Cl    Cl    0.876521 0.894677 0.048332 -0.394724
Cl3   Cl    Cl    0.409633 0.625506 0.175659 -0.385591
Cl4   Cl    Cl    0.376538 0.394671 0.048383 -0.394714
Cl5   Cl    Cl    0.430253 0.751392 0.229888 -0.386323
Cl6   Cl    Cl    0.494616 0.292916 0.052108 -0.387419
Cl7   Cl    Cl    0.930269 0.251384 0.229891 -0.386303
Cl8   Cl    Cl    0.994610 0.792924 0.052071 -0.387415
Cl9   Cl    Cl    0.553489 0.822192 0.205034 -0.512771
Cl10  Cl    Cl    0.527590 0.178593 0.223900 -0.498515
Cl11  Cl    Cl    0.053492 0.322193 0.205032 -0.512769
Cl12  Cl    Cl    0.022066 0.053595 0.766908 -0.436325
Cl13  Cl    Cl    0.027601 0.678595 0.223895 -0.498516
Cl14  Cl    Cl    0.200254 0.894901 0.656839 -0.568908
Cl15  Cl    Cl    0.199043 0.107061 0.662245 -0.604872
Cl16  Cl    Cl    0.700252 0.394903 0.656838 -0.568903
Cl17  Cl    Cl    0.699044 0.607068 0.662287 -0.604903
Cl18  Cl    Cl    0.744207 0.168248 0.204389 -0.480888
Cl19  Cl    Cl    0.760477 0.839871 0.214676 -0.480337
Cl20  Cl    Cl    0.244204 0.668248 0.204390 -0.480883
Cl21  Cl    Cl    0.260479 0.339873 0.214675 -0.480333
Cl22  Cl    Cl    0.563282 0.432054 0.784945 -0.433594
Cl23  Cl    Cl    0.522062 0.553600 0.766914 -0.436319
Cl24  Cl    Cl    0.951644 0.914901 0.391837 -0.452312
Cl25  Cl    Cl    0.919966 0.017986 0.303598 -0.439955
Cl26  Cl    Cl    0.451649 0.414903 0.391845 -0.452296
Cl27  Cl    Cl    0.419971 0.517988 0.303605 -0.439953
Cl28  Cl    Cl    0.909628 0.125500 0.175640 -0.385589
H1    H     H_    0.101176 0.972196 0.512783 0.278745
H2    H     H_    0.390784 0.087733 0.497256 0.162345
H3    H     H_    0.885341 0.412422 0.491829 0.164762
H4    H     H_    0.890786 0.587732 0.497260 0.162342
H5    H     H_    0.465125 0.087031 0.254690 0.173396
H6    H     H_    0.467421 0.912593 0.256474 0.164016
H7    H     H_    0.965125 0.587032 0.254690 0.173393
H8    H     H_    0.967423 0.412593 0.256476 0.164014
H9    H     H_    0.434407 0.086559 0.668543 0.133667
H10   H     H_    0.437100 0.912860 0.669292 0.130284
H11   H     H_    0.934409 0.586559 0.668544 0.133663
H12   H     H_    0.069821 0.040326 0.500807 0.267729
H13   H     H_    0.937099 0.412860 0.669292 0.130285
H14   H     H_    0.749551 0.914082 0.333947 0.194780
H15   H     H_    0.753360 0.086180 0.334747 0.183571
H16   H     H_    0.249554 0.414081 0.333948 0.194783
H17   H     H_    0.253360 0.586180 0.334748 0.183573
H18   H     H_    0.569195 0.867820 0.820634 0.162658
H19   H     H_    0.576752 0.118100 0.822082 0.140203
H20   H     H_    0.069197 0.367822 0.820634 0.162659
H21   H     H_    0.076750 0.618107 0.822082 0.140197
H22   H     H_    0.041468 0.913447 0.618337 0.184090
H23   H     H_    0.601178 0.472200 0.512792 0.278745
H24   H     H_    0.057366 0.088898 0.655462 0.181364
H25   H     H_    0.541469 0.413448 0.618346 0.184092
H26   H     H_    0.557358 0.588901 0.655466 0.181374
H27   H     H_    0.569823 0.540331 0.500820 0.267718
H28   H     H_    0.645832 0.191097 0.822395 0.180679
H29   H     H_    0.630278 0.761311 0.950775 0.196153
H30   H     H_    0.145858 0.691083 0.822396 0.180677
H31   H     H_    0.130262 0.261315 0.950751 0.196153
H32   H     H_    0.385338 0.912423 0.491827 0.164763
I1    I     I_    0.368577 0.194995 0.787627 -0.153891
I2    I     I_    0.937114 0.125067 0.450739 -0.014207
I3    I     I_    0.368225 0.367088 0.526054 -0.033207
I4    I     I_    0.437112 0.625069 0.450744 -0.014210
I5    I     I_    0.146590 0.803373 0.785885 -0.094970
I6    I     I_    0.188459 0.145962 0.951637 -0.165488
I7    I     I_    0.646590 0.303378 0.785881 -0.094992
I8    I     I_    0.688508 0.645945 0.951741 -0.165464
I9    I     I_    0.314276 0.879887 0.257318 -0.081732
I10   I     I_    0.323737 0.124451 0.270377 -0.147329
I11   I     I_    0.814282 0.379885 0.257322 -0.081748
I12   I     I_    0.369696 0.802638 0.795960 -0.208843
I13   I     I_    0.823744 0.624454 0.270389 -0.147331
I14   I     I_    0.868581 0.694994 0.787624 -0.153883
I15   I     I_    0.869696 0.302639 0.795958 -0.208842
I16   I     I_    0.836431 0.964567 0.642211 -0.061775
I17   I     I_    0.820079 0.099138 0.559284 -0.105476
I18   I     I_    0.336428 0.464567 0.642212 -0.061794
I19   I     I_    0.320073 0.599138 0.559284 -0.105483
I20   I     I_    0.868225 0.867088 0.526051 -0.033203
N1    N     N_R   0.392140 0.102630 0.941800 -0.110649
N2    N     N_R   0.525160 0.972040 0.206160 -0.060053
N3    N     N_R   0.025160 0.527960 0.206160 -0.060540
N4    N     N_R   0.025160 0.472040 0.206160 -0.060052
N5    N     N_R   0.317870 0.971120 0.792790 -0.111424
N6    N     N_R   0.317870 0.028880 0.792790 -0.106813
N7    N     N_R   0.817870 0.471120 0.792790 -0.111423
N8    N     N_R   0.817870 0.528880 0.792790 -0.106814
N9    N     N_R   0.473480 0.027920 0.793480 -0.049971
N10   N     N_R   0.473480 0.972080 0.793480 -0.047849
N11   N     N_R   0.973480 0.527920 0.793480 -0.049971
N12   N     N_R   0.392140 0.897370 0.941800 -0.106630
N13   N     N_R   0.973480 0.472080 0.793480 -0.047848
N14   N     N_R   0.681610 0.971120 0.207570 -0.070665
N15   N     N_R   0.681610 0.028880 0.207570 -0.073032
N16   N     N_R   0.181610 0.471120 0.207570 -0.070666
N17   N     N_R   0.181610 0.528880 0.207570 -0.073033
N18   N     N_R   0.605410 0.102620 0.056870 -0.100996
N19   N     N_R   0.605410 0.897380 0.056870 -0.100668
N20   N     N_R   0.105410 0.602620 0.056870 -0.100997
N21   N     N_R   0.105410 0.397380 0.056870 -0.100667
N22   N     N_R   0.549680 0.896430 0.944180 -0.077373
N23   N     N_R   0.892140 0.602630 0.941800 -0.110647
N24   N     N_R   0.549680 0.103570 0.944180 -0.073399
N25   N     N_R   0.049680 0.396430 0.944180 -0.077371
N26   N     N_R   0.049680 0.603570 0.944180 -0.073401
N27   N     N_R   0.892140 0.397370 0.941800 -0.106630
N28   N     N_R   0.450890 0.896450 0.057150 -0.123484
N29   N     N_R   0.450890 0.103550 0.057150 -0.127466
N30   N     N_R   0.950890 0.396450 0.057150 -0.123483
N31   N     N_R   0.950890 0.603550 0.057150 -0.127467
N32   N     N_R   0.525160 0.027960 0.206160 -0.060540
Ni1   Ni    Ni4+2 0.433410 0.064680 0.868830 0.276487
Ni2   Ni    Ni4+2 0.433410 0.935320 0.868830 0.274495
Ni3   Ni    Ni4+2 0.933410 0.564680 0.868830 0.276486
Ni4   Ni    Ni4+2 0.933410 0.435320 0.868830 0.274495
Ni5   Ni    Ni4+2 0.565650 0.934380 0.131170 0.298851
Ni6   Ni    Ni4+2 0.565650 0.065620 0.131170 0.300138
Ni7   Ni    Ni4+2 0.065650 0.434380 0.131170 0.298851
Ni8   Ni    Ni4+2 0.065650 0.565620 0.131170 0.300136

loop_
_geom_bond_atom_site_label_1
_geom_bond_atom_site_label_2
_ccdc_geom_bond_type
C44   C49   A    
C58   C62   A    
C2    C10   A    
N6    Ni1   S    
C24   N23   A    
N3    Ni8   S    
C21   I3    S    
C22   C29   S    
C25   H27   S    
C23   H1    S    
C53   C55   A    
C11   C47   S    
N19   Ni5   S    
C12   C48   S    
C43   H30   S    
C83   N7    A    
C96   H11   S    
C75   H6    S    
C5    H21   S    
C4    N25   A    
C39   C41   A    
N26   Ni3   S    
C67   I9    S    
C51   Cl2   S    
C15   C19   S    
C7    C96   A    
C12   C68   A    
C29   C36   S    
C46   Cl18  S    
C13   N12   A    
C82   N6    A    
C31   C85   A    
N29   Ni6   S    
C96   N11   A    
C99   H15   S    
C32   Cl11  S    
C8    C99   A    
C82   Cl15  S    
C52   Cl3   S    
C46   N18   A    
C14   C49   S    
C53   Cl4   S    
C26   C92   S    
C65   C70   A    
C83   C93   A    
C74   H5    S    
C99   N15   A    
C77   N4    A    
C82   C92   A    
N5    Ni2   S    
C98   N14   A    
C6    C78   S    
N1    N29   A    
C67   C72   A    
C23   C26   S    
N12   Ni2   S    
N21   N25   A    
C8    C98   A    
C19   I16   S    
C95   N10   A    
N11   Ni3   S    
C5    N26   A    
C97   H13   S    
C81   C92   A    
C76   H7    S    
C13   I12   S    
N25   Ni4   S    
C84   Cl17  S    
C79   N21   A    
C13   C86   A    
C10   C46   A    
N19   N22   A    
C34   Cl24  S    
C77   H8    S    
C30   C86   A    
C76   N3    A    
C43   C48   A    
C18   H26   S    
C9    C29   S    
C18   Cl23  S    
C69   I10   S    
C41   H28   S    
C40   C42   A    
N14   N15   A    
C40   C62   A    
C1    I1    S    
C65   C80   A    
C55   C60   A    
C57   N19   A    
C16   C26   S    
N12   N28   A    
N23   N31   A    
N18   Ni6   S    
C63   H32   S    
C10   C45   S    
C84   N8    A    
C81   N5    A    
C42   C47   A    
C65   H3    S    
N8    Ni3   S    
C52   C54   A    
N14   Ni5   S    
C66   H4    S    
C54   C59   A    
C100  N16   A    
C1    C85   A    
C39   C61   A    
C63   C67   A    
C40   I8    S    
C32   C88   A    
C55   Cl6   S    
C17   C27   S    
C23   H12   S    
C2    N24   A    
C73   C91   S    
C5    C12   A    
C100  H16   S    
C71   C73   A    
C1    N1    A    
C22   I19   S    
C15   C26   S    
C47   C51   A    
C30   Cl9   S    
C6    C94   A    
C17   H25   S    
C14   C79   A    
C15   Cl1   S    
C21   C29   S    
N24   Ni1   S    
C17   C21   S    
N30   Ni7   S    
C71   I13   S    
C74   N32   A    
C76   C91   A    
C37   C43   A    
C69   C72   A    
N3    N4    A    
N11   N13   A    
C56   Cl7   S    
C38   C44   A    
C3    C9    A    
C61   C88   S    
N27   N30   A    
C32   N30   A    
C35   C88   A    
C66   C71   A    
C31   N29   A    
C16   Cl12  S    
N31   Ni8   S    
C16   C20   S    
C23   C34   S    
C30   N28   A    
C70   C73   A    
N2    N32   A    
C16   H24   S    
C51   C58   A    
C64   C69   A    
N22   Ni2   S    
C19   C28   S    
N10   Ni2   S    
N21   Ni7   S    
C37   C59   A    
N9    Ni1   S    
N2    Ni5   S    
C38   C60   A    
C35   N27   A    
C21   I18   S    
C64   H2    S    
C3    H17   S    
C9    C100  A    
N18   N24   A    
C20   I2    S    
N20   Ni8   S    
C79   Cl21  S    
N4    Ni7   S    
C42   H29   S    
C50   Cl28  S    
N17   Ni8   S    
N16   Ni7   S    
C66   C80   A    
C74   C89   A    
N13   Ni4   S    
N23   Ni3   S    
N28   Ni5   S    
C38   I6    S    
N7    Ni4   S    
C77   C91   A    
C95   H10   S    
N20   N26   A    
C7    C97   A    
C54   Cl5   S    
C24   I14   S    
C18   C22   S    
C64   C78   A    
C83   Cl16  S    
C36   Cl26  S    
C18   C27   S    
N16   N17   A    
C37   I5    S    
C60   C85   S    
C20   I17   S    
C94   H9    S    
C25   C27   S    
C20   C28   S    
C62   C87   S    
C33   Cl13  S    
C68   N20   A    
C25   H23   S    
C81   Cl14  S    
C35   I15   S    
C22   I4    S    
C2    H19   S    
C94   N9    A    
C57   Cl19  S    
N7    N8    A    
C90   H18   S    
C4    C14   A    
C68   Cl20  S    
C72   C89   S    
C33   N31   A    
C11   C90   A    
N5    N6    A    
N32   Ni6   S    
C45   C50   A    
C34   Cl25  S    
C49   C53   A    
N27   Ni4   S    
C3    N17   A    
C31   Cl10  S    
C58   Cl8   S    
C84   C93   A    
C15   H22   S    
C70   I11   S    
C33   C87   A    
N9    N10   A    
C24   C87   A    
C50   C56   A    
C59   C86   S    
C27   C93   S    
C75   C89   A    
C25   C36   S    
C28   C34   S    
C36   Cl27  S    
C39   I7    S    
C17   Cl22  S    
C48   C52   A    
C8    C28   S    
C6    C95   A    
C97   N13   A    
C44   H31   S    
C41   C45   A    
C56   C61   A    
N1    Ni1   S    
C11   C57   A    
C75   N2    A    
C19   I20   S    
N15   Ni6   S    
C98   H14   S    
C7    C80   S    
C90   N22   A    
C63   C78   A    
C4    H20   S    
