data_mof_unit_16421.cif
_audit_creation_date              2012-12-11T15:53:37-0500
_audit_creation_method            fapswitch 2.2
_symmetry_space_group_name_H-M    P1
_symmetry_Int_Tables_number       1
_space_group_crystal_system       triclinic
_cell_length_a                    6.94785
_cell_length_b                    14.524572
_cell_length_c                    16.005325
_cell_angle_alpha                 90.65403
_cell_angle_beta                  89.921149
_cell_angle_gamma                 90.173827
_cell_volume                      1615.05601617

loop_
_atom_site_label
_atom_site_type_symbol
_atom_type_description
_atom_site_fract_x
_atom_site_fract_y
_atom_site_fract_z
_atom_type_partial_charge
O1    O     O_R   0.361600 0.167310 0.164620 -0.544623
O2    O     O_R   0.638400 0.832690 0.835380 -0.542446
O3    O     O_R   0.691080 0.157570 0.338750 -0.516033
O4    O     O_R   0.308920 0.842430 0.661250 -0.539988
O5    O     O_R   0.861410 0.336420 0.339360 -0.521741
O6    O     O_R   0.138590 0.663580 0.660640 -0.530135
C1    C     C_R   0.520867 0.134170 0.366217 0.735610
C2    C     C_R   0.479115 0.862299 0.630453 0.740757
O7    O     O_R   0.691320 0.156280 0.165240 -0.548210
O8    O     O_R   0.308680 0.843720 0.834760 -0.542933
O9    O     O_R   0.861640 0.335130 0.164600 -0.548465
O10   O     O_R   0.138360 0.664870 0.835400 -0.545505
C3    C     C_R   0.522237 0.133748 0.136213 0.669659
C4    C     C_R   0.477745 0.866155 0.863869 0.684543
O11   O     O_R   0.361370 0.168600 0.339370 -0.523220
O12   O     O_R   0.638630 0.831400 0.660630 -0.528996
O13   O     O_3   0.527990 0.310540 0.251980 -0.380050
O14   O     O_3   0.472010 0.689460 0.748020 -0.375075
V1    V     V_3+5 0.802830 0.240980 0.251990 1.489866
V2    V     V_3+5 0.197170 0.759020 0.748010 1.449668
O15   O     O_R   0.191360 0.346160 0.165220 -0.550655
O16   O     O_R   0.808640 0.653840 0.834780 -0.548374
C5    C     C_R   0.022481 0.368254 0.136087 0.654712
C6    C     C_R   0.977519 0.631751 0.863916 0.664949
O17   O     O_R   0.191130 0.347440 0.338740 -0.549227
O18   O     O_R   0.808870 0.652560 0.661260 -0.544677
C7    C     C_R   0.022473 0.369640 0.367477 0.746840
C8    C     C_R   0.977565 0.630289 0.632574 0.734937
V3    V     V_3+5 0.302840 0.262750 0.251990 1.448627
V4    V     V_3+5 0.697160 0.737250 0.748010 1.429878
O19   O     O_3   0.027820 0.193180 0.251990 -0.345071
O20   O     O_3   0.972180 0.806820 0.748010 -0.370092
C9    C     C_3   0.885342 0.429973 0.515075 0.510308
C10   C     C_3   0.114884 0.570051 0.484877 0.516396
C11   C     C_3   0.054229 0.459291 0.572132 -0.288438
C12   C     C_3   0.945942 0.540736 0.427837 -0.283596
H1    H     H_    0.096143 0.426108 0.631502 0.123263
H2    H     H_    0.904154 0.573962 0.368469 0.123763
C13   C     C_3   0.987490 0.560404 0.562689 -0.102240
C14   C     C_3   0.012688 0.439644 0.437283 -0.115716
C15   C     C_3   0.816210 0.530302 0.506512 -0.253623
C16   C     C_3   0.183929 0.469691 0.493472 -0.260576
H3    H     H_    0.665560 0.554464 0.513214 0.141020
H4    H     H_    0.334487 0.445325 0.486953 0.140958
C17   C     C_R   0.820952 0.524939 0.967597 -0.159046
C18   C     C_R   0.179046 0.475081 0.032418 -0.158501
H5    H     H_    0.680446 0.543063 0.943794 0.115226
H6    H     H_    0.319552 0.456958 0.056222 0.114696
C19   C     C_R   0.832185 0.462004 0.033251 -0.152005
C20   C     C_R   0.167812 0.538016 0.966764 -0.151681
H7    H     H_    0.699674 0.433536 0.057715 0.116676
H8    H     H_    0.300324 0.566485 0.942301 0.117490
C21   C     C_R   0.011407 0.436104 0.066698 -0.040218
C22   C     C_R   0.988592 0.563912 0.933313 -0.043007
C23   C     C_R   0.665602 0.050136 0.485039 -0.185957
C24   C     C_R   0.341944 0.939198 0.504671 -0.154972
H9    H     H_    0.793995 0.091486 0.477345 0.192159
H10   H     H_    0.223391 0.892135 0.507542 0.159506
C25   C     C_R   0.666271 0.979197 0.543458 -0.016792
C26   C     C_R   0.345877 0.004063 0.440750 0.004269
C27   C     C_R   0.495563 0.928796 0.559795 -0.126873
C28   C     C_R   0.507188 0.063546 0.432467 -0.142025
C29   C     C_R   0.679053 0.025826 0.032639 -0.155953
C30   C     C_R   0.320887 0.973848 0.967645 -0.151674
H11   H     H_    0.819520 0.044831 0.056572 0.116375
H12   H     H_    0.180417 0.954827 0.943726 0.118912
C31   C     C_R   0.668073 0.961790 0.966789 -0.147208
C32   C     C_R   0.331864 0.037877 0.033500 -0.145669
H13   H     H_    0.800616 0.933263 0.942183 0.120631
H14   H     H_    0.199320 0.066380 0.058130 0.118151
C33   C     C_R   0.488843 0.934960 0.933336 -0.044316
C34   C     C_R   0.511108 0.064785 0.066885 -0.039308
O21   O     O_3   0.765579 0.352277 0.525309 -0.554066
C35   C     C_3   0.663869 0.360037 0.601304 0.069500
H15   H     H_    0.579676 0.425074 0.604684 0.113665
H16   H     H_    0.764522 0.357273 0.655238 0.122484
C36   C     C_3   0.523212 0.279927 0.607683 -0.670082
H17   H     H_    0.602680 0.213682 0.606833 0.231056
H18   H     H_    0.440383 0.285621 0.666891 0.174722
H19   H     H_    0.421109 0.280735 0.554329 0.221473
O22   O     O_3   0.234982 0.647590 0.474205 -0.554969
C37   C     C_3   0.338491 0.638548 0.398726 0.068946
H20   H     H_    0.239234 0.641582 0.344321 0.128488
H21   H     H_    0.420803 0.572944 0.396043 0.110803
C38   C     C_3   0.482116 0.717442 0.392428 -0.657616
H22   H     H_    0.580576 0.717468 0.447074 0.227471
H23   H     H_    0.568649 0.709628 0.334415 0.173743
H24   H     H_    0.404772 0.784099 0.390688 0.246141
C39   C     C_2   0.853704 0.945484 0.571524 0.767986
O23   O     O_2   0.964540 0.995483 0.610316 -0.562580
O24   O     O_R   0.901327 0.854254 0.551971 -0.662501
H25   H     H_    0.008905 0.829613 0.587331 0.308882
C40   C     C_2   0.185101 0.001283 0.380734 0.741275
O25   O     O_2   0.067709 0.063536 0.379884 -0.544905
O26   O     O_R   0.162412 0.924640 0.328098 -0.674650
H26   H     H_    0.045184 0.929683 0.290791 0.289800

loop_
_geom_bond_atom_site_label_1
_geom_bond_atom_site_label_2
_ccdc_geom_bond_type
C29   H11   S    
C40   O25   D    
C23   C25   A    
O13   V3    S    
C4    C33   S    
O26   H26   S    
C10   C16   S    
O4    C2    A    
V1    O19   S    
O22   C37   S    
C13   C15   S    
C36   H17   S    
O9    V1    S    
C20   C22   A    
C35   H16   S    
C30   C32   A    
C11   H1    S    
O3    C1    A    
C25   C39   S    
C36   H19   S    
C6    C22   S    
C23   C28   A    
C26   C28   A    
O21   C35   S    
C30   C33   A    
C11   C16   S    
O7    C3    A    
C5    C21   S    
C9    C11   S    
O5    C7    A    
O7    V1    S    
O6    C8    A    
O8    V2    S    
C19   H7    S    
C35   C36   S    
C20   H8    S    
O3    V1    S    
O14   V4    S    
C10   O22   S    
C39   O24   S    
C31   C33   A    
C2    C27   S    
C26   C40   S    
C17   H5    S    
C2    O12   A    
C15   H3    S    
C12   C15   S    
C16   H4    S    
O11   V3    S    
C18   H6    S    
C36   H18   S    
O17   V3    S    
C29   C31   A    
C25   C27   A    
C9    C14   S    
C35   H15   S    
C38   H23   S    
C10   C13   S    
C12   C14   S    
O8    C4    A    
O24   H25   S    
C1    O11   A    
C8    C13   S    
C38   H22   S    
O15   V3    S    
C24   C26   A    
C31   H13   S    
C30   H12   S    
C11   C13   S    
C1    C28   S    
C17   C19   A    
C7    C14   S    
C32   C34   A    
O10   V2    S    
O1    V3    S    
C9    O21   S    
C17   C22   A    
O18   V4    S    
C37   H21   S    
C23   H9    S    
O16   C6    A    
O1    C3    A    
C12   H2    S    
V2    O20   S    
C38   H24   S    
C18   C20   A    
O16   V4    S    
C14   C16   S    
O5    V1    S    
C3    C34   S    
O17   C7    A    
C37   C38   S    
O6    V2    S    
O10   C6    A    
O18   C8    A    
O2    V4    S    
C9    C15   S    
O15   C5    A    
V3    O19   S    
V4    O20   S    
C19   C21   A    
C18   C21   A    
O9    C5    A    
O13   V1    S    
C10   C12   S    
C24   H10   S    
O14   V2    S    
O2    C4    A    
O4    V2    S    
C29   C34   A    
C40   O26   S    
C37   H20   S    
C32   H14   S    
C24   C27   A    
C39   O23   D    
O12   V4    S    
