data_mof_unit_41865.cif
_audit_creation_date              2012-10-26T20:18:18-0400
_audit_creation_method            fapswitch 2.2
_symmetry_space_group_name_H-M    P1
_symmetry_Int_Tables_number       1
_space_group_crystal_system       triclinic
_cell_length_a                    23.488565
_cell_length_b                    8.677667
_cell_length_c                    7.459302
_cell_angle_alpha                 103.150638
_cell_angle_beta                  94.65993
_cell_angle_gamma                 92.728487
_cell_volume                      1472.20845277

loop_
_atom_site_label
_atom_site_type_symbol
_atom_type_description
_atom_site_fract_x
_atom_site_fract_y
_atom_site_fract_z
_atom_type_partial_charge
C1    C     C_R   0.498254 0.199621 0.453051 0.525471
C2    C     C_R   0.695954 0.474834 0.324943 -0.155415
C3    C     C_R   0.244815 0.524673 0.679884 -0.052800
C4    C     C_R   0.755183 0.475178 0.320120 -0.052790
C5    C     C_R   0.209053 0.496359 0.514912 0.175457
C6    C     C_R   0.790947 0.503654 0.485099 0.175442
C7    C     C_2   0.497444 0.031536 0.426795 -0.120187
C8    C     C_2   0.502556 0.968464 0.573205 -0.120187
C9    C     C_R   0.390884 0.499085 0.501471 0.552058
C10   C     C_R   0.609116 0.500920 0.498530 0.552067
C11   C     C_R   0.883958 0.643987 0.524187 0.408985
C12   C     C_R   0.501746 0.800379 0.546949 0.525495
C13   C     C_R   0.116043 0.356025 0.475830 0.408989
C14   C     C_R   0.876269 0.360379 0.443671 0.409432
C15   C     C_R   0.123732 0.639633 0.556349 0.409434
C16   C     C_R   0.935977 0.356264 0.450069 0.030213
C17   C     C_R   0.064025 0.643747 0.549951 0.030210
C18   C     C_R   0.969915 0.500558 0.495461 -0.027508
C19   C     C_R   0.030086 0.499453 0.504560 -0.027509
C20   C     C_R   0.943824 0.645951 0.532111 0.028483
C21   C     C_R   0.056177 0.354060 0.467909 0.028481
C22   C     C_R   0.962432 0.211985 0.414131 -0.122769
C23   C     C_R   0.232523 0.468469 0.345200 -0.012336
C24   C     C_R   0.037569 0.788026 0.585889 -0.122770
C25   C     C_R   0.021945 0.210890 0.423007 -0.129462
C26   C     C_R   0.978056 0.789121 0.577013 -0.129460
C27   C     C_R   0.767478 0.531708 0.654814 -0.012348
C28   C     C_R   0.291619 0.469165 0.339209 0.369482
C29   C     C_R   0.708382 0.531012 0.660801 0.369467
C30   C     C_R   0.328162 0.497735 0.504867 0.006363
C31   C     C_R   0.671838 0.502277 0.495136 0.006386
C32   C     C_R   0.304044 0.525018 0.675057 -0.155432
Cu1   Cu    Cu3+1 0.506340 0.517380 0.684380 1.220157
Cu2   Cu    Cu3+1 0.493660 0.482620 0.315620 1.220157
F1    F     F_    0.312556 0.441326 0.171263 -0.598057
F2    F     F_    0.687446 0.559023 0.828747 -0.597955
F3    F     F_    0.444204 0.358337 0.925548 -0.519860
F4    F     F_    0.555796 0.641663 0.074452 -0.519816
H1    H     H_    0.937276 0.099553 0.379188 0.176911
H2    H     H_    0.773317 0.453437 0.188459 0.168514
H3    H     H_    0.492652 0.959406 0.285946 0.167351
H4    H     H_    0.507348 0.040594 0.714053 0.167344
H5    H     H_    0.062725 0.900458 0.620833 0.176908
H6    H     H_    0.040984 0.097649 0.394203 0.164998
H7    H     H_    0.959017 0.902362 0.605817 0.164999
H8    H     H_    0.204738 0.446850 0.217589 0.150720
H9    H     H_    0.795263 0.553455 0.782431 0.150770
H10   H     H_    0.330887 0.547256 0.804590 0.209313
H11   H     H_    0.669110 0.452466 0.195405 0.209164
H12   H     H_    0.226680 0.546286 0.811543 0.168537
N1    N     N_R   0.851707 0.502684 0.481442 -0.402626
N2    N     N_R   0.148293 0.497327 0.518575 -0.402633
N3    N     N_2   0.484110 0.456420 0.038520 0.184796
N4    N     N_2   0.515890 0.543580 0.961480 0.184802
O1    O     O_R   0.504120 0.286130 0.619770 -0.483454
O2    O     O_2   0.141909 0.218163 0.440656 -0.458248
O3    O     O_2   0.842989 0.223574 0.402255 -0.455107
O4    O     O_2   0.157013 0.776437 0.597769 -0.455093
O5    O     O_R   0.495880 0.713870 0.380230 -0.483437
O6    O     O_R   0.493410 0.256770 0.308360 -0.495475
O7    O     O_R   0.506590 0.743230 0.691640 -0.495453
O8    O     O_R   0.423230 0.514630 0.655730 -0.490949
O9    O     O_R   0.576770 0.485370 0.344270 -0.490939
O10   O     O_R   0.412530 0.485280 0.344320 -0.424500
O11   O     O_R   0.587470 0.514720 0.655680 -0.424521
O12   O     O_2   0.858093 0.781849 0.559353 -0.458254

loop_
_geom_bond_atom_site_label_1
_geom_bond_atom_site_label_2
_ccdc_geom_bond_type
Cu1   O1    S    
C2    C4    A    
C14   O3    S    
C5    N2    S    
N3    N4    D    
C2    H11   S    
C6    N1    S    
C27   C29   A    
C13   N2    A    
C14   N1    A    
C5    C23   A    
C11   O12   S    
C8    C12   S    
C13   O2    S    
F3    N3    S    
C28   C30   A    
Cu1   Cu2   S    
C1    O1    A    
Cu1   O11   S    
C7    C8    D    
C29   C31   A    
C23   H8    S    
C23   C28   A    
C30   C32   A    
C12   O7    A    
C32   H10   S    
C29   F2    S    
C6    C27   A    
C3    C32   A    
C20   C26   A    
C9    C30   S    
C22   H1    S    
C10   C31   S    
C25   H6    S    
Cu2   O10   S    
Cu2   O9    S    
C17   C19   A    
C3    H12   S    
C24   C26   A    
C18   C19   A    
C18   C20   A    
C7    H3    S    
Cu2   O5    S    
C15   O4    S    
C14   C16   A    
C11   C20   A    
C1    O6    A    
C17   C24   A    
C11   N1    A    
C13   C21   A    
C9    O8    A    
C9    O10   A    
C4    H2    S    
Cu2   N3    S    
Cu1   O7    S    
C4    C6    A    
C10   O11   A    
C27   H9    S    
Cu1   N4    S    
C15   C17   A    
C24   H5    S    
C21   C25   A    
Cu1   O8    S    
C16   C22   A    
C26   H7    S    
C19   C21   A    
C15   N2    A    
C1    C7    S    
C12   O5    A    
Cu2   O6    S    
C16   C18   A    
C10   O9    A    
C28   F1    S    
C8    H4    S    
C2    C31   A    
C3    C5    A    
C22   C25   A    
F4    N4    S    
