data_mof_unit_6871.cif
_audit_creation_date              2012-10-26T19:42:18-0400
_audit_creation_method            fapswitch 2.2
_symmetry_space_group_name_H-M    P1
_symmetry_Int_Tables_number       1
_space_group_crystal_system       triclinic
_cell_length_a                    9.604725
_cell_length_b                    10.777983
_cell_length_c                    17.341735
_cell_angle_alpha                 92.590909
_cell_angle_beta                  85.959742
_cell_angle_gamma                 90.036561
_cell_volume                      1788.91092955

loop_
_atom_site_label
_atom_site_type_symbol
_atom_type_description
_atom_site_fract_x
_atom_site_fract_y
_atom_site_fract_z
_atom_type_partial_charge
C1    C     C_R   0.499653 0.737410 0.502708 0.543168
C2    C     C_R   0.527268 0.499814 0.265694 0.012187
C3    C     C_R   0.337746 0.879755 0.625908 -0.109522
C4    C     C_R   0.481683 0.497443 0.649677 0.529373
C5    C     C_R   0.259254 0.948894 0.683335 -0.124831
C6    C     C_R   0.259250 0.077931 0.683269 -0.118915
C7    C     C_R   0.337622 0.138645 0.625732 -0.098435
C8    C     C_R   0.416216 0.070474 0.566070 0.028808
C9    C     C_R   0.416295 0.939215 0.566180 0.025538
C10   C     C_R   0.499138 0.871617 0.507981 0.002150
C11   C     C_R   0.584593 0.932583 0.453428 -0.147830
C12   C     C_R   0.342048 0.492012 0.775877 -0.086776
C13   C     C_R   0.584489 0.060571 0.453294 -0.153453
C14   C     C_R   0.498963 0.129526 0.507734 0.006462
C15   C     C_R   0.868999 0.335383 0.396855 -0.090349
C16   C     C_R   0.499656 0.262920 0.502347 0.525853
C17   C     C_R   0.947449 0.254877 0.346404 -0.176551
C18   C     C_R   0.090921 0.254638 0.346480 -0.170149
C19   C     C_R   0.156835 0.334915 0.397001 -0.085860
C20   C     C_R   0.081144 0.418922 0.449357 0.156936
C21   C     C_R   0.931613 0.419060 0.449326 0.158583
C22   C     C_R   0.920062 0.576973 0.548269 -0.002624
C23   C     C_R   0.411138 0.505561 0.146676 -0.109277
C24   C     C_R   0.067920 0.576949 0.548247 -0.002137
C25   C     C_R   0.518237 0.499879 0.350202 0.533642
C26   C     C_R   0.471838 0.484648 0.733446 -0.021980
C27   C     C_R   0.592329 0.459099 0.770982 -0.139623
C28   C     C_R   0.583938 0.443231 0.849987 -0.130913
C29   C     C_R   0.455168 0.454489 0.893282 0.047737
C30   C     C_R   0.332640 0.476776 0.855496 0.112654
C31   C     C_R   0.404488 0.506238 0.226775 -0.133506
C32   C     C_R   0.657209 0.493841 0.223220 -0.135193
C33   C     C_R   0.663749 0.493054 0.142722 -0.116522
C34   C     C_R   0.540763 0.496831 0.104073 0.043544
C35   C     C_2   0.449421 0.446550 0.977753 -0.140659
C36   C     C_2   0.550213 0.495478 0.019344 -0.138604
Cu1   Cu    Cu3+1 0.359340 0.500010 0.500010 0.913456
Cu2   Cu    Cu3+1 0.640660 0.499990 0.499990 0.925724
H1    H     H_    0.693349 0.450100 0.739272 0.139774
H2    H     H_    0.896196 0.192070 0.306984 0.115333
H3    H     H_    0.302908 0.512520 0.258091 0.132703
H4    H     H_    0.151947 0.191648 0.307103 0.121182
H5    H     H_    0.267170 0.326781 0.392324 0.184253
H6    H     H_    0.753441 0.489343 0.252011 0.128250
H7    H     H_    0.314757 0.513994 0.118543 0.100735
H8    H     H_    0.247740 0.510263 0.747437 0.142044
H9    H     H_    0.358101 0.404834 0.006362 0.117473
H10   H     H_    0.678608 0.421667 0.877105 0.113265
H11   H     H_    0.199727 0.131339 0.728590 0.117679
H12   H     H_    0.764601 0.487924 0.110532 0.102295
H13   H     H_    0.118100 0.640069 0.587826 0.110437
H14   H     H_    0.642364 0.536390 0.990824 0.120580
H15   H     H_    0.202901 0.557816 0.940216 0.230874
H16   H     H_    0.175326 0.403741 0.922730 0.222067
H17   H     H_    0.649348 0.880556 0.409549 0.129888
H18   H     H_    0.338174 0.779984 0.629969 0.127078
H19   H     H_    0.199697 0.902145 0.728695 0.112286
H20   H     H_    0.337790 0.238957 0.629651 0.145338
H21   H     H_    0.649163 0.106078 0.409304 0.110624
H22   H     H_    0.859963 0.640118 0.587859 0.118803
H23   H     H_    0.759867 0.327716 0.392068 0.178425
N1    N     N_R   0.852190 0.498790 0.499250 -0.244917
N2    N     N_R   0.148060 0.498710 0.499220 -0.244493
N3    N     N_3   0.198330 0.487697 0.896796 -0.654312
O1    O     O_R   0.381190 0.680360 0.500010 -0.499234
O2    O     O_R   0.618760 0.680340 0.500000 -0.496705
O3    O     O_R   0.367440 0.500030 0.613600 -0.523778
O4    O     O_R   0.605010 0.500010 0.613590 -0.501114
O5    O     O_R   0.381240 0.319660 0.500000 -0.526594
O6    O     O_R   0.618810 0.319640 0.499990 -0.514651
O7    O     O_R   0.394990 0.499990 0.386410 -0.522892
O8    O     O_R   0.632560 0.499970 0.386400 -0.524804

loop_
_geom_bond_atom_site_label_1
_geom_bond_atom_site_label_2
_ccdc_geom_bond_type
C8    C9    A    
C4    O3    A    
C4    C26   S    
Cu2   O6    S    
C6    C7    A    
C3    C9    A    
Cu1   O5    S    
C22   N1    A    
C9    C10   A    
C29   C35   S    
C7    H20   S    
C1    O1    A    
C19   C20   A    
C36   H14   S    
C5    H19   S    
C23   C34   A    
C35   H9    S    
C32   C33   A    
C24   H13   S    
C18   H4    S    
C17   C18   A    
C15   H23   S    
C11   H17   S    
C7    C8    A    
C12   C30   A    
Cu2   O8    S    
C13   C14   A    
C11   C13   A    
C26   C27   A    
C29   C30   A    
C25   O8    A    
C23   H7    S    
C20   N2    A    
C25   O7    A    
C5    C6    A    
Cu1   O3    S    
C22   C24   A    
C2    C32   A    
C28   C29   A    
Cu1   N2    S    
Cu1   Cu2   S    
C19   H5    S    
C1    O2    A    
C2    C25   S    
C34   C36   S    
Cu1   O7    S    
C6    H11   S    
C22   H22   S    
C33   C34   A    
H15   N3    S    
C14   C16   S    
C24   N2    A    
C10   C11   A    
C1    C10   S    
C27   H1    S    
C33   H12   S    
C3    H18   S    
C3    C5    A    
C15   C21   A    
C16   O6    A    
C20   C21   A    
H16   N3    S    
C12   H8    S    
C30   N3    S    
C32   H6    S    
C12   C26   A    
C27   C28   A    
C15   C17   A    
C18   C19   A    
C8    C14   A    
C31   H3    S    
C21   N1    A    
C13   H21   S    
C4    O4    A    
C17   H2    S    
C28   H10   S    
C16   O5    A    
Cu2   O2    S    
Cu1   O1    S    
Cu2   O4    S    
C2    C31   A    
Cu2   N1    S    
C35   C36   D    
C23   C31   A    
