data_mof_unit_48792.cif
_audit_creation_date              2013-03-05T16:01:37-0500
_audit_creation_method            fapswitch 2.2
_symmetry_space_group_name_H-M    P1
_symmetry_Int_Tables_number       1
_space_group_crystal_system       triclinic
_cell_length_a                    14.858031
_cell_length_b                    14.759998
_cell_length_c                    23.457277
_cell_angle_alpha                 75.133699
_cell_angle_beta                  102.90323
_cell_angle_gamma                 115.453495
_cell_volume                      4451.65400271

loop_
_atom_site_label
_atom_site_type_symbol
_atom_site_description
_atom_site_fract_x
_atom_site_fract_y
_atom_site_fract_z
_atom_type_partial_charge
O1    O     O_R   0.977900 0.338110 0.520250 -0.561999
O2    O     O_R   0.022100 0.661890 0.479750 -0.547551
O3    O     O_R   0.839850 0.379180 0.494310 -0.559840
O4    O     O_R   0.160150 0.620820 0.505690 -0.551619
C1    C     C_R   0.880554 0.312079 0.508447 0.818865
C2    C     C_R   0.119278 0.687768 0.492291 0.823173
O5    O     O_R   0.069020 0.479430 0.595090 -0.582386
O6    O     O_R   0.930980 0.520570 0.404910 -0.598537
O7    O     O_R   0.930970 0.520500 0.569150 -0.555570
O8    O     O_R   0.069030 0.479500 0.430850 -0.550089
C3    C     C_R   0.001175 0.501450 0.608668 0.783860
C4    C     C_R   0.000308 0.500802 0.391335 0.833547
Cu1   Cu    Cu3+1 0.081740 0.475680 0.515360 0.964558
Cu2   Cu    Cu3+1 0.918260 0.524320 0.484640 0.964839
C5    C     C_R   0.954048 0.563139 0.104553 0.516589
C6    C     C_R   0.018875 0.431599 0.894553 0.507603
N1    N     N_R   0.989053 0.499770 0.147306 -0.451220
N2    N     N_R   0.996879 0.502680 0.851018 -0.452977
C7    C     C_R   0.016024 0.431321 0.133939 0.532401
C8    C     C_R   0.967963 0.570710 0.863417 0.542176
C9    C     C_R   0.011170 0.425384 0.074200 -0.057308
C10   C     C_R   0.953088 0.564685 0.922220 -0.048829
C11   C     C_R   0.983255 0.496934 0.028646 -0.088170
C12   C     C_R   0.986927 0.498976 0.968591 -0.079985
C13   C     C_R   0.951528 0.565673 0.043146 -0.065007
C14   C     C_R   0.025635 0.435558 0.954776 -0.076898
C15   C     C_R   0.038450 0.354202 0.058562 0.162489
C16   C     C_R   0.906883 0.622140 0.935964 0.121389
C17   C     C_R   0.064870 0.374347 0.001118 0.125606
C18   C     C_R   0.917018 0.632051 0.996170 0.104442
O9    O     O_2   0.921687 0.622170 0.122641 -0.567559
O10   O     O_2   0.030240 0.355466 0.879123 -0.566562
O11   O     O_2   0.051168 0.372492 0.178955 -0.565882
O12   O     O_2   0.955768 0.644443 0.818802 -0.566736
C19   C     C_R   0.913230 0.452053 0.755683 -0.139992
C20   C     C_R   0.915412 0.432611 0.239964 -0.142107
H1    H     H_    0.843432 0.411132 0.774855 0.141717
H2    H     H_    0.851244 0.377397 0.217747 0.144137
C21   C     C_R   0.914202 0.451737 0.696709 -0.268031
C22   C     C_R   0.917956 0.432532 0.299471 -0.295219
H3    H     H_    0.845188 0.408851 0.671335 0.149045
H4    H     H_    0.855634 0.377078 0.322902 0.154876
C23   C     C_R   0.003587 0.503756 0.671153 -0.097786
C24   C     C_R   0.000522 0.502694 0.328842 -0.049713
C25   C     C_R   0.093888 0.557085 0.705613 0.087889
C26   C     C_R   0.080731 0.575864 0.298178 0.081314
C27   C     C_R   0.093034 0.557531 0.765628 0.193773
C28   C     C_R   0.079007 0.576092 0.237407 0.164801
C29   C     C_R   0.001576 0.504098 0.790342 0.302803
C30   C     C_R   0.995005 0.503156 0.208773 0.332070
C31   C     C_R   0.812920 0.203408 0.510019 -0.084225
C32   C     C_R   0.186200 0.795354 0.495025 -0.116210
C33   C     C_R   0.775149 0.029902 0.500219 0.109136
C34   C     C_R   0.222339 0.962816 0.514412 0.110107
C35   C     C_R   0.844349 0.131787 0.500305 0.101647
C36   C     C_R   0.152872 0.864263 0.506481 0.148367
C37   C     C_R   0.712587 0.173789 0.517141 -0.308876
C38   C     C_R   0.288033 0.825455 0.491959 -0.299858
C39   C     C_R   0.640162 0.074760 0.512878 0.037941
C40   C     C_R   0.360413 0.920149 0.504486 0.061734
C41   C     C_R   0.673386 0.001870 0.505709 0.130872
C42   C     C_R   0.326314 0.990899 0.513729 0.085486
C43   C     C_R   0.535543 0.046779 0.514284 0.090342
C44   C     C_R   0.465592 0.946305 0.507412 0.093531
C45   C     C_R   0.503135 0.874293 0.505030 -0.247182
C46   C     C_R   0.498194 0.115959 0.521666 -0.208754
C47   C     C_R   0.604245 0.901785 0.503628 -0.186277
C48   C     C_R   0.396573 0.088105 0.522232 -0.226893
H5    H     H_    0.627645 0.843356 0.500355 0.188486
H6    H     H_    0.373896 0.144769 0.528930 0.146425
H7    H     H_    0.308736 0.772712 0.479256 0.177390
H8    H     H_    0.693002 0.231202 0.524927 0.173286
H9    H     H_    0.456604 0.794726 0.505154 0.148580
H10   H     H_    0.545135 0.192887 0.527804 0.137430
N3    N     N_R   0.795430 0.560810 0.461550 -0.186952
N4    N     N_R   0.204570 0.439190 0.538450 -0.193765
C49   C     C_R   0.705794 0.663068 0.398471 0.010033
C50   C     C_R   0.309256 0.382469 0.621702 0.036396
C51   C     C_R   0.786893 0.631817 0.410204 0.275025
C52   C     C_R   0.212899 0.373614 0.591323 0.265990
C53   C     C_R   0.721990 0.517837 0.498973 0.274516
C54   C     C_R   0.285787 0.493050 0.507653 0.262936
C55   C     C_R   0.634108 0.542004 0.484467 -0.090429
C56   C     C_R   0.377728 0.477205 0.528368 -0.109704
C57   C     C_R   0.622974 0.602672 0.428718 0.059388
C58   C     C_R   0.391915 0.431814 0.588826 0.073468
C59   C     C_R   0.553817 0.506559 0.520216 0.108170
C60   C     C_R   0.457924 0.509550 0.493320 0.107990
C61   C     C_R   0.444615 0.540553 0.431551 -0.240343
C62   C     C_R   0.567799 0.476274 0.581957 -0.251340
C63   C     C_R   0.526632 0.594319 0.400945 -0.203610
C64   C     C_R   0.488340 0.436050 0.614992 -0.184665
H11   H     H_    0.513350 0.624443 0.354047 0.137842
H12   H     H_    0.505176 0.409607 0.661853 0.156215
H13   H     H_    0.371948 0.525659 0.405891 0.139592
H14   H     H_    0.640544 0.486312 0.606475 0.143539
C65   C     C_3   0.031528 0.252880 0.099365 -0.342206
C66   C     C_3   0.924509 0.187076 0.114297 -0.798881
H15   H     H_    0.899108 0.224501 0.139113 0.269232
H16   H     H_    0.871738 0.171920 0.072751 0.239269
H17   H     H_    0.921697 0.112955 0.142240 0.235417
H18   H     H_    0.050580 0.206134 0.077723 0.187688
H19   H     H_    0.086341 0.264108 0.140203 0.241183
C67   C     C_3   0.838795 0.664535 0.887793 -0.340690
C68   C     C_3   0.748520 0.579363 0.861268 -0.789222
H20   H     H_    0.771726 0.537258 0.838491 0.264431
H21   H     H_    0.703953 0.524508 0.896972 0.237954
H22   H     H_    0.699529 0.612692 0.828190 0.233652
H23   H     H_    0.805410 0.704651 0.904485 0.188669
H24   H     H_    0.881355 0.723940 0.852939 0.240550
N5    N     N_3   0.807128 0.955050 0.492860 -0.619653
H25   H     H_    0.838520 0.980402 0.453175 0.217774
H26   H     H_    0.862311 0.948242 0.528139 0.224204
N6    N     N_3   0.185473 0.031947 0.524621 -0.628999
H27   H     H_    0.204196 0.096899 0.491224 0.220094
H28   H     H_    0.219593 0.052991 0.565950 0.215031
N7    N     N_3   0.280261 0.574644 0.460284 -0.530581
H29   H     H_    0.350432 0.635116 0.456731 0.190335
H30   H     H_    0.249063 0.546801 0.420713 0.227738
N8    N     N_3   0.726463 0.434905 0.545504 -0.541290
H31   H     H_    0.755273 0.460898 0.585659 0.206906
H32   H     H_    0.655370 0.375550 0.547826 0.185275
C69   C     C_3   0.123485 0.277259 0.610711 -0.368275
C70   C     C_3   0.070560 0.284710 0.657363 -0.743284
H33   H     H_    0.999488 0.293632 0.636485 0.250677
H34   H     H_    0.050133 0.212905 0.690789 0.216001
H35   H     H_    0.119476 0.348814 0.681163 0.250636
H36   H     H_    0.070736 0.249455 0.572195 0.237981
H37   H     H_    0.148923 0.213550 0.628935 0.147819
C71   C     C_3   0.845428 0.661126 0.357438 -0.294932
C72   C     C_3   0.953367 0.741394 0.363632 -0.730421
H38   H     H_    0.966169 0.784621 0.398975 0.257186
H39   H     H_    0.008876 0.706678 0.371831 0.254180
H40   H     H_    0.968260 0.797046 0.321251 0.198468
H41   H     H_    0.837407 0.593479 0.341855 0.200338
H42   H     H_    0.807118 0.693063 0.316551 0.161240
C73   C     C_3   0.704629 0.759643 0.354227 -0.388258
C74   C     C_3   0.799880 0.855017 0.363826 -0.817674
H43   H     H_    0.834918 0.848502 0.410930 0.258368
H44   H     H_    0.854721 0.867854 0.334473 0.249381
H45   H     H_    0.781289 0.923433 0.351904 0.235335
H46   H     H_    0.690085 0.748332 0.307522 0.183297
H47   H     H_    0.642091 0.777531 0.359893 0.211738
C75   C     C_3   0.322552 0.337759 0.688020 -0.417506
C76   C     C_3   0.367437 0.421829 0.725366 -0.819791
H48   H     H_    0.440438 0.480503 0.712006 0.252862
H49   H     H_    0.314785 0.459533 0.720187 0.250030
H50   H     H_    0.379611 0.387981 0.773026 0.239548
H51   H     H_    0.251192 0.283168 0.704905 0.222594
H52   H     H_    0.369204 0.292516 0.697050 0.191245
C77   C     C_3   0.145203 0.342523 0.991646 -0.356707
C78   C     C_3   0.240157 0.375179 0.036611 -0.892685
H53   H     H_    0.267879 0.457929 0.037142 0.259926
H54   H     H_    0.226415 0.331344 0.082054 0.252381
H55   H     H_    0.299918 0.361116 0.023710 0.248236
H56   H     H_    0.114687 0.259104 0.992739 0.209220
H57   H     H_    0.172592 0.381123 0.947992 0.243255
C79   C     C_3   0.900207 0.720089 0.008521 -0.341842
C80   C     C_3   0.794157 0.687447 0.024065 -0.726882
H58   H     H_    0.737996 0.681758 0.983739 0.212499
H59   H     H_    0.769087 0.612034 0.053994 0.275934
H60   H     H_    0.793634 0.745106 0.046330 0.235401
H61   H     H_    0.958650 0.756411 0.043677 0.228853
H62   H     H_    0.914755 0.784892 0.970376 0.160368
N9    N     N_3   0.186261 0.613170 0.680106 -0.598810
H63   H     H_    0.207952 0.561998 0.668972 0.239046
H64   H     H_    0.174506 0.663358 0.641563 0.220838
N10   N     N_3   0.160503 0.651590 0.328748 -0.619699
H65   H     H_    0.229289 0.651475 0.325263 0.223438
H66   H     H_    0.159617 0.723145 0.308598 0.210972
C81   C     C_3   0.189401 0.615164 0.802593 -0.375299
C82   C     C_3   0.213689 0.729469 0.788701 -0.785544
H67   H     H_    0.223698 0.761114 0.741135 0.265543
H68   H     H_    0.152372 0.744208 0.799033 0.274261
H69   H     H_    0.284462 0.769462 0.816335 0.229126
H70   H     H_    0.184673 0.587925 0.850935 0.191525
H71   H     H_    0.252740 0.601584 0.793951 0.214808
C83   C     C_3   0.165857 0.652107 0.203607 -0.412158
C84   C     C_3   0.246192 0.610595 0.209482 -0.820596
H72   H     H_    0.273720 0.589429 0.256935 0.243573
H73   H     H_    0.215740 0.542552 0.188178 0.281523
H74   H     H_    0.310746 0.669854 0.186937 0.233603
H75   H     H_    0.139522 0.671227 0.155738 0.211691
H76   H     H_    0.200619 0.725762 0.219607 0.195741
N11   N     N_3   0.049050 0.833294 0.512071 -0.568096
H77   H     H_    0.021713 0.883586 0.481153 0.223816
H78   H     H_    0.044471 0.839311 0.554695 0.233649
N12   N     N_3   0.944512 0.163820 0.487151 -0.593038
H79   H     H_    0.940407 0.154014 0.443937 0.218686
H80   H     H_    0.978420 0.117820 0.516707 0.211618

loop_
_geom_bond_atom_site_label_1
_geom_bond_atom_site_label_2
_geom_bond_distance
_ccdc_geom_bond_type
C46   C48   1.386192 A    
C81   C82   1.526421 S    
N9    H63   1.044313 S    
C15   C17   1.410163 A    
C33   C35   1.410760 A    
C55   C59   1.444053 A    
C71   H41   1.100146 S    
C59   C60   1.438159 A    
C72   H40   1.111299 S    
N11   H78   1.045626 S    
C28   C83   1.519409 S    
C83   C84   1.526771 S    
C57   C63   1.400608 A    
C69   C70   1.532464 S    
C21   H3    1.081323 S    
N8    H31   1.040110 S    
O5    C3    1.304359 A    
C68   H21   1.111025 S    
C53   N8    1.430413 S    
C26   N10   1.435724 S    
C68   H20   1.107874 S    
O1    C1    1.309326 A    
C77   H57   1.107361 S    
N12   H80   1.044972 S    
C19   H1    1.083081 S    
C49   C73   1.537335 S    
N7    H30   1.041719 S    
C67   H23   1.099156 S    
C50   C52   1.416295 A    
C38   H7    1.074828 S    
C37   C39   1.406911 A    
C63   H11   1.083668 S    
C38   C40   1.404997 A    
C46   H10   1.074607 S    
C65   C66   1.530061 S    
C45   H9    1.076313 S    
C40   C42   1.419208 A    
C25   C27   1.412385 A    
O4    Cu1   1.929103 S    
C41   C47   1.396485 A    
C75   H52   1.109501 S    
C76   H49   1.110644 S    
C33   C41   1.412720 A    
N5    H25   1.043684 S    
C24   C26   1.407806 A    
C45   C47   1.383426 A    
C19   C29   1.396873 A    
C77   C78   1.532008 S    
C80   H59   1.109074 S    
C3    C23   1.466938 S    
C31   C37   1.398194 A    
C61   C63   1.377433 A    
C31   C35   1.408163 A    
C65   H18   1.107133 S    
C82   H69   1.110293 S    
C79   H62   1.109825 S    
C84   H74   1.110281 S    
C8    O12   1.346424 S    
C33   N5    1.435928 S    
C28   C30   1.417581 A    
C9    C15   1.425804 A    
C43   C46   1.414666 A    
C49   C57   1.390971 A    
N9    H64   1.045787 S    
C10   C16   1.426164 A    
Cu1   Cu2   2.717800 S    
C69   H37   1.112172 S    
C27   C81   1.517459 S    
O2    C2    1.308094 A    
C81   H71   1.111364 S    
C67   C68   1.531636 S    
C53   C55   1.444862 A    
C82   H68   1.109994 S    
C40   C44   1.429354 A    
C76   H48   1.108979 S    
C26   C28   1.419180 A    
C49   C51   1.415977 A    
C6    C14   1.408222 A    
C32   C38   1.395086 A    
C68   H22   1.110672 S    
C34   C36   1.406588 A    
C39   C41   1.419796 A    
C73   H46   1.109943 S    
C56   C60   1.439013 A    
C20   C22   1.387635 A    
C27   C29   1.414450 A    
C7    O11   1.347087 S    
N4    C54   1.371164 A    
N3    C53   1.382311 A    
C21   C23   1.398427 A    
C34   C42   1.419828 A    
C72   H39   1.105272 S    
C77   H56   1.109672 S    
C51   C71   1.535639 S    
C62   H14   1.072095 S    
C74   H45   1.111115 S    
C43   C44   1.424250 A    
N12   H79   1.045124 S    
C47   H5    1.083575 S    
C61   H13   1.072370 S    
C19   C21   1.387883 A    
O7    Cu2   1.937329 S    
C75   H51   1.104430 S    
C50   C75   1.530538 S    
C17   C77   1.532504 S    
C23   C25   1.416853 A    
C16   C67   1.537067 S    
Cu1   N4    2.041530 S    
C62   C64   1.384483 A    
C80   H58   1.107316 S    
C78   H55   1.110755 S    
C22   C24   1.395955 A    
O6    C4    1.303883 A    
C64   H12   1.078981 S    
C80   H60   1.110269 S    
N5    H26   1.045132 S    
C6    N2    1.358792 A    
C35   N12   1.434910 S    
C36   N11   1.434987 S    
C5    O9    1.345847 S    
O7    C3    1.308797 A    
C65   H19   1.106978 S    
O3    Cu2   1.929102 S    
O8    C4    1.305501 A    
C79   H61   1.108340 S    
C70   H35   1.110804 S    
O4    C2    1.309659 A    
N10   H65   1.044076 S    
C55   C57   1.403261 A    
C78   H54   1.107388 S    
C54   C56   1.441109 A    
C9    C11   1.424309 A    
C79   C80   1.536811 S    
C10   C12   1.417802 A    
O1    Cu1   1.945075 S    
C8    C10   1.419767 A    
C72   H38   1.107831 S    
C76   H50   1.110378 S    
C20   C30   1.398248 A    
C82   H67   1.110049 S    
N8    H32   1.045008 S    
C70   H34   1.110657 S    
C81   H70   1.108975 S    
C13   C18   1.436160 A    
C18   C79   1.529486 S    
C15   C65   1.529863 S    
O6    Cu2   1.938191 S    
C7    C9    1.410330 A    
C71   H42   1.104939 S    
C83   H75   1.108921 S    
C56   C58   1.415945 A    
C22   H4    1.083738 S    
O3    C1    1.308963 A    
O8    Cu1   1.937332 S    
N1    C30   1.437178 S    
N6    H28   1.045480 S    
N4    C52   1.381593 A    
N6    H27   1.045412 S    
C74   H44   1.106726 S    
C6    O10   1.349576 S    
C66   H17   1.110515 S    
C73   C74   1.530740 S    
C39   C43   1.432492 A    
C42   C48   1.398050 A    
C75   C76   1.528904 S    
C44   C45   1.413526 A    
C16   C18   1.425024 A    
C71   C72   1.532269 S    
C4    C24   1.459697 S    
C58   C64   1.408254 A    
N7    H29   1.044684 S    
Cu2   N3    2.041531 S    
C20   H2    1.083010 S    
C67   H24   1.106164 S    
C12   C14   1.419008 A    
C50   C58   1.414022 A    
N11   H77   1.045644 S    
N3    C51   1.401244 A    
C34   N6    1.436285 S    
N10   H66   1.045018 S    
N1    C7    1.358787 A    
N2    C8    1.361577 A    
C11   C13   1.423752 A    
C37   H8    1.072972 S    
C73   H47   1.111223 S    
O2    Cu2   1.945075 S    
C66   H16   1.111027 S    
C5    C13   1.423779 A    
C74   H43   1.110286 S    
C11   C12   1.414055 A    
C84   H72   1.109945 S    
O5    Cu1   1.938189 S    
C60   C61   1.399118 A    
C14   C17   1.415454 A    
C48   H6    1.082131 S    
C66   H15   1.108493 S    
C59   C62   1.397768 A    
C69   H36   1.093833 S    
C1    C31   1.478078 S    
C78   H53   1.111168 S    
C54   N7    1.431569 S    
C2    C32   1.476836 S    
C5    N1    1.361973 A    
C25   N9    1.436320 S    
C83   H76   1.108901 S    
C32   C36   1.408715 A    
N2    C29   1.434888 S    
C70   H33   1.108041 S    
C84   H73   1.108627 S    
C52   C69   1.519315 S    
