data_mof_unit_8860.cif
_audit_creation_date              2013-03-05T15:40:16-0500
_audit_creation_method            fapswitch 2.2
_symmetry_space_group_name_H-M    P1
_symmetry_Int_Tables_number       1
_space_group_crystal_system       triclinic
_cell_length_a                    10.83235
_cell_length_b                    8.725441
_cell_length_c                    7.403363
_cell_angle_alpha                 103.1231
_cell_angle_beta                  92.88409
_cell_angle_gamma                 92.684333
_cell_volume                      679.384647104

loop_
_atom_site_label
_atom_site_type_symbol
_atom_site_description
_atom_site_fract_x
_atom_site_fract_y
_atom_site_fract_z
_atom_type_partial_charge
O1    O     O_R   0.509050 0.286130 0.619770 -0.612236
O2    O     O_R   0.485540 0.256780 0.308360 -0.536474
C1    C     C_R   0.492832 0.199840 0.453076 0.801857
O3    O     O_R   0.331410 0.514680 0.655740 -0.611697
O4    O     O_R   0.307900 0.485330 0.344330 -0.586677
C2    C     C_R   0.261724 0.495098 0.504939 0.789452
Cu1   Cu    Cu3+1 0.513920 0.517380 0.684380 1.039927
Cu2   Cu    Cu3+1 0.486080 0.482620 0.315620 1.032578
O5    O     O_R   0.514460 0.743220 0.691640 -0.515362
O6    O     O_R   0.490950 0.713870 0.380230 -0.550954
O7    O     O_R   0.692100 0.514670 0.655670 -0.572756
O8    O     O_R   0.668590 0.485320 0.344260 -0.621124
C3    C     C_R   0.499351 0.799977 0.546506 0.973347
C4    C     C_R   0.737902 0.511547 0.496353 0.847968
H1    H     H_    0.103379 0.384303 0.221591 0.193377
C5    C     C_R   0.123085 0.592187 0.859023 -0.104617
H2    H     H_    0.207295 0.541429 0.892782 0.181201
C6    C     C_R   0.065737 0.680489 0.008888 -0.174479
H3    H     H_    0.108535 0.699651 0.148010 0.206336
C7    C     C_R   0.956646 0.750600 0.979233 -0.204089
H4    H     H_    0.919829 0.830896 0.094975 0.204530
C8    C     C_R   0.897304 0.720552 0.801139 0.349308
C9    C     C_R   0.944512 0.607129 0.654176 -0.005369
C10   C     C_R   0.067116 0.563307 0.676378 0.055329
C11   C     C_R   0.126981 0.492872 0.514369 -0.113777
C12   C     C_R   0.057933 0.438860 0.345317 -0.177092
C13   C     C_R   0.931629 0.454752 0.329992 -0.048724
C14   C     C_R   0.872579 0.532863 0.488669 -0.146881
C15   C     C_2   0.475978 0.032516 0.425252 0.140432
C16   C     C_2   0.499956 0.967420 0.569659 -0.392446
H5    H     H_    0.528911 0.039133 0.706890 0.207303
N1    N     N_2   0.465100 0.456430 0.038520 -0.213452
H6    H     H_    0.403065 0.378990 0.948680 0.223913
N2    N     N_2   0.534900 0.543570 0.961480 -0.191871
H7    H     H_    0.596959 0.621017 0.051298 0.248857
N3    N     N_R   0.799385 0.818144 0.766728 0.122086
O9    O     O_R   0.788319 0.858412 0.608059 -0.396347
O10   O     O_R   0.736964 0.890510 0.903140 -0.319456
C17   C     C_2   0.867340 0.393808 0.143396 0.426149
H8    H     H_    0.794972 0.457767 0.092776 0.091670
O11   O     O_2   0.898398 0.273479 0.040425 -0.496085
N4    N     N_R   0.427168 0.943143 0.245651 0.145820
O12   O     O_R   0.483556 0.952279 0.097050 -0.308065
O13   O     O_R   0.317358 0.872533 0.228516 -0.381410

loop_
_geom_bond_atom_site_label_1
_geom_bond_atom_site_label_2
_geom_bond_distance
_ccdc_geom_bond_type
O4    Cu2   1.953030 S    
C9    C10   1.411092 A    
C15   C16   1.339648 D    
C15   N4    1.440637 S    
C8    N3    1.439096 S    
Cu2   O8    1.976178 S    
N1    H6    1.029042 S    
N3    O10   1.301903 A    
O2    C1    1.279769 A    
O8    C4    1.290655 A    
Cu1   Cu2   2.677456 S    
C5    C10   1.417016 A    
C5    C6    1.391604 A    
C9    C14   1.422858 A    
C10   C11   1.420456 A    
Cu1   O7    1.953031 S    
C12   C13   1.383219 A    
O4    C2    1.299664 A    
N4    O13   1.300481 A    
O3    Cu1   1.976177 S    
O3    C2    1.289156 A    
N3    O9    1.301877 A    
Cu1   N2    2.011902 S    
C7    C8    1.400837 A    
C6    H3    1.081764 S    
C6    C7    1.386173 A    
C16   H5    1.087656 S    
O7    C4    1.297548 A    
C2    C11   1.464189 S    
N4    O12   1.301026 A    
Cu2   N1    2.011902 S    
Cu1   O5    1.958774 S    
C3    C16   1.431525 S    
C13   C14   1.416539 A    
C7    H4    1.082638 S    
C17   O11   1.221526 D    
Cu2   O6    1.962690 S    
N2    H7    1.029151 S    
C17   H8    1.082952 S    
C1    C15   1.428977 S    
O5    C3    1.287662 A    
C8    C9    1.427998 A    
H1    C12   1.085045 S    
C4    C14   1.467603 S    
C11   C12   1.397449 A    
O1    Cu1   1.962692 S    
O2    Cu2   1.958776 S    
C13   C17   1.486961 S    
C5    H2    1.075121 S    
O1    C1    1.290199 A    
O6    C3    1.284707 A    
N1    N2    1.289018 D    
