data_mof_unit_26077.cif
_audit_creation_date              2012-12-11T14:08:25-0500
_audit_creation_method            fapswitch 2.2
_symmetry_space_group_name_H-M    P1
_symmetry_Int_Tables_number       1
_space_group_crystal_system       triclinic
_cell_length_a                    10.926878
_cell_length_b                    10.951934
_cell_length_c                    18.773119
_cell_angle_alpha                 89.916023
_cell_angle_beta                  89.821184
_cell_angle_gamma                 60.337598
_cell_volume                      1952.17721883

loop_
_atom_site_label
_atom_site_type_symbol
_atom_type_description
_atom_site_fract_x
_atom_site_fract_y
_atom_site_fract_z
_atom_type_partial_charge
C1    C     C_R   0.237511 0.644748 0.608998 0.546111
C2    C     C_3   0.693814 0.535333 0.801406 -0.249394
C3    C     C_3   0.696828 0.672811 0.813662 0.053081
C4    C     C_3   0.667222 0.644885 0.678307 0.054176
C5    C     C_3   0.799407 0.658730 0.689655 -0.255525
C6    C     C_3   0.682711 0.515977 0.721306 -0.217684
C7    C     C_2   0.677476 0.147894 0.668384 0.100765
C8    C     C_2   0.689530 0.171738 0.829563 -0.118430
C9    C     C_2   0.798222 0.118068 0.783593 -0.173834
C10   C     C_2   0.776266 0.156433 0.707777 -0.161877
C11   C     C_2   0.185981 0.658887 0.682034 -0.135592
C12   C     C_R   0.651925 0.619648 0.602775 0.545986
C13   C     C_2   0.195239 0.663568 0.839400 -0.079766
C14   C     C_2   0.209649 0.552636 0.801401 0.052616
C15   C     C_2   0.239166 0.544501 0.724310 -0.163765
C16   C     C_2   0.669130 0.681963 0.330864 0.099319
C17   C     C_2   0.669351 0.677323 0.171098 -0.073786
C18   C     C_2   0.781302 0.626613 0.214903 -0.120366
C19   C     C_2   0.773345 0.594296 0.288322 -0.100788
C20   C     C_2   0.669782 0.137520 0.334601 -0.068182
C21   C     C_2   0.645403 0.163293 0.172768 0.105621
C22   C     C_2   0.631325 0.078218 0.219514 -0.117818
C23   C     C_R   0.628589 0.226337 0.601532 0.581330
C24   C     C_2   0.580674 0.125495 0.290039 0.069482
C25   C     C_2   0.178005 0.666862 0.329290 0.129964
C26   C     C_2   0.189289 0.639561 0.170544 -0.111511
C27   C     C_2   0.233956 0.710777 0.208951 -0.174332
C28   C     C_2   0.269042 0.673052 0.282398 -0.134613
C29   C     C_R   0.703049 0.103449 0.898049 0.544219
C30   C     C_R   0.722137 0.687505 0.889045 0.543907
C31   C     C_R   0.119230 0.706417 0.907419 0.556150
C32   C     C_R   0.673023 0.112991 0.101568 0.598694
C33   C     C_R   0.697272 0.690773 0.097256 0.544082
C34   C     C_R   0.220942 0.650025 0.401978 0.605066
C35   C     C_R   0.100404 0.704778 0.110077 0.548846
C36   C     C_R   0.644589 0.626559 0.395935 0.556583
C37   C     C_R   0.619120 0.225053 0.396897 0.567858
C38   C     C_3   0.555493 0.797621 0.786868 -0.238403
C39   C     C_3   0.536176 0.778924 0.707405 -0.237270
C40   C     C_3   0.819947 0.669801 0.769810 -0.221866
Cr1   Cr    Cr6+3 0.393010 0.398050 0.501480 1.037152
Cr2   Cr    Cr6+3 0.398820 0.707980 0.501630 1.011494
Cr3   Cr    Cr6+3 0.708140 0.393940 0.496850 1.012290
Cr4   Cr    Cr6+3 0.937950 0.938450 0.008940 1.026748
Cr5   Cr    Cr6+3 0.626180 0.937030 0.994750 1.013894
Cr6   Cr    Cr6+3 0.937790 0.625760 0.001410 1.034224
H1    H     H_    0.780144 0.420255 0.704163 0.136680
H2    H     H_    0.894392 0.565832 0.667440 0.138698
H3    H     H_    0.840647 0.195948 0.684397 0.125763
H4    H     H_    0.585117 0.250517 0.812175 0.097704
H5    H     H_    0.220840 0.738106 0.814800 0.070098
H6    H     H_    0.119319 0.763526 0.703512 0.096369
H7    H     H_    0.851779 0.489783 0.305703 0.132436
H8    H     H_    0.563134 0.710746 0.189607 0.111425
H9    H     H_    0.642904 0.977616 0.203292 0.149268
H10   H     H_    0.779302 0.097459 0.319265 0.078403
H11   H     H_    0.228785 0.807009 0.189991 0.156756
H12   H     H_    0.367565 0.664369 0.300549 0.126415
H13   H     H_    0.520097 0.873165 0.677190 0.151555
H14   H     H_    0.827406 0.765822 0.780564 0.112169
H15   H     H_    0.790974 0.443551 0.822520 0.143353
H16   H     H_    0.602331 0.539136 0.829750 0.112681
H17   H     H_    0.591864 0.499013 0.710978 0.117737
O1    O     O_R   0.507110 0.256280 0.580300 -0.498232
O2    O     O_R   0.524640 0.695370 0.425100 -0.508851
O3    O     O_R   0.735890 0.504390 0.415980 -0.522535
O4    O     O_R   0.690560 0.277820 0.422350 -0.509996
O5    O     O_3   0.499990 0.499990 0.499980 -0.261996
O6    O     O_R   0.089190 0.825870 0.932320 -0.532014
O7    O     O_R   0.819070 0.053960 0.931440 -0.495143
O8    O     O_R   0.607070 0.076440 0.916460 -0.524196
O9    O     O_R   0.647110 0.806550 0.917690 -0.510398
O10   O     O_R   0.837080 0.593860 0.915300 -0.510514
O11   O     O_R   0.064770 0.636080 0.932550 -0.458380
O12   O     O_R   0.280830 0.527190 0.577940 -0.502238
O13   O     O_R   0.068250 0.829200 0.092940 -0.512129
O14   O     O_R   0.799650 0.057040 0.080330 -0.492834
O15   O     O_R   0.586130 0.079760 0.077080 -0.528585
O16   O     O_R   0.627700 0.809630 0.066580 -0.499342
O17   O     O_R   0.816140 0.597180 0.075920 -0.513167
O18   O     O_R   0.045360 0.639170 0.081440 -0.512820
O19   O     O_3   0.833980 0.833750 0.001700 -0.260254
O20   O     O_R   0.261360 0.738990 0.584270 -0.517715
O21   O     O_R   0.532590 0.694780 0.574370 -0.507680
O22   O     O_R   0.744470 0.503750 0.577000 -0.526656
O23   O     O_R   0.698520 0.277230 0.571620 -0.524258
O24   O     O_R   0.498530 0.256920 0.419280 -0.483224
O25   O     O_R   0.272880 0.527780 0.428680 -0.486245
O26   O     O_R   0.252780 0.739630 0.423250 -0.530352
H18   H     H_    0.554193 0.898916 0.794646 0.146482
H19   H     H_    0.921935 0.578070 0.785972 0.174147
H20   H     H_    0.903306 0.040207 0.800663 0.148416
N1    N     N_3   0.605418 0.076115 0.693561 -0.639988
H21   H     H_    0.677222 0.983185 0.718966 0.226704
H22   H     H_    0.526712 0.140176 0.729558 0.224731
N2    N     N_3   0.197489 0.440806 0.834931 -0.593471
H23   H     H_    0.202921 0.369334 0.796448 0.214772
H24   H     H_    0.285238 0.386296 0.867842 0.232533
H25   H     H_    0.305757 0.440504 0.701972 0.152163
H26   H     H_    0.465714 0.803273 0.817798 0.119457
H27   H     H_    0.886793 0.592988 0.194978 0.145180
N3    N     N_3   0.576562 0.825278 0.310850 -0.649900
H28   H     H_    0.579423 0.887475 0.352188 0.234241
H29   H     H_    0.474017 0.841541 0.307877 0.226289
N4    N     N_3   0.432024 0.184572 0.304010 -0.579152
H30   H     H_    0.380332 0.181855 0.257726 0.228069
H31   H     H_    0.419181 0.120506 0.341011 0.239877
N5    N     N_3   0.626446 0.299566 0.189741 -0.642070
H32   H     H_    0.702752 0.287662 0.226782 0.230703
H33   H     H_    0.526879 0.360482 0.212681 0.246616
H34   H     H_    0.439723 0.769855 0.700790 0.143231
H35   H     H_    0.203120 0.539403 0.189195 0.112991
N6    N     N_3   0.040259 0.689817 0.311864 -0.642677
H36   H     H_    0.986720 0.781661 0.281657 0.238765
H37   H     H_    0.050703 0.604478 0.282403 0.224252
H38   H     H_    0.787872 0.753252 0.661477 0.125027

loop_
_geom_bond_atom_site_label_1
_geom_bond_atom_site_label_2
_ccdc_geom_bond_type
C7    C10   D    
N1    H21   S    
C40   H14   S    
C26   H35   S    
Cr5   O8    S    
Cr5   O19   S    
C1    C11   S    
C20   H10   S    
C35   O18   A    
C25   C28   D    
N4    H31   S    
C26   C27   D    
C12   O22   A    
C8    C29   S    
Cr4   O14   S    
N6    H36   S    
Cr4   O19   S    
Cr3   O3    S    
C38   C39   S    
C36   O3    A    
N5    H32   S    
C12   O21   A    
C18   C19   S    
Cr4   O13   S    
C11   H6    S    
C32   O14   A    
C13   H5    S    
C11   C15   D    
C20   C24   D    
C3    C38   S    
C8    C9    D    
C23   O23   A    
N2    H24   S    
Cr2   O2    S    
Cr4   O7    S    
Cr5   O15   S    
C4    C12   S    
C9    C10   S    
C2    H15   S    
C25   C34   S    
C19   H7    S    
C39   H34   S    
N1    H22   S    
Cr6   O19   S    
C21   C22   D    
Cr5   O9    S    
Cr2   O5    S    
C2    C6    S    
C17   C33   S    
C7    N1    S    
C9    H20   S    
C14   N2    S    
C21   C32   S    
C13   C31   S    
Cr1   O5    S    
Cr1   O24   S    
C5    H2    S    
C35   O13   A    
C6    H1    S    
Cr3   O22   S    
Cr2   O21   S    
C4    C6    S    
C27   H11   S    
C30   O10   A    
C36   O2    A    
C33   O16   A    
C31   O11   A    
C18   H27   S    
C1    O12   A    
C6    H17   S    
C3    C30   S    
C25   N6    S    
Cr1   O12   S    
Cr6   O18   S    
C4    C39   S    
C39   H13   S    
N2    H23   S    
C17   C18   D    
Cr4   O6    S    
Cr5   O16   S    
C34   O25   A    
N3    H29   S    
C16   N3    S    
C23   O1    A    
C3    C40   S    
C5    H38   S    
C22   C24   S    
C8    H4    S    
Cr6   O11   S    
C29   O7    A    
Cr1   O25   S    
Cr3   O23   S    
C37   O24   A    
Cr2   O20   S    
C15   H25   S    
C4    C5    S    
C30   O9    A    
C33   O17   A    
C22   H9    S    
C28   H12   S    
C1    O20   A    
N4    H30   S    
C38   H18   S    
Cr2   O26   S    
C2    C3    S    
C34   O26   A    
C16   C36   S    
Cr6   O17   S    
C20   C37   S    
C38   H26   S    
C16   C19   D    
C7    C23   S    
C37   O4    A    
N5    H33   S    
C40   H19   S    
N3    H28   S    
C21   N5    S    
C32   O15   A    
C26   C35   S    
C31   O6    A    
Cr3   O4    S    
C5    C40   S    
C27   C28   S    
C14   C15   S    
C24   N4    S    
Cr1   O1    S    
N6    H37   S    
C13   C14   D    
C10   H3    S    
C17   H8    S    
Cr6   O10   S    
C2    H16   S    
C29   O8    A    
Cr3   O5    S    
