data_mof_unit_68187.cif
_audit_creation_date              2013-03-05T16:03:13-0500
_audit_creation_method            fapswitch 2.2
_symmetry_space_group_name_H-M    P1
_symmetry_Int_Tables_number       1
_space_group_crystal_system       triclinic
_cell_length_a                    7.102027
_cell_length_b                    14.053872
_cell_length_c                    16.968361
_cell_angle_alpha                 89.486693
_cell_angle_beta                  91.233465
_cell_angle_gamma                 89.944433
_cell_volume                      1693.16717157

loop_
_atom_site_label
_atom_site_type_symbol
_atom_site_description
_atom_site_fract_x
_atom_site_fract_y
_atom_site_fract_z
_atom_type_partial_charge
O1    O     O_R   0.361630 0.167340 0.164570 -0.564167
O2    O     O_R   0.638370 0.832660 0.835430 -0.565370
O3    O     O_R   0.690860 0.157560 0.338690 -0.563566
O4    O     O_R   0.309140 0.842440 0.661310 -0.564294
O5    O     O_R   0.861260 0.336420 0.339380 -0.587003
O6    O     O_R   0.138740 0.663580 0.660620 -0.580283
C1    C     C_R   0.523875 0.136701 0.369249 1.045786
C2    C     C_R   0.476252 0.862957 0.630618 1.044131
O7    O     O_R   0.691330 0.156310 0.165190 -0.555747
O8    O     O_R   0.308670 0.843690 0.834810 -0.555116
O9    O     O_R   0.861730 0.335160 0.164640 -0.599882
O10   O     O_R   0.138270 0.664840 0.835360 -0.580897
C3    C     C_R   0.520182 0.127602 0.141100 0.939280
C4    C     C_R   0.480112 0.872461 0.858902 0.938795
O11   O     O_R   0.361150 0.168600 0.339320 -0.555703
O12   O     O_R   0.638850 0.831400 0.660680 -0.556090
O13   O     O_3   0.527950 0.310560 0.252000 -0.277513
O14   O     O_3   0.472050 0.689440 0.748000 -0.274147
V1    V     V_3+5 0.802770 0.240990 0.251980 1.278909
V2    V     V_3+5 0.197230 0.759010 0.748020 1.288625
O15   O     O_R   0.191450 0.346190 0.165260 -0.575352
O16   O     O_R   0.808550 0.653810 0.834740 -0.593777
C5    C     C_R   0.020870 0.370116 0.138019 0.940922
C6    C     C_R   0.977862 0.629472 0.861585 0.943490
O17   O     O_R   0.190980 0.347440 0.338770 -0.563276
O18   O     O_R   0.809020 0.652560 0.661230 -0.569448
C7    C     C_R   0.023714 0.371224 0.366627 1.007291
C8    C     C_R   0.976413 0.627817 0.634061 1.008446
V3    V     V_3+5 0.302780 0.262760 0.251980 1.276337
V4    V     V_3+5 0.697220 0.737240 0.748020 1.270865
O19   O     O_3   0.027730 0.193200 0.251960 -0.224655
O20   O     O_3   0.972270 0.806800 0.748040 -0.225111
C9    C     C_3   0.829541 0.476695 0.472458 0.252938
C10   C     C_3   0.170445 0.520129 0.529861 0.259331
C11   C     C_3   0.901803 0.452641 0.557315 -0.258016
C12   C     C_3   0.098360 0.544468 0.444722 -0.262433
H1    H     H_    0.815899 0.415107 0.601380 0.204358
H2    H     H_    0.184213 0.580889 0.399909 0.209451
C13   C     C_3   0.983451 0.555039 0.564694 -0.314372
C14   C     C_3   0.016183 0.442244 0.437150 -0.317234
C15   C     C_3   0.909992 0.578484 0.480439 0.262964
C16   C     C_3   0.089420 0.418446 0.521376 0.272560
C17   C     C_R   0.976917 0.703237 0.026174 0.023879
C18   C     C_R   0.019397 0.296290 0.973288 0.021980
C19   C     C_R   0.970859 0.735707 0.104079 0.179792
C20   C     C_R   0.029863 0.264151 0.895458 0.186304
C21   C     C_R   0.971141 0.670634 0.165624 0.184796
C22   C     C_R   0.997183 0.327560 0.833703 0.180124
C23   C     C_R   0.951195 0.574487 0.151724 -0.135510
C24   C     C_R   0.952936 0.421916 0.847289 -0.122171
C25   C     C_R   0.978549 0.536239 0.076188 0.069653
C26   C     C_R   0.979944 0.462075 0.922859 0.069958
C27   C     C_R   0.983439 0.601829 0.010333 0.032795
C28   C     C_R   0.003203 0.397317 0.988934 0.031324
C29   C     C_R   0.002662 0.435267 0.066610 -0.191176
C30   C     C_R   0.983599 0.563819 0.932643 -0.191624
C31   C     C_3   0.327056 0.026556 0.475264 0.265236
C32   C     C_3   0.673624 0.972262 0.524335 0.265147
C33   C     C_3   0.405139 0.923601 0.474494 -0.153022
C34   C     C_3   0.595720 0.075225 0.525113 -0.153518
C35   C     C_3   0.486521 0.935030 0.559209 -0.374785
C36   C     C_3   0.514193 0.063985 0.440341 -0.373297
C37   C     C_3   0.409723 0.038386 0.560088 0.218397
C38   C     C_3   0.591095 0.960510 0.439473 0.219016
C39   C     C_R   0.519185 0.203464 0.977653 -0.096158
C40   C     C_R   0.473122 0.796184 0.022309 -0.094338
C41   C     C_R   0.514198 0.241551 0.901723 0.108386
C42   C     C_R   0.464569 0.757588 0.097951 0.104160
C43   C     C_R   0.543441 0.183203 0.838032 -0.046292
C44   C     C_R   0.453026 0.816630 0.162146 -0.040710
C45   C     C_R   0.567615 0.084425 0.848566 0.128745
C46   C     C_R   0.437577 0.915694 0.152140 0.127733
C47   C     C_R   0.529774 0.039760 0.923178 0.072539
C48   C     C_R   0.473162 0.959979 0.077225 0.071941
C49   C     C_R   0.519073 0.101614 0.991259 0.078042
C50   C     C_R   0.481492 0.898069 0.009020 0.077657
C51   C     C_R   0.498899 0.938038 0.930966 -0.183441
C52   C     C_R   0.502885 0.061718 0.069278 -0.183135
I1    I     I_    0.250886 0.076197 0.659040 -0.252952
I2    I     I_    0.753085 0.920372 0.341894 -0.257883
C53   C     C_1   0.458778 0.772583 0.239164 0.319917
N1    N     N_1   0.465433 0.735204 0.300094 -0.012505
C54   C     C_1   0.544318 0.227360 0.761086 0.315999
N2    N     N_1   0.542754 0.264685 0.700114 -0.014356
C55   C     C_1   0.519420 0.275650 0.037587 0.189062
N3    N     N_1   0.520366 0.336363 0.083124 0.013245
C56   C     C_1   0.479323 0.724237 0.962318 0.189976
N4    N     N_1   0.483072 0.663658 0.916727 0.015768
I3    I     I_    0.461890 0.391845 0.883175 -0.436666
I4    I     I_    0.452553 0.605161 0.115963 -0.447256
I5    I     I_    0.707857 0.018609 0.753371 -0.257019
I6    I     I_    0.299644 0.981565 0.247822 -0.257873
I7    I     I_    0.563303 0.447096 0.416261 -0.299403
I8    I     I_    0.429470 0.542779 0.594485 -0.286053
I9    I     I_    0.730473 0.697387 0.461350 -0.330161
I10   I     I_    0.264143 0.297122 0.538763 -0.321716
I11   I     I_    0.009363 0.283896 0.716693 -0.346816
I12   I     I_    0.002304 0.713199 0.282977 -0.356596
I13   I     I_    0.983406 0.820258 0.943951 -0.252274
I14   I     I_    0.017683 0.179400 0.055799 -0.252856
I15   I     I_    0.928339 0.882994 0.131982 -0.290628
I16   I     I_    0.082156 0.117241 0.868299 -0.289822
C57   C     C_1   0.844646 0.525064 0.209823 0.170338
N5    N     N_1   0.751469 0.488938 0.255949 0.001523
C58   C     C_1   0.834361 0.465648 0.787521 0.144993
N6    N     N_1   0.732366 0.496246 0.739912 -0.009070
C59   C     C_1   0.304915 0.836702 0.453730 0.308065
N7    N     N_1   0.226338 0.766678 0.440351 -0.029516
C60   C     C_1   0.696422 0.161760 0.546423 0.307917
N8    N     N_1   0.775548 0.231438 0.560405 -0.031135
I17   I     I_    0.066602 0.089129 0.436010 -0.241614
I18   I     I_    0.933542 0.908594 0.563137 -0.242087

loop_
_geom_bond_atom_site_label_1
_geom_bond_atom_site_label_2
_geom_bond_distance
_ccdc_geom_bond_type
C40   C42   1.391505 A    
C56   N4    1.156140 T    
O13   V3    1.735128 S    
C28   C29   1.426354 A    
C10   C16   1.547817 S    
C6    C30   1.511524 S    
O4    C2    1.336986 A    
V1    O19   1.732512 S    
C53   N1    1.155512 T    
C31   C36   1.556891 S    
C21   C23   1.380646 A    
C37   I1    2.114355 S    
C55   N3    1.156171 T    
C22   I11   2.086924 S    
C20   I16   2.153141 S    
O9    V1    2.028766 S    
C33   C38   1.547887 S    
C21   I12   2.091576 S    
C48   C50   1.456308 A    
C34   C37   1.547498 S    
C16   I10   2.122561 S    
O16   C6    1.320309 A    
C11   H1    1.105778 S    
C17   I13   2.148300 S    
O3    C1    1.336295 A    
C46   I6    2.132193 S    
C31   C33   1.549298 S    
O12   V4    2.014131 S    
C41   I3    2.163336 S    
C34   C36   1.548456 S    
O7    V1    2.048056 S    
C4    C51   1.541374 S    
C43   C45   1.407948 A    
C11   C16   1.554759 S    
O7    C3    1.337843 A    
C36   C38   1.553212 S    
C34   C60   1.455919 S    
C9    C11   1.552429 S    
O5    C7    1.329038 A    
C17   C27   1.453535 A    
O6    C8    1.329505 A    
C18   C20   1.403029 A    
C39   C41   1.390468 A    
C24   C58   1.437522 S    
C42   I4    2.163194 S    
C59   N7    1.153720 T    
O3    V1    2.047563 S    
O14   V4    1.735128 S    
C25   C29   1.440243 A    
C2    C35   1.575265 S    
C32   C35   1.555427 S    
C1    O11   1.328200 A    
C2    O12   1.326646 A    
O17   V3    2.072546 S    
C38   I2    2.116787 S    
C12   C15   1.557053 S    
O1    V3    2.057708 S    
C26   C28   1.444323 A    
C31   I17   2.138196 S    
O11   V3    2.014132 S    
C19   C21   1.381941 A    
C32   C38   1.553210 S    
C20   C22   1.385086 A    
C33   C35   1.547488 S    
C9    C14   1.545493 S    
C10   C13   1.546439 S    
C12   C14   1.556522 S    
C50   C51   1.441810 A    
C46   C48   1.437737 A    
O8    C4    1.340010 A    
O8    V2    2.048056 S    
C40   C56   1.442507 S    
C45   C47   1.438699 A    
C8    C13   1.567821 S    
C23   C25   1.411502 A    
O15   V3    2.020506 S    
C33   C59   1.456326 S    
C25   C27   1.443226 A    
C11   C13   1.557117 S    
C1    C36   1.576677 S    
C43   C54   1.440733 S    
C24   C26   1.415001 A    
C54   N2    1.155616 T    
C7    C14   1.566886 S    
C40   C50   1.449001 A    
O10   V2    2.028766 S    
C35   C37   1.551383 S    
C5    C29   1.515395 S    
C22   C24   1.384971 A    
C17   C19   1.403840 A    
C19   I15   2.150016 S    
O18   V4    2.072548 S    
O15   C5    1.329172 A    
C32   I18   2.139052 S    
O1    C3    1.326847 A    
C47   C49   1.455194 A    
V2    O20   1.732511 S    
C27   C30   1.426840 A    
C3    C52   1.540017 S    
O16   V4    2.020506 S    
C10   I8    2.146729 S    
C31   C37   1.553092 S    
C14   C16   1.544022 S    
C9    I7    2.142100 S    
C23   C57   1.431025 S    
C39   C55   1.442875 S    
O5    V1    2.044713 S    
O17   C7    1.331378 A    
O6    V2    2.044715 S    
C58   N6    1.153359 T    
O10   C6    1.327356 A    
O18   C8    1.331331 A    
C39   C49   1.447845 A    
O2    V4    2.057704 S    
C9    C15   1.546905 S    
C12   H2    1.107056 S    
V3    O19   2.185218 S    
C60   N8    1.153466 T    
V4    O20   2.185218 S    
C18   I14   2.149089 S    
C15   I9    2.119242 S    
O9    C5    1.319797 A    
O13   V1    2.182138 S    
C10   C12   1.557288 S    
O14   V2    2.182139 S    
O2    C4    1.325451 A    
C49   C52   1.439994 A    
O4    V2    2.047567 S    
C18   C28   1.451683 A    
C45   I5    2.133323 S    
C13   C15   1.543960 S    
C42   C44   1.379014 A    
C48   C52   1.451038 A    
C57   N5    1.150693 T    
C47   C51   1.451812 A    
C44   C46   1.404937 A    
C44   C53   1.440817 S    
C41   C43   1.381582 A    
C32   C34   1.548967 S    
C26   C30   1.441169 A    
