data_mof_unit_63351.cif
_audit_creation_date              2012-12-10T16:56:40-0500
_audit_creation_method            fapswitch 2.2
_symmetry_space_group_name_H-M    P1
_symmetry_Int_Tables_number       1
_space_group_crystal_system       triclinic
_cell_length_a                    21.727302
_cell_length_b                    21.729332
_cell_length_c                    22.263901
_cell_angle_alpha                 119.200044
_cell_angle_beta                  119.405558
_cell_angle_gamma                 90.462087
_cell_volume                      7557.81510706

loop_
_atom_site_label
_atom_site_type_symbol
_atom_type_description
_atom_site_fract_x
_atom_site_fract_y
_atom_site_fract_z
_atom_type_partial_charge
C1    C     C_R   0.498500 0.117128 0.496802 0.788206
C2    C     C_R   0.501427 0.882951 0.503411 0.789091
C3    C     C_1   0.876707 0.374997 0.250440 -0.119014
C4    C     C_1   0.123224 0.625030 0.749563 -0.119438
C5    C     C_3   0.712167 0.212299 0.917336 0.117935
C6    C     C_3   0.287710 0.787803 0.082669 0.119029
C7    C     C_3   0.715046 0.295011 0.048750 -0.459880
C8    C     C_3   0.284650 0.704572 0.951239 -0.460391
C9    C     C_3   0.796456 0.293222 0.082907 0.120057
C10   C     C_3   0.203410 0.706904 0.917100 0.120381
C11   C     C_3   0.792803 0.210653 0.047090 -0.329596
C12   C     C_3   0.207598 0.789599 0.952931 -0.328086
C13   C     C_3   0.747419 0.164386 0.950364 -0.459501
C14   C     C_3   0.252956 0.835877 0.049661 -0.462012
C15   C     C_1   0.840574 0.337926 0.175097 0.002497
C16   C     C_1   0.159315 0.662152 0.824906 0.002232
C17   C     C_1   0.664613 0.164479 0.825043 0.001155
C18   C     C_1   0.335296 0.835596 0.174961 -0.000273
C19   C     C_1   0.625885 0.125563 0.749634 -0.113875
C20   C     C_1   0.374068 0.874480 0.250368 -0.115310
C21   C     C_R   0.361652 0.122471 0.374778 -0.169326
C22   C     C_R   0.481256 0.873372 0.620451 -0.167608
C23   C     C_R   0.580226 0.079932 0.659895 0.813423
C24   C     C_R   0.419765 0.920076 0.340106 0.813453
C25   C     C_R   0.294590 0.128517 0.324303 -0.132826
C26   C     C_R   0.462456 0.865037 0.668205 -0.135811
C27   C     C_R   0.291900 0.196473 0.334035 -0.128481
C28   C     C_R   0.450108 0.796631 0.657843 -0.127504
C29   C     C_R   0.356791 0.258103 0.392223 -0.165961
C30   C     C_R   0.459188 0.736926 0.601901 -0.168146
C31   C     C_R   0.426116 0.252611 0.441973 0.096042
C32   C     C_R   0.480878 0.744817 0.554941 0.095108
C33   C     C_R   0.427723 0.184931 0.436358 0.095267
C34   C     C_R   0.487876 0.812736 0.560828 0.098445
C35   C     C_R   0.495611 0.181459 0.491754 -0.105529
C36   C     C_R   0.502497 0.818224 0.507837 -0.100426
C37   C     C_R   0.561131 0.242411 0.547686 -0.167310
C38   C     C_R   0.514057 0.758983 0.453998 -0.169992
C39   C     C_R   0.560220 0.307538 0.550747 -0.191315
C40   C     C_R   0.510403 0.693836 0.450931 -0.185723
C41   C     C_R   0.493693 0.313108 0.498206 -0.102652
C42   C     C_R   0.494706 0.686435 0.501298 -0.105070
C43   C     C_R   0.757799 0.511241 0.451632 -0.193821
C44   C     C_R   0.241644 0.487298 0.547190 -0.195799
C45   C     C_R   0.741661 0.466643 0.609209 -0.179400
C46   C     C_R   0.260009 0.536361 0.393570 -0.179133
C47   C     C_R   0.818484 0.502641 0.507799 -0.088719
C48   C     C_R   0.181508 0.497302 0.492062 -0.090670
C49   C     C_R   0.883018 0.501338 0.503164 0.782376
C50   C     C_R   0.116930 0.498598 0.496696 0.782069
C51   C     C_R   0.920355 0.419936 0.340115 0.810997
C52   C     C_R   0.079629 0.580068 0.659886 0.810803
C53   C     C_R   0.619270 0.497520 0.500431 0.797835
C54   C     C_R   0.380757 0.502362 0.499598 0.765711
C55   C     C_R   0.497451 0.380793 0.499674 0.783049
C56   C     C_R   0.497617 0.619070 0.500210 0.782633
C57   C     C_R   0.747281 0.484716 0.558628 0.099570
C58   C     C_R   0.253533 0.516741 0.442688 0.093314
C59   C     C_R   0.877114 0.487878 0.625415 -0.133255
C60   C     C_R   0.124076 0.514661 0.376319 -0.133792
C61   C     C_R   0.870989 0.472916 0.676776 -0.056679
C62   C     C_R   0.130973 0.531089 0.326270 -0.063419
C63   C     C_R   0.803104 0.461009 0.667668 -0.132075
C64   C     C_R   0.199113 0.543269 0.335956 -0.122309
C65   C     C_R   0.692813 0.507649 0.448916 -0.195091
C66   C     C_R   0.306678 0.490847 0.549996 -0.199387
C67   C     C_R   0.687050 0.495104 0.502102 -0.098079
C68   C     C_R   0.313081 0.504856 0.498037 -0.098932
C69   C     C_R   0.814865 0.491418 0.563721 0.080080
C70   C     C_R   0.185794 0.509910 0.437266 0.080456
C71   C     C_3   0.664741 0.243781 0.951949 -0.331769
C72   C     C_3   0.335000 0.755812 0.048033 -0.330889
C73   C     C_3   0.777687 0.277888 0.952283 0.228050
C74   C     C_3   0.221834 0.722578 0.047728 0.227244
C75   C     C_3   0.828448 0.324992 0.050369 0.228960
C76   C     C_3   0.171014 0.675558 0.949646 0.229017
Cu1   Cu    Cu3+1 0.438180 0.999990 0.500010 0.982195
Cu2   Cu    Cu3+1 0.561820 0.000010 0.499990 0.984743
Cu3   Cu    Cu3+1 0.000200 0.561800 0.499990 0.973226
Cu4   Cu    Cu3+1 0.999800 0.438200 0.500010 0.972916
Cu5   Cu    Cu3+1 0.541330 0.541310 0.582630 0.967372
Cu6   Cu    Cu3+1 0.458670 0.458690 0.417370 0.962939
H1    H     H_    0.798115 0.447814 0.706440 0.160880
H2    H     H_    0.204694 0.557601 0.298228 0.166119
H3    H     H_    0.784674 0.143092 0.929936 0.210598
H4    H     H_    0.215796 0.857533 0.070102 0.207855
H5    H     H_    0.765489 0.187005 0.065868 0.167609
H6    H     H_    0.235184 0.812954 0.934162 0.167281
H7    H     H_    0.621548 0.196891 0.931542 0.165917
H8    H     H_    0.378454 0.802443 0.068405 0.167726
H9    H     H_    0.691346 0.276485 0.073882 0.184143
H10   H     H_    0.308588 0.722770 0.926076 0.183734
H11   H     H_    0.849723 0.205940 0.073345 0.235053
H12   H     H_    0.150827 0.794668 0.926684 0.235314
H13   H     H_    0.613107 0.239974 0.590236 0.174796
H14   H     H_    0.525066 0.762829 0.413231 0.165124
H15   H     H_    0.361117 0.068255 0.364088 0.143651
H16   H     H_    0.491501 0.927960 0.631856 0.143389
H17   H     H_    0.244373 0.080391 0.277896 0.144039
H18   H     H_    0.456950 0.911752 0.713048 0.135739
H19   H     H_    0.239395 0.201362 0.295932 0.147084
H20   H     H_    0.434056 0.789953 0.693834 0.138118
H21   H     H_    0.351536 0.309940 0.398352 0.153936
H22   H     H_    0.448060 0.684633 0.595271 0.143723
H23   H     H_    0.689887 0.455657 0.603599 0.147739
H24   H     H_    0.312051 0.547526 0.399701 0.153440
H25   H     H_    0.612023 0.353634 0.593771 0.152381
H26   H     H_    0.520938 0.649218 0.409764 0.156954
H27   H     H_    0.646990 0.515731 0.405697 0.156082
H28   H     H_    0.352042 0.481630 0.592323 0.159979
H29   H     H_    0.760399 0.519816 0.408768 0.154815
H30   H     H_    0.238587 0.477638 0.589185 0.156810
H31   H     H_    0.931250 0.497592 0.635549 0.163762
H32   H     H_    0.069746 0.504725 0.365688 0.165145
H33   H     H_    0.918999 0.469986 0.723406 0.179310
H34   H     H_    0.083363 0.534940 0.280211 0.178716
H35   H     H_    0.714601 0.353084 0.070001 0.208980
H36   H     H_    0.284692 0.646405 0.930002 0.209344
H37   H     H_    0.634055 0.274737 0.926270 0.235364
H38   H     H_    0.365365 0.724729 0.073719 0.234297
H39   H     H_    0.810858 0.252076 0.927352 0.156708
H40   H     H_    0.188837 0.748733 0.072765 0.156543
H41   H     H_    0.827952 0.383445 0.076096 0.152411
H42   H     H_    0.171001 0.616948 0.923818 0.152142
H43   H     H_    0.702951 0.114852 0.923628 0.183246
H44   H     H_    0.297698 0.885181 0.076412 0.184215
O1    O     O_R   0.447780 0.090160 0.499990 -0.582348
O2    O     O_R   0.552220 0.909840 0.500010 -0.583158
O3    O     O_R   0.555310 0.465120 0.430190 -0.580791
O4    O     O_R   0.444690 0.534880 0.569810 -0.588884
O5    O     O_R   0.534910 0.444720 0.569790 -0.584685
O6    O     O_R   0.465090 0.555280 0.430210 -0.585904
O7    O     O_R   0.465120 0.374940 0.430230 -0.586130
O8    O     O_R   0.534880 0.625060 0.569770 -0.581288
O9    O     O_R   0.552200 0.090180 0.499980 -0.580572
O10   O     O_R   0.447800 0.909820 0.500020 -0.580184
O11   O     O_R   0.508070 0.060270 0.620570 -0.588228
O12   O     O_R   0.491930 0.939730 0.379430 -0.581216
O13   O     O_R   0.612490 0.060290 0.620560 -0.568770
O14   O     O_R   0.387510 0.939710 0.379440 -0.575758
O15   O     O_R   0.910000 0.552200 0.500000 -0.575870
O16   O     O_R   0.090000 0.447800 0.500000 -0.576473
O17   O     O_R   0.909970 0.447830 0.500020 -0.591730
O18   O     O_R   0.090030 0.552170 0.499980 -0.592263
O19   O     O_R   0.939920 0.491910 0.379430 -0.583758
O20   O     O_R   0.060080 0.508090 0.620570 -0.583937
O21   O     O_R   0.939890 0.387530 0.379440 -0.574792
O22   O     O_R   0.060110 0.612470 0.620560 -0.574419
O23   O     O_R   0.625100 0.534890 0.569750 -0.580116
O24   O     O_R   0.374900 0.465110 0.430250 -0.590460
S1    S     S_3+6 0.748022 0.338072 0.916669 -0.008070
O25   O     O_2   0.815643 0.388552 0.941293 -0.224553
O26   O     O_2   0.693955 0.293127 0.823293 -0.295152
O27   O     O_3   0.707700 0.390788 0.961331 -0.577548
H45   H     H_    0.695319 0.422993 0.940281 0.384406
S2    S     S_3+6 0.250918 0.662211 0.083199 -0.007023
O28   O     O_2   0.305150 0.707030 0.176545 -0.291160
O29   O     O_2   0.183046 0.612242 0.058733 -0.222737
O30   O     O_3   0.290778 0.608918 0.038261 -0.579193
H46   H     H_    0.302908 0.576697 0.059305 0.383658
S3    S     S_3+6 0.925021 0.331609 0.087725 -0.018464
O31   O     O_2   0.952563 0.376609 0.066466 -0.231838
O32   O     O_2   0.972942 0.369710 0.180810 -0.318458
O33   O     O_3   0.932557 0.246359 0.041401 -0.573126
H47   H     H_    0.986367 0.255413 0.063977 0.384734
S4    S     S_3+6 0.074619 0.669818 0.912459 -0.018676
O34   O     O_2   0.026784 0.632281 0.819471 -0.317859
O35   O     O_2   0.046402 0.624741 0.933207 -0.233415
O36   O     O_3   0.067907 0.755386 0.959406 -0.573512
H48   H     H_    0.014170 0.746799 0.937051 0.385911

loop_
_geom_bond_atom_site_label_1
_geom_bond_atom_site_label_2
_ccdc_geom_bond_type
C66   C68   A    
C22   H16   S    
C27   C29   A    
O36   H48   S    
C7    H35   S    
C60   H32   S    
Cu1   O14   S    
Cu2   O2    S    
Cu2   O13   S    
Cu5   Cu6   S    
C8    H36   S    
Cu5   O8    S    
C39   C41   A    
Cu1   Cu2   S    
C24   O14   A    
C39   H25   S    
C45   C57   A    
C74   C76   S    
C4    C52   S    
C75   H41   S    
C44   C66   A    
C23   O13   A    
S2    O28   D    
C35   C37   A    
Cu1   O11   S    
C7    C71   S    
C33   C35   A    
Cu5   O5    S    
C54   C68   S    
C51   O19   A    
C46   H24   S    
C21   H15   S    
C29   H21   S    
C18   C20   T    
C60   C62   A    
S1    O27   S    
C61   C63   A    
C41   C55   S    
C62   C64   A    
C42   C56   S    
C10   C76   S    
C25   H17   S    
Cu4   O21   S    
C47   C69   A    
C20   C24   S    
C11   H5    S    
C65   C67   A    
C49   O15   A    
C61   H33   S    
S1    O25   D    
C31   C33   A    
C76   S4    S    
C8    H10   S    
Cu1   O10   S    
C51   O21   A    
C30   C32   A    
C31   C41   A    
Cu2   O9    S    
C5    C13   S    
Cu1   O1    S    
C59   H31   S    
C40   H26   S    
C13   H43   S    
C11   H11   S    
C48   C50   S    
C52   O22   A    
C73   S1    S    
S4    O35   D    
C73   C75   S    
C12   H12   S    
C43   H29   S    
C57   C67   A    
C29   C31   A    
C6    C18   S    
Cu2   O12   S    
S3    O32   D    
C50   O18   A    
C6    C74   S    
C22   C34   A    
C59   C61   A    
C8    C72   S    
C12   H6    S    
C76   H42   S    
C14   H4    S    
C47   C49   S    
C53   O23   A    
C3    C51   S    
C58   C70   A    
C54   O4    A    
C13   H3    S    
C24   O12   A    
C55   O7    A    
C27   H19   S    
C2    O10   A    
C63   H1    S    
C32   C34   A    
C4    C16   T    
C19   C23   S    
C62   H34   S    
C6    C14   S    
C72   H8    S    
O30   H46   S    
C71   H7    S    
C60   C70   A    
C43   C65   A    
Cu4   O17   S    
C7    H9    S    
C72   H38   S    
C74   S2    S    
C6    C72   S    
Cu6   O24   S    
C66   H28   S    
Cu6   O3    S    
C9    C11   S    
C65   H27   S    
O27   H45   S    
C56   O6    A    
C10   C12   S    
C59   C69   A    
C44   H30   S    
C58   C68   A    
C74   H40   S    
C12   C14   S    
C73   H39   S    
S4    O34   D    
C53   O3    A    
Cu6   O6    S    
S3    O33   S    
C3    C15   T    
C1    C35   S    
C2    C36   S    
C7    C9    S    
C21   C25   A    
O33   H47   S    
Cu4   O16   S    
C52   O20   A    
C54   O24   A    
Cu3   O19   S    
C26   C28   A    
C23   O11   A    
S2    O30   S    
C1    O1    A    
C48   C70   A    
C40   C42   A    
C56   O8    A    
Cu3   O22   S    
C71   H37   S    
C25   C27   A    
C55   O5    A    
C14   H44   S    
Cu3   O18   S    
C64   H2    S    
C75   S3    S    
C21   C33   A    
Cu6   O7    S    
S2    O29   D    
C9    C15   S    
C28   C30   A    
C5    C71   S    
C44   C48   A    
S3    O31   D    
C38   C40   A    
C11   C13   S    
Cu5   O4    S    
Cu3   O15   S    
Cu5   O23   S    
C49   O17   A    
C36   C38   A    
C17   C19   T    
C45   C63   A    
C34   C36   A    
S1    O26   D    
C5    C73   S    
C53   C67   S    
C37   H13   S    
C38   H14   S    
Cu3   Cu4   S    
C28   H20   S    
C37   C39   A    
C5    C17   S    
S4    O36   S    
C8    C10   S    
C22   C26   A    
C30   H22   S    
C45   H23   S    
C32   C42   A    
C10   C16   S    
Cu4   O20   S    
C9    C75   S    
C46   C64   A    
C57   C69   A    
C1    O9    A    
C43   C47   A    
C46   C58   A    
C50   O16   A    
C26   H18   S    
C2    O2    A    
