data_mof_unit_8486.cif
_audit_creation_date              2012-12-10T19:00:44-0500
_audit_creation_method            fapswitch 2.2
_symmetry_space_group_name_H-M    P1
_symmetry_Int_Tables_number       1
_space_group_crystal_system       triclinic
_cell_length_a                    15.013162
_cell_length_b                    10.818344
_cell_length_c                    9.566629
_cell_angle_alpha                 89.911164
_cell_angle_beta                  90.18764
_cell_angle_gamma                 90.095705
_cell_volume                      1553.77609946

loop_
_atom_site_label
_atom_site_type_symbol
_atom_type_description
_atom_site_fract_x
_atom_site_fract_y
_atom_site_fract_z
_atom_type_partial_charge
C1    C     C_R   0.501688 0.262370 0.500042 0.788430
C2    C     C_R   0.906880 0.601188 0.426477 -0.022031
C3    C     C_R   0.952947 0.329033 0.655972 -0.145048
C4    C     C_R   0.045672 0.329014 0.657700 -0.186328
C5    C     C_R   0.093055 0.416996 0.580193 0.135891
C6    C     C_R   0.047044 0.506860 0.500360 0.034020
C7    C     C_R   0.094646 0.594709 0.420033 0.023762
C8    C     C_R   0.047882 0.685699 0.344206 0.347663
C9    C     C_R   0.955098 0.689086 0.349037 -0.154860
C10   C     C_R   0.185833 0.416515 0.581100 -0.223258
C11   C     C_R   0.232605 0.501473 0.499479 -0.076363
C12   C     C_R   0.328984 0.499767 0.499833 0.798747
C13   C     C_R   0.187761 0.589176 0.418480 -0.179002
C14   C     C_R   0.514938 0.063336 0.625059 0.145707
C15   C     C_R   0.510784 0.129245 0.499648 -0.100345
C16   C     C_R   0.519595 0.064650 0.372978 -0.200441
C17   C     C_R   0.519528 0.935837 0.372868 -0.154871
C18   C     C_R   0.510865 0.870716 0.499412 -0.079800
C19   C     C_R   0.514996 0.936108 0.624921 0.128450
C20   C     C_3   0.456594 0.928989 0.750812 -0.459132
C21   C     C_3   0.456564 0.069361 0.751026 -0.472187
C22   C     C_R   0.530307 0.600463 0.073905 0.154640
C23   C     C_R   0.501748 0.737607 0.499864 0.826530
C24   C     C_R   0.460024 0.407861 0.074248 -0.038292
C25   C     C_R   0.459356 0.408425 0.925512 -0.033797
C26   C     C_R   0.533747 0.598085 0.927199 0.160798
C27   C     C_3   0.626717 0.649739 0.928319 0.176874
C28   C     C_3   0.619628 0.658589 0.086202 -0.424609
C29   C     C_R   0.671024 0.502860 0.500344 0.884214
C30   C     C_R   0.813240 0.603282 0.431186 0.334381
C31   C     C_R   0.767612 0.508233 0.501598 -0.111387
C32   C     C_R   0.813941 0.417853 0.576351 -0.223781
C33   C     C_R   0.906570 0.418253 0.578517 0.126678
C34   C     C_R   0.953448 0.508647 0.501339 0.002640
Cu1   Cu    Cu3+1 0.500000 0.499980 0.640670 0.990152
Cu2   Cu    Cu3+1 0.500000 0.500020 0.359330 0.977266
H1    H     H_    0.521496 0.888078 0.273597 0.161623
H2    H     H_    0.390185 0.888030 0.727566 0.209421
H3    H     H_    0.390126 0.110119 0.728044 0.195707
H4    H     H_    0.491807 0.109485 0.842761 0.201136
H5    H     H_    0.429036 0.331982 0.129549 0.132666
H6    H     H_    0.427353 0.333477 0.870038 0.124762
H7    H     H_    0.632016 0.740995 0.875455 0.119338
H8    H     H_    0.667561 0.599327 0.143914 0.282128
H9    H     H_    0.777454 0.346881 0.632555 0.171607
H10   H     H_    0.917446 0.259566 0.715693 0.161256
H11   H     H_    0.221860 0.348728 0.642879 0.135627
H12   H     H_    0.921357 0.760226 0.289606 0.235136
H13   H     H_    0.521894 0.112866 0.273734 0.166558
N1    N     N_R   0.500570 0.500930 0.147930 -0.168377
N2    N     N_R   0.500570 0.500890 0.852020 -0.161738
O1    O     O_R   0.500000 0.319640 0.618810 -0.586865
O2    O     O_R   0.500010 0.319680 0.381230 -0.594077
O3    O     O_R   0.370250 0.499950 0.618800 -0.582837
O4    O     O_R   0.370260 0.499990 0.381220 -0.578645
O5    O     O_R   0.499990 0.680320 0.618770 -0.591226
O6    O     O_R   0.500000 0.680360 0.381190 -0.576609
O7    O     O_R   0.629740 0.500010 0.618780 -0.522029
O8    O     O_R   0.629750 0.500050 0.381200 -0.568069
Cl1   Cl    Cl    0.752893 0.729881 0.361576 -0.665783
H14   H     H_    0.491730 0.888449 0.842463 0.189629
Cl2   Cl    Cl    0.711764 0.541574 0.882856 -0.561861
H15   H     H_    0.615532 0.755414 0.124054 0.182289
H16   H     H_    0.080369 0.259664 0.718866 0.154478
H17   H     H_    0.226407 0.654251 0.357446 0.194167
Cl3   Cl    Cl    0.102412 0.798657 0.242307 -0.610724

loop_
_geom_bond_atom_site_label_1
_geom_bond_atom_site_label_2
_ccdc_geom_bond_type
C25   H6    S    
C11   C12   S    
C25   N2    A    
C8    Cl3   S    
C6    C7    A    
C1    C15   S    
C27   Cl2   S    
C16   H13   S    
C20   H2    S    
C32   H9    S    
C4    H16   S    
C3    H10   S    
C19   C20   S    
C21   H3    S    
C2    C30   A    
C22   N1    A    
Cu2   O8    S    
C6    C34   A    
C32   C33   A    
C2    C34   A    
C17   C18   A    
C23   O5    A    
C29   C31   S    
Cu2   O4    S    
C17   H1    S    
C26   N2    A    
C24   C25   A    
Cu1   O3    S    
Cu1   N2    S    
C24   H5    S    
C11   C13   A    
C26   C27   S    
C5    C6    A    
C21   H4    S    
C20   H14   S    
Cu1   O7    S    
C4    C5    A    
C29   O7    A    
C14   C21   S    
C5    C10   A    
C33   C34   A    
C24   N1    A    
C30   C31   A    
C13   H17   S    
C1    O1    A    
C1    O2    A    
C12   O4    A    
C7    C8    A    
C10   C11   A    
C3    C33   A    
C18   C23   S    
C28   H15   S    
C27   H7    S    
C7    C13   A    
Cu2   N1    S    
C20   C21   S    
Cu2   O6    S    
C9    H12   S    
C18   C19   A    
C22   C26   A    
C10   H11   S    
C23   O6    A    
C29   O8    A    
C14   C15   A    
Cu1   O1    S    
C22   C28   S    
Cu2   O2    S    
Cu1   O5    S    
C2    C9    A    
C14   C19   A    
C28   H8    S    
C31   C32   A    
C12   O3    A    
C3    C4    A    
C15   C16   A    
C16   C17   A    
C8    C9    A    
C27   C28   S    
Cu1   Cu2   S    
C30   Cl1   S    
