data_mof_unit_41671.cif
_audit_creation_date              2012-12-10T16:37:47-0500
_audit_creation_method            fapswitch 2.2
_symmetry_space_group_name_H-M    P1
_symmetry_Int_Tables_number       1
_space_group_crystal_system       triclinic
_cell_length_a                    28.317343
_cell_length_b                    18.645295
_cell_length_c                    16.694455
_cell_angle_alpha                 90.151942
_cell_angle_beta                  60.649038
_cell_angle_gamma                 90.119541
_cell_volume                      7682.91958218

loop_
_atom_site_label
_atom_site_type_symbol
_atom_type_description
_atom_site_fract_x
_atom_site_fract_y
_atom_site_fract_z
_atom_type_partial_charge
C1    C     C_R   0.699304 0.262581 0.677656 0.889301
C2    C     C_R   0.300696 0.737466 0.322315 0.923728
C3    C     C_R   0.300606 0.262809 0.322246 0.891351
C4    C     C_R   0.699389 0.737249 0.677786 0.924284
C5    C     C_R   0.199304 0.762581 0.677656 0.889297
C6    C     C_R   0.800696 0.237467 0.322315 0.923727
C7    C     C_R   0.800606 0.762809 0.322246 0.891350
C8    C     C_R   0.199389 0.237249 0.677786 0.924284
C9    C     C_R   0.903561 0.498301 0.489244 0.077707
C10   C     C_R   0.096436 0.501708 0.510779 0.076930
C11   C     C_R   0.403566 0.998300 0.489231 0.077703
C12   C     C_R   0.596440 0.001707 0.510770 0.076931
C13   C     C_R   0.075653 0.383739 0.579617 -0.134883
C14   C     C_R   0.924338 0.616283 0.420442 -0.136767
C15   C     C_R   0.883328 0.379722 0.556763 -0.130145
C16   C     C_R   0.116673 0.620283 0.443254 -0.130428
C17   C     C_R   0.575653 0.883741 0.579615 -0.134882
C18   C     C_R   0.424344 0.116281 0.420421 -0.136778
C19   C     C_R   0.383328 0.879725 0.556762 -0.130140
C20   C     C_R   0.616678 0.120281 0.443241 -0.130433
C21   C     C_R   0.722006 0.268178 0.951205 0.002457
C22   C     C_R   0.277749 0.731202 0.048533 0.007424
C23   C     C_R   0.277960 0.268241 0.048747 0.003019
C24   C     C_R   0.722252 0.731151 0.951568 0.007857
C25   C     C_R   0.222006 0.768176 0.951206 0.002460
C26   C     C_R   0.777749 0.231203 0.048533 0.007427
C27   C     C_R   0.777961 0.768241 0.048746 0.003020
C28   C     C_R   0.222252 0.231150 0.951568 0.007857
C29   C     C_R   0.753124 0.204628 0.928471 0.037082
C30   C     C_R   0.246526 0.794729 0.071478 0.062864
C31   C     C_R   0.246432 0.205086 0.071929 0.029444
C32   C     C_R   0.753860 0.794300 0.928216 0.054919
C33   C     C_R   0.253125 0.704627 0.928469 0.037093
C34   C     C_R   0.746527 0.294732 0.071477 0.062870
C35   C     C_R   0.746431 0.705088 0.071930 0.029446
C36   C     C_R   0.253859 0.294300 0.928217 0.054922
C37   C     C_R   0.783451 0.187801 0.973881 -0.012687
C38   C     C_R   0.216381 0.811722 0.025759 -0.011376
C39   C     C_R   0.216052 0.188403 0.026718 -0.011418
C40   C     C_R   0.784067 0.811145 0.973714 -0.010314
C41   C     C_R   0.283452 0.687801 0.973880 -0.012685
C42   C     C_R   0.716383 0.311725 0.025757 -0.011371
C43   C     C_R   0.716051 0.688406 0.026720 -0.011419
C44   C     C_R   0.284066 0.311145 0.973716 -0.010313
C45   C     C_R   0.658530 0.345437 0.929257 -0.011420
C46   C     C_R   0.341493 0.654141 0.070158 -0.013136
C47   C     C_R   0.341477 0.345652 0.070438 -0.012669
C48   C     C_R   0.658494 0.653926 0.930151 -0.014521
C49   C     C_R   0.158528 0.845435 0.929260 -0.011421
C50   C     C_R   0.841493 0.154142 0.070158 -0.013138
C51   C     C_R   0.841477 0.845652 0.070438 -0.012670
C52   C     C_R   0.158494 0.153924 0.930149 -0.014522
C53   C     C_R   0.622514 0.353861 0.891820 -0.182550
C54   C     C_R   0.377395 0.645860 0.107937 -0.185020
C55   C     C_R   0.377309 0.354262 0.108075 -0.182012
C56   C     C_R   0.622780 0.645460 0.892166 -0.184279
C57   C     C_R   0.122513 0.853860 0.891822 -0.182552
C58   C     C_R   0.877395 0.145861 0.107937 -0.185022
C59   C     C_R   0.877309 0.854262 0.108075 -0.182012
C60   C     C_R   0.122780 0.145460 0.892165 -0.184279
C61   C     C_R   0.627458 0.309220 0.821210 0.206088
C62   C     C_R   0.372290 0.690467 0.178688 0.187389
C63   C     C_R   0.372152 0.309902 0.178732 0.210951
C64   C     C_R   0.628097 0.689787 0.821368 0.192437
C65   C     C_R   0.127458 0.809219 0.821210 0.206087
C66   C     C_R   0.872290 0.190468 0.178688 0.187388
C67   C     C_R   0.872152 0.809903 0.178732 0.210947
C68   C     C_R   0.128097 0.189788 0.821368 0.192437
C69   C     C_R   0.672407 0.266171 0.778596 -0.205037
C70   C     C_R   0.327189 0.733208 0.221467 -0.172033
C71   C     C_R   0.327263 0.266792 0.221364 -0.211051
C72   C     C_R   0.673144 0.732584 0.778567 -0.179290
C73   C     C_R   0.172407 0.766170 0.778597 -0.205035
C74   C     C_R   0.827189 0.233209 0.221467 -0.172030
C75   C     C_R   0.827263 0.766792 0.221364 -0.211049
C76   C     C_R   0.173144 0.232584 0.778567 -0.179290
C77   C     C_R   0.697967 0.242495 0.829511 0.013171
C78   C     C_R   0.301190 0.756075 0.170971 0.041862
C79   C     C_R   0.301739 0.242937 0.170458 0.017467
C80   C     C_R   0.699106 0.755626 0.829059 0.047394
C81   C     C_R   0.197966 0.742494 0.829511 0.013178
C82   C     C_R   0.801191 0.256076 0.170971 0.041865
C83   C     C_R   0.801740 0.742937 0.170458 0.017469
C84   C     C_R   0.199106 0.255626 0.829059 0.047396
C85   C     C_R   0.699776 0.128720 0.507932 0.906364
C86   C     C_R   0.300218 0.871280 0.492088 0.920100
C87   C     C_R   0.306323 0.128173 0.472767 0.887798
C88   C     C_R   0.693681 0.871829 0.527218 0.906257
C89   C     C_R   0.199775 0.628719 0.507934 0.906362
C90   C     C_R   0.800217 0.371279 0.492091 0.920100
C91   C     C_R   0.806323 0.628173 0.472767 0.887791
C92   C     C_R   0.193681 0.371829 0.527218 0.906257
C93   C     C_R   0.693088 0.285472 0.903195 0.047563
C94   C     C_R   0.306601 0.713716 0.096608 0.029575
C95   C     C_R   0.306783 0.285738 0.096735 0.049721
C96   C     C_R   0.693520 0.713447 0.903475 0.032034
C97   C     C_R   0.193087 0.785470 0.903196 0.047562
C98   C     C_R   0.806601 0.213717 0.096607 0.029575
C99   C     C_R   0.806783 0.785738 0.096735 0.049720
C100  C     C_R   0.193520 0.213446 0.903475 0.032033
C101  C     C_R   0.657258 0.390254 0.998242 -0.190841
C102  C     C_R   0.343094 0.609617 0.000625 -0.185557
C103  C     C_R   0.343348 0.389777 0.000561 -0.189451
C104  C     C_R   0.656284 0.610104 0.000586 -0.184396
C105  C     C_R   0.157255 0.890251 0.998246 -0.190840
C106  C     C_R   0.843093 0.109617 0.000626 -0.185553
C107  C     C_R   0.843348 0.889777 0.000560 -0.189450
C108  C     C_R   0.156286 0.110101 0.000581 -0.184392
C109  C     C_R   0.679098 0.369353 0.052957 0.248341
C110  C     C_R   0.320927 0.630380 0.946316 0.244777
C111  C     C_R   0.321962 0.367949 0.945481 0.234889
C112  C     C_R   0.677970 0.631813 0.055299 0.231212
C113  C     C_R   0.179095 0.869348 0.052962 0.248335
C114  C     C_R   0.820926 0.130380 0.946318 0.244768
C115  C     C_R   0.821964 0.867948 0.945479 0.234891
C116  C     C_R   0.177972 0.131809 0.055295 0.231210
C117  C     C_R   0.723214 0.174704 0.816155 0.135902
C118  C     C_R   0.275560 0.823180 0.185283 0.129795
C119  C     C_R   0.276369 0.175134 0.183821 0.128605
C120  C     C_R   0.724825 0.822768 0.814794 0.120081
C121  C     C_R   0.223216 0.674704 0.816152 0.135904
C122  C     C_R   0.775561 0.323182 0.185282 0.129796
C123  C     C_R   0.776369 0.675134 0.183821 0.128607
C124  C     C_R   0.224824 0.322768 0.814796 0.120077
C125  C     C_R   0.747942 0.156140 0.868058 -0.115196
C126  C     C_R   0.251179 0.842716 0.132942 -0.173337
C127  C     C_R   0.251263 0.156656 0.132426 -0.135708
C128  C     C_R   0.749526 0.842242 0.866719 -0.192243
C129  C     C_R   0.247945 0.656140 0.868054 -0.115208
C130  C     C_R   0.751180 0.342718 0.132941 -0.173332
C131  C     C_R   0.751262 0.656657 0.132427 -0.135715
C132  C     C_R   0.249524 0.342243 0.866722 -0.192245
C133  C     C_R   0.077978 0.094908 0.929791 0.938317
C134  C     C_R   0.922042 0.905008 0.070249 0.933982
C135  C     C_R   0.922045 0.095011 0.070293 0.938441
C136  C     C_R   0.077931 0.904901 0.929668 0.934136
C137  C     C_R   0.577978 0.594908 0.929791 0.938316
C138  C     C_R   0.422042 0.405008 0.070249 0.933981
C139  C     C_R   0.422046 0.595011 0.070293 0.938444
C140  C     C_R   0.577931 0.404901 0.929668 0.934136
C141  C     C_R   0.569193 0.120453 0.436493 -0.033993
C142  C     C_R   0.430805 0.879564 0.563539 -0.033869
C143  C     C_R   0.472901 0.118363 0.424592 -0.033970
C144  C     C_R   0.527086 0.881668 0.575477 -0.034547
C145  C     C_R   0.069185 0.620458 0.436516 -0.034000
C146  C     C_R   0.930805 0.379560 0.563540 -0.033872
C147  C     C_R   0.972892 0.618368 0.424621 -0.033967
C148  C     C_R   0.027086 0.381665 0.575478 -0.034548
C149  C     C_R   0.555986 0.179355 0.398134 0.224713
C150  C     C_R   0.443991 0.820690 0.601971 0.224742
C151  C     C_R   0.507699 0.178706 0.393338 0.239130
C152  C     C_R   0.492260 0.821356 0.606826 0.238968
C153  C     C_R   0.055976 0.679363 0.398165 0.224714
C154  C     C_R   0.943995 0.320681 0.601960 0.224736
C155  C     C_R   0.007689 0.678713 0.393371 0.239125
C156  C     C_R   0.992263 0.321348 0.606815 0.238963
C157  C     C_R   0.486348 0.059439 0.462736 -0.012817
C158  C     C_R   0.513651 0.940575 0.537289 -0.012736
C159  C     C_R   0.534256 0.060572 0.469058 -0.011697
C160  C     C_R   0.465745 0.939440 0.530961 -0.011637
C161  C     C_R   0.986340 0.559444 0.462760 -0.012819
C162  C     C_R   0.013648 0.440575 0.537298 -0.012735
C163  C     C_R   0.034249 0.560577 0.469079 -0.011695
C164  C     C_R   0.965742 0.439439 0.530971 -0.011636
C165  C     C_R   0.952088 0.498933 0.493823 0.041948
C166  C     C_R   0.047906 0.501080 0.506215 0.042106
C167  C     C_R   0.452093 0.998930 0.493806 0.041950
C168  C     C_R   0.547911 0.001078 0.506201 0.042107
C169  C     C_R   0.870717 0.436852 0.515690 0.002774
C170  C     C_R   0.129284 0.563152 0.484322 0.002778
C171  C     C_R   0.112783 0.440881 0.541072 -0.012022
C172  C     C_R   0.887216 0.559128 0.458947 -0.011314
C173  C     C_R   0.370719 0.936852 0.515683 0.002773
C174  C     C_R   0.629288 0.063151 0.484313 0.002779
C175  C     C_R   0.612785 0.940881 0.541067 -0.012022
C176  C     C_R   0.387220 0.059128 0.458935 -0.011299
C177  C     C_R   0.823919 0.436571 0.505401 -0.187851
C178  C     C_R   0.176082 0.563431 0.494608 -0.184274
C179  C     C_R   0.167351 0.438349 0.525535 -0.182902
C180  C     C_R   0.832653 0.561653 0.474458 -0.180307
C181  C     C_R   0.323920 0.936572 0.505397 -0.187851
C182  C     C_R   0.676083 0.063431 0.494604 -0.184274
C183  C     C_R   0.667352 0.938350 0.525532 -0.182903
C184  C     C_R   0.332655 0.061654 0.474453 -0.180309
C185  C     C_R   0.799820 0.500731 0.507101 0.189856
C186  C     C_R   0.200184 0.499271 0.492894 0.187876
C187  C     C_R   0.299821 0.000732 0.507098 0.189852
C188  C     C_R   0.700185 0.999271 0.492892 0.187878
H1    H     H_    0.084235 0.341194 0.614066 0.211152
H2    H     H_    0.915764 0.658827 0.385982 0.210171
H3    H     H_    0.854217 0.337286 0.588783 0.201782
H4    H     H_    0.145788 0.662713 0.411217 0.201190
H5    H     H_    0.584235 0.841197 0.614066 0.211152
H6    H     H_    0.415767 0.158835 0.385973 0.210178
H7    H     H_    0.354216 0.837290 0.588785 0.201785
H8    H     H_    0.645792 0.162712 0.411209 0.201190
H9    H     H_    0.636212 0.440387 0.016556 0.182735
H10   H     H_    0.364442 0.559724 0.981721 0.183283
H11   H     H_    0.364665 0.439724 0.981445 0.186017
H12   H     H_    0.634675 0.560394 0.020277 0.186634
H13   H     H_    0.136209 0.940383 0.016561 0.182740
H14   H     H_    0.864441 0.059725 0.981722 0.183283
H15   H     H_    0.864666 0.939724 0.981444 0.186018
H16   H     H_    0.134677 0.060390 0.020269 0.186628
H17   H     H_    0.759424 0.100751 0.865093 0.186010
H18   H     H_    0.239305 0.898000 0.137103 0.180710
H19   H     H_    0.238961 0.101462 0.136020 0.192072
H20   H     H_    0.762173 0.897336 0.862015 0.186858
H21   H     H_    0.259430 0.600752 0.865084 0.186009
H22   H     H_    0.739307 0.398002 0.137103 0.180708
H23   H     H_    0.738958 0.601464 0.136023 0.192071
H24   H     H_    0.262170 0.397337 0.862020 0.186855
O1    O     O_R   0.746490 0.236330 0.638080 -0.648443
O2    O     O_R   0.253510 0.763670 0.361920 -0.629155
O3    O     O_R   0.253510 0.236330 0.361920 -0.640421
O4    O     O_R   0.746490 0.763670 0.638080 -0.621218
O5    O     O_R   0.246490 0.736330 0.638080 -0.648439
O6    O     O_R   0.753510 0.263670 0.361920 -0.629163
O7    O     O_R   0.753510 0.736330 0.361920 -0.640422
O8    O     O_R   0.246490 0.263670 0.638080 -0.621216
O9    O     O_R   0.674170 0.186160 0.516270 -0.626858
O10   O     O_R   0.325830 0.813840 0.483730 -0.625353
O11   O     O_R   0.325830 0.186160 0.483730 -0.625289
O12   O     O_R   0.674170 0.813840 0.516270 -0.625974
O13   O     O_R   0.174170 0.686160 0.516270 -0.626857
O14   O     O_R   0.825830 0.313840 0.483730 -0.625350
O15   O     O_R   0.825830 0.686160 0.483730 -0.625283
O16   O     O_R   0.174170 0.313840 0.516270 -0.625974
O17   O     O_R   0.739960 0.127620 0.525000 -0.594568
O18   O     O_R   0.260040 0.872380 0.475000 -0.581679
O19   O     O_R   0.260040 0.127620 0.475000 -0.587809
O20   O     O_R   0.739960 0.872380 0.525000 -0.577154
O21   O     O_R   0.239960 0.627620 0.525000 -0.594568
O22   O     O_R   0.760040 0.372380 0.475000 -0.581682
O23   O     O_R   0.760040 0.627620 0.475000 -0.587809
O24   O     O_R   0.239960 0.372380 0.525000 -0.577153
O25   O     O_R   0.680700 0.294870 0.629350 -0.553435
O26   O     O_R   0.319300 0.705130 0.370650 -0.561702
O27   O     O_R   0.319300 0.294870 0.370650 -0.547027
O28   O     O_R   0.680700 0.705130 0.629350 -0.555253
O29   O     O_R   0.180700 0.794870 0.629350 -0.553432
O30   O     O_R   0.819300 0.205130 0.370650 -0.561701
O31   O     O_R   0.819300 0.794870 0.370650 -0.547025
O32   O     O_R   0.180700 0.205130 0.629350 -0.555253
O33   O     O_R   0.062020 0.072840 0.007170 -0.632758
O34   O     O_R   0.937980 0.927160 0.992830 -0.631518
O35   O     O_R   0.937980 0.072840 0.992830 -0.627467
O36   O     O_R   0.062020 0.927160 0.007170 -0.626286
O37   O     O_R   0.562020 0.572840 0.007170 -0.632761
O38   O     O_R   0.437980 0.427160 0.992830 -0.631517
O39   O     O_R   0.437980 0.572840 0.992830 -0.627467
O40   O     O_R   0.562020 0.427160 0.007170 -0.626281
O41   O     O_R   0.947860 0.073950 0.109290 -0.564366
O42   O     O_R   0.052140 0.926050 0.890710 -0.564262
O43   O     O_R   0.052140 0.073950 0.890710 -0.559476
O44   O     O_R   0.947860 0.926050 0.109290 -0.559440
O45   O     O_R   0.447860 0.573950 0.109290 -0.564368
O46   O     O_R   0.552140 0.426050 0.890710 -0.564262
O47   O     O_R   0.552140 0.573950 0.890710 -0.559475
O48   O     O_R   0.447860 0.426050 0.109290 -0.559439
Zn1   Zn    Zn3+2 0.792340 0.208750 0.507670 1.084621
Zn2   Zn    Zn3+2 0.207660 0.791250 0.492330 1.096406
Zn3   Zn    Zn3+2 0.207660 0.208750 0.492330 1.090018
Zn4   Zn    Zn3+2 0.792340 0.791250 0.507670 1.101683
Zn5   Zn    Zn3+2 0.292340 0.708750 0.507670 1.084613
Zn6   Zn    Zn3+2 0.707660 0.291250 0.492330 1.096392
Zn7   Zn    Zn3+2 0.707660 0.708750 0.492330 1.090012
Zn8   Zn    Zn3+2 0.292340 0.291250 0.507670 1.101676
Zn9   Zn    Zn3+2 0.505960 0.500000 0.080520 1.140717
Zn10  Zn    Zn3+2 0.494040 0.500000 0.919480 1.140767
Zn11  Zn    Zn3+2 0.005960 0.000000 0.080520 1.140718
Zn12  Zn    Zn3+2 0.994040 0.000000 0.919480 1.140768
Br1   Br    Br    0.011237 0.236849 0.651347 -0.319771
Br2   Br    Br    0.988629 0.763305 0.349151 -0.320139
Br3   Br    Br    0.897103 0.237452 0.646082 -0.381635
Br4   Br    Br    0.102858 0.762608 0.354079 -0.382630
Br5   Br    Br    0.511226 0.736863 0.651378 -0.319776
Br6   Br    Br    0.488639 0.263298 0.349115 -0.320145
Br7   Br    Br    0.397091 0.737473 0.646117 -0.381668
Br8   Br    Br    0.602872 0.262593 0.354034 -0.382661
Br9   Br    Br    0.720915 0.504088 0.579985 -0.430948
Br10  Br    Br    0.279089 0.495918 0.420011 -0.430682
Br11  Br    Br    0.220917 0.004089 0.579984 -0.430943
Br12  Br    Br    0.779090 0.995918 0.420012 -0.430677
Br13  Br    Br    0.571168 0.297376 0.787622 -0.391939
Br14  Br    Br    0.428657 0.702793 0.212039 -0.385472
Br15  Br    Br    0.428949 0.296700 0.210045 -0.379520
Br16  Br    Br    0.571240 0.703457 0.790250 -0.373810
Br17  Br    Br    0.071168 0.797376 0.787622 -0.391935
Br18  Br    Br    0.928657 0.202793 0.212040 -0.385468
Br19  Br    Br    0.928949 0.796702 0.210046 -0.379523
Br20  Br    Br    0.071240 0.203458 0.790250 -0.373820
Br21  Br    Br    0.639590 0.407017 0.176320 -0.371999
Br22  Br    Br    0.359890 0.592562 0.822962 -0.370862
Br23  Br    Br    0.363085 0.401255 0.820291 -0.424373
Br24  Br    Br    0.637361 0.598367 0.180510 -0.423296
Br25  Br    Br    0.139586 0.907008 0.176327 -0.371988
Br26  Br    Br    0.859885 0.092558 0.822966 -0.370874
Br27  Br    Br    0.863087 0.901252 0.820288 -0.424358
Br28  Br    Br    0.137366 0.098356 0.180503 -0.423298
N1    N     N_3   0.717217 0.118848 0.762241 -0.447756
H25   H     H_    0.684463 0.128441 0.751390 0.192125
H26   H     H_    0.752819 0.116066 0.698930 0.241572
N2    N     N_3   0.279998 0.875513 0.244364 -0.422934
H27   H     H_    0.240915 0.892453 0.291921 0.233058
H28   H     H_    0.301012 0.919871 0.204515 0.187930
N3    N     N_3   0.282548 0.119252 0.237180 -0.448147
H29   H     H_    0.315296 0.129006 0.248080 0.183177
H30   H     H_    0.246969 0.116116 0.300478 0.233391
N4    N     N_3   0.720217 0.875117 0.756209 -0.434213
H31   H     H_    0.759253 0.892124 0.708494 0.226447
H32   H     H_    0.699315 0.919444 0.796407 0.190348
N5    N     N_3   0.217224 0.618847 0.762230 -0.447749
H33   H     H_    0.184478 0.628446 0.751359 0.192129
H34   H     H_    0.252832 0.616061 0.698928 0.241567
N6    N     N_3   0.779999 0.375514 0.244364 -0.422933
H35   H     H_    0.740914 0.392446 0.291930 0.233062
H36   H     H_    0.801006 0.419878 0.204518 0.187930
N7    N     N_3   0.782546 0.619252 0.237183 -0.448146
H37   H     H_    0.815292 0.629007 0.248088 0.183178
H38   H     H_    0.746965 0.616116 0.300478 0.233389
N8    N     N_3   0.220216 0.375117 0.756211 -0.434210
H39   H     H_    0.259253 0.392127 0.708499 0.226444
H40   H     H_    0.199311 0.419442 0.796412 0.190348

loop_
_geom_bond_atom_site_label_1
_geom_bond_atom_site_label_2
_ccdc_geom_bond_type
N8    H40   S    
C85   C182  S    
C109  Br21  S    
C104  H12   S    
C9    C169  A    
C34   C42   A    
O12   Zn7   S    
C181  C187  A    
N1    H25   S    
C27   C99   A    
C140  O46   A    
C170  C178  A    
C175  C183  A    
O33   Zn11  S    
C42   C109  A    
O34   Zn12  S    
C24   C96   A    
C8    O32   A    
C3    O3    A    
C67   Br19  S    
C30   C38   A    
C115  Br27  S    
C149  Br8   S    
O48   Zn9   S    
C127  H19   S    
C5    O5    A    
C147  C155  A    
C63   Br15  S    
C91   O15   A    
C64   Br16  S    
C143  C151  A    
C90   C177  S    
C11   C167  A    
C82   C98   A    
C149  C151  A    
C76   C84   A    
C73   C81   A    
C161  C163  A    
O15   Zn4   S    
C162  C164  A    
C138  O48   A    
C123  N7    S    
C84   C100  A    
C85   O17   A    
C57   C65   A    
C187  Br11  S    
C37   C114  A    
C27   C35   A    
C10   C171  A    
C21   C29   A    
C92   O24   A    
C81   C121  A    
N6    H35   S    
C87   O11   A    
C24   C32   A    
C146  C154  A    
O32   Zn3   S    
O47   Zn10  S    
C88   O20   A    
C63   C71   A    
C2    O2    A    
C36   C44   A    
C129  H21   S    
C12   C174  A    
C176  C184  A    
C15   H3    S    
C48   C96   A    
C90   O14   A    
C60   C68   A    
C148  C162  A    
C124  N8    S    
C183  C188  A    
O35   Zn12  S    
C108  C116  A    
O36   Zn11  S    
C21   C93   A    
C78   C94   A    
C125  H17   S    
O6    Zn6   S    
C23   C95   A    
O27   Zn8   S    
C152  Br5   S    
C49   C97   A    
C21   C42   A    
C22   C41   A    
C89   O13   A    
C51   C107  A    
C24   C43   A    
C128  H20   S    
C82   C122  A    
C161  C165  A    
C17   C175  A    
C18   C176  A    
C188  Br12  S    
C4    O4    A    
C29   C125  A    
C18   H6    S    
C69   C77   A    
C31   C127  A    
C45   C93   A    
C174  C182  A    
C71   C79   A    
C179  C186  A    
C62   C70   A    
C11   C176  A    
C119  N3    S    
C17   C144  A    
C105  C113  A    
C18   C143  A    
C78   C118  A    
O41   Zn11  S    
C36   C132  A    
C101  H9    S    
O40   Zn9   S    
N5    H34   S    
C66   C74   A    
C91   O23   A    
C8    C76   S    
C49   C57   A    
C124  C132  A    
C89   O21   A    
C150  Br7   S    
C52   C60   A    
C59   C67   A    
C53   C61   A    
C141  C159  A    
C20   C174  A    
C55   C63   A    
C86   C181  S    
C56   C64   A    
C35   C43   A    
O16   Zn3   S    
N2    H28   S    
C45   C53   A    
C6    O6    A    
C22   C94   A    
C171  C179  A    
C155  Br2   S    
C169  C177  A    
O43   Zn12  S    
C137  O47   A    
O23   Zn7   S    
O44   Zn11  S    
O24   Zn8   S    
C50   C98   A    
C111  Br23  S    
C135  O35   A    
C20   H8    S    
C104  C112  A    
C145  C163  A    
C1    O25   A    
C146  C164  A    
C14   C147  A    
C52   C100  A    
O1    Zn1   S    
C16   C145  A    
C178  C186  A    
C62   Br14  S    
C107  H15   S    
C25   C38   A    
C105  H13   S    
C54   C139  S    
C46   C94   A    
C27   C40   A    
C10   C166  A    
C107  C115  A    
C91   C180  S    
C50   C58   A    
C182  C188  A    
C89   C178  S    
O14   Zn1   S    
C28   C36   A    
O11   Zn8   S    
C25   C97   A    
C131  H23   S    
C67   C75   A    
C117  N1    S    
C50   C106  A    
O19   Zn3   S    
C116  Br28  S    
C113  Br25  S    
C22   C30   A    
C120  N4    S    
C20   C141  A    
C138  O38   A    
C15   C146  A    
C103  C111  A    
O17   Zn1   S    
C58   C135  S    
C68   C76   A    
C59   C134  S    
C184  C187  A    
C32   C128  A    
C144  C152  A    
C56   C137  S    
C134  O34   A    
C5    C73   S    
O21   Zn5   S    
C14   H2    S    
C13   C171  A    
O45   Zn9   S    
O31   Zn4   S    
C3    O27   A    
C6    O30   A    
C85   O9    A    
C25   C33   A    
C119  C127  A    
O18   Zn2   S    
C140  O40   A    
C157  C167  A    
C30   C126  A    
C158  C168  A    
C110  Br22  S    
O7    Zn7   S    
C164  C165  A    
C151  Br6   S    
C40   C115  A    
C101  C109  A    
C177  C185  A    
C136  O36   A    
N6    H36   S    
C162  C166  A    
C79   C119  A    
C153  C155  A    
O20   Zn4   S    
C154  C156  A    
C172  C180  A    
N8    H39   S    
C173  C181  A    
C157  C159  A    
C83   C99   A    
C158  C160  A    
C133  O43   A    
C74   C82   A    
O39   Zn10  S    
C6    C74   S    
N4    H32   S    
N1    H26   S    
C47   C103  A    
C141  C149  A    
N3    H29   S    
C112  Br24  S    
O3    Zn3   S    
C163  C166  A    
O4    Zn4   S    
C7    O31   A    
C147  C161  A    
C33   C129  A    
C38   C113  A    
C49   C105  A    
C54   C62   A    
C28   C39   A    
C1    C69   S    
C23   C44   A    
O25   Zn6   S    
C86   O18   A    
C3    C71   S    
C19   C173  A    
C79   C95   A    
C92   C179  S    
O37   Zn9   S    
C46   C54   A    
C4    O28   A    
C156  Br1   S    
C45   C101  A    
C19   C142  A    
O5    Zn5   S    
O29   Zn2   S    
C68   Br20  S    
C1    O1    A    
C102  C110  A    
C35   C131  A    
C4    C72   S    
C65   Br17  S    
N4    H31   S    
C123  C131  A    
O2    Zn2   S    
C121  C129  A    
C137  O37   A    
C120  C128  A    
C26   C37   A    
C10   C170  A    
C33   C41   A    
C142  C150  A    
C9    C165  A    
C134  O44   A    
C66   Br18  S    
C75   C83   A    
N5    H33   S    
C126  H18   S    
C139  O45   A    
O42   Zn12  S    
O46   Zn10  S    
N7    H37   S    
C44   C111  A    
C16   C170  A    
C92   O16   A    
C72   C80   A    
C39   C116  A    
C29   C37   A    
C114  Br26  S    
C9    C172  A    
C148  C156  A    
C83   C123  A    
C2    C70   S    
C60   C133  S    
C23   C31   A    
C80   C120  A    
C19   H7    S    
C70   C78   A    
C53   C140  S    
C17   H5    S    
C132  H24   S    
C65   C73   A    
C46   C102  A    
C90   O22   A    
C55   C138  S    
C81   C97   A    
C106  C114  A    
C136  O42   A    
C77   C117  A    
C102  H10   S    
O22   Zn6   S    
C121  N5    S    
C48   C104  A    
C13   H1    S    
C159  C168  A    
C15   C169  A    
C160  C167  A    
O9    Zn6   S    
C186  Br10  S    
C26   C34   A    
C57   C136  S    
C61   Br13  S    
C80   C96   A    
C16   H4    S    
C145  C153  A    
C28   C100  A    
C32   C40   A    
O28   Zn7   S    
O13   Zn2   S    
C58   C66   A    
C143  C157  A    
C51   C99   A    
C11   C173  A    
C14   C172  A    
C87   C184  S    
O10   Zn5   S    
C2    O26   A    
C88   C183  S    
C7    C75   S    
N3    H30   S    
C8    O8    A    
C106  H14   S    
C88   O12   A    
C118  N2    S    
C103  H11   S    
C135  O41   A    
C34   C130  A    
C26   C98   A    
C12   C175  A    
N2    H27   S    
C41   C110  A    
C150  C152  A    
C130  H22   S    
C51   C59   A    
C43   C112  A    
O38   Zn10  S    
C144  C158  A    
O8    Zn8   S    
C77   C93   A    
C47   C55   A    
C61   C69   A    
C48   C56   A    
O26   Zn5   S    
C139  O39   A    
C142  C160  A    
C12   C168  A    
C84   C124  A    
C118  C126  A    
C122  N6    S    
C7    O7    A    
C108  H16   S    
C185  Br9   S    
C87   O19   A    
O30   Zn1   S    
C31   C39   A    
C153  Br4   S    
C64   C72   A    
C154  Br3   S    
C180  C185  A    
C52   C108  A    
C133  O33   A    
C47   C95   A    
N7    H38   S    
C86   O10   A    
C13   C148  A    
C5    O29   A    
C117  C125  A    
C122  C130  A    
