data_mof_unit_7338.cif
_audit_creation_date              2012-12-11T15:32:36-0500
_audit_creation_method            fapswitch 2.2
_symmetry_space_group_name_H-M    P1
_symmetry_Int_Tables_number       1
_space_group_crystal_system       triclinic
_cell_length_a                    6.952283
_cell_length_b                    20.439014
_cell_length_c                    24.422018
_cell_angle_alpha                 89.536881
_cell_angle_beta                  90.363497
_cell_angle_gamma                 89.353533
_cell_volume                      3469.90914546

loop_
_atom_site_label
_atom_site_type_symbol
_atom_type_description
_atom_site_fract_x
_atom_site_fract_y
_atom_site_fract_z
_atom_type_partial_charge
O1    O     O_R   0.507320 0.423560 0.460500 -0.536390
O2    O     O_R   0.170760 0.556250 0.437010 -0.537037
O3    O     O_R   0.004030 0.576440 0.539500 -0.536377
C1    C     C_R   0.338824 0.576431 0.421052 0.724726
O4    O     O_R   0.177370 0.422820 0.454110 -0.537917
O5    O     O_R   0.010680 0.442050 0.556720 -0.535310
C2    C     C_R   0.346522 0.398823 0.443604 0.694265
O6    O     O_R   0.500680 0.557950 0.443280 -0.535024
O7    O     O_3   0.340380 0.506470 0.533650 -0.367049
V1    V     V_3+5 0.064130 0.498800 0.493760 1.424130
O8    O     O_R   0.681160 0.443750 0.562990 -0.537940
C3    C     C_R   0.850904 0.423672 0.578890 0.726012
O9    O     O_R   0.674560 0.577180 0.545890 -0.537941
C4    C     C_R   0.842473 0.601047 0.556666 0.693667
V2    V     V_3+5 0.564560 0.501200 0.506240 1.424447
O10   O     O_3   0.838180 0.493530 0.466350 -0.366708
C5    C     C_R   0.977439 0.838184 0.911067 -0.040599
C6    C     C_R   0.846458 0.661761 0.588918 -0.042715
C7    C     C_R   0.047797 0.722368 0.905513 -0.164382
C8    C     C_R   0.036835 0.779579 0.935864 -0.170276
C9    C     C_R   0.929550 0.839281 0.854976 -0.216014
C10   C     C_R   0.943018 0.781582 0.822618 0.086254
C11   C     C_R   0.002994 0.722861 0.849390 0.141272
C12   C     C_R   0.901996 0.780064 0.764828 0.058278
C13   C     C_R   0.921802 0.719874 0.735164 0.058454
C14   C     C_R   0.981285 0.663235 0.764316 -0.188451
C15   C     C_R   0.020431 0.664880 0.820082 -0.203952
C16   C     C_R   0.842469 0.836700 0.735678 -0.188519
C17   C     C_R   0.803298 0.835054 0.679914 -0.202995
C18   C     C_R   0.820774 0.777075 0.650604 0.140424
C19   C     C_R   0.880800 0.718359 0.677373 0.086519
C20   C     C_R   0.775960 0.777567 0.594481 -0.162877
C21   C     C_R   0.786982 0.720359 0.564126 -0.167626
C22   C     C_R   0.894349 0.660665 0.645009 -0.215688
H1    H     H_    0.066298 0.620015 0.840524 0.120430
H2    H     H_    0.936618 0.613901 0.662098 0.093660
H3    H     H_    0.747615 0.721680 0.521127 0.106702
H4    H     H_    0.757388 0.879915 0.659474 0.121266
H5    H     H_    0.094381 0.677578 0.925904 0.110582
H6    H     H_    0.076203 0.778258 0.978864 0.104178
H7    H     H_    0.887368 0.886051 0.837883 0.093380
H8    H     H_    0.999814 0.616358 0.745190 0.122228
H9    H     H_    0.823898 0.883574 0.754807 0.122212
H10   H     H_    0.729328 0.822353 0.574093 0.112565
C23   C     C_3   0.815737 0.303370 0.766790 -0.139596
C24   C     C_3   0.008469 0.277584 0.791470 -0.139363
H11   H     H_    0.088157 0.300114 0.825903 0.107015
H12   H     H_    0.736006 0.347622 0.780424 0.107499
H13   H     H_    0.232918 0.281580 0.718762 0.110849
C25   C     C_1   0.960678 0.121781 0.875245 -0.194442
C26   C     C_1   0.863654 0.378168 0.624728 -0.194862
C27   C     C_3   0.736482 0.232761 0.767010 -0.140487
C28   C     C_3   0.929002 0.207599 0.791074 0.171144
C29   C     C_3   0.815903 0.222364 0.708500 -0.139038
C30   C     C_3   0.895370 0.292348 0.708896 0.171127
C31   C     C_3   0.008635 0.196578 0.733181 -0.139589
C32   C     C_3   0.087890 0.267187 0.732961 -0.140519
C33   C     C_1   0.947310 0.160289 0.837207 -0.067758
C34   C     C_1   0.877046 0.339660 0.662765 -0.067136
H14   H     H_    0.088367 0.152325 0.719547 0.107934
H15   H     H_    0.736217 0.199833 0.674068 0.107921
H16   H     H_    0.591454 0.218369 0.781208 0.110594
C35   C     C_3   0.525724 0.723376 0.211997 -0.144920
C36   C     C_3   0.330249 0.695700 0.231170 -0.141347
H17   H     H_    0.262366 0.650544 0.215607 0.107895
H18   H     H_    0.619842 0.701341 0.180387 0.107372
H19   H     H_    0.098215 0.778047 0.209375 0.114830
C37   C     C_1   0.348890 0.622141 0.375101 -0.195295
C38   C     C_1   0.475319 0.878166 0.125097 -0.163487
C39   C     C_3   0.584029 0.735134 0.272503 -0.141940
C40   C     C_3   0.388779 0.708045 0.291096 0.166313
C41   C     C_3   0.494079 0.804867 0.269201 -0.125842
C42   C     C_3   0.435541 0.792513 0.209276 0.165345
C43   C     C_3   0.298598 0.777184 0.288380 -0.136424
C44   C     C_3   0.240296 0.765427 0.227871 -0.136865
C45   C     C_1   0.364443 0.660714 0.337123 -0.064464
C46   C     C_1   0.459820 0.839744 0.163179 -0.049227
H20   H     H_    0.204486 0.799217 0.319992 0.112295
H21   H     H_    0.561956 0.850032 0.284748 0.123516
H22   H     H_    0.726112 0.722517 0.290999 0.113005
C47   C     C_R   0.465487 0.160573 0.090260 -0.063273
C48   C     C_R   0.353145 0.337931 0.411760 -0.041993
C49   C     C_R   0.440022 0.278540 0.092146 -0.160568
C50   C     C_R   0.444133 0.220488 0.062966 -0.204970
C51   C     C_R   0.474053 0.158511 0.148255 0.060237
C52   C     C_R   0.439122 0.217240 0.178705 0.056547
C53   C     C_R   0.439880 0.277562 0.149492 0.122539
C54   C     C_R   0.402717 0.219214 0.236470 0.065273
C55   C     C_R   0.410966 0.280046 0.265296 0.057357
C56   C     C_R   0.434974 0.337984 0.234433 -0.183358
C57   C     C_R   0.440740 0.336756 0.177600 -0.190097
C58   C     C_R   0.335547 0.163955 0.264873 -0.136383
C59   C     C_R   0.302580 0.165149 0.320835 -0.192224
C60   C     C_R   0.327307 0.222510 0.350494 0.132538
C61   C     C_R   0.381211 0.281217 0.323427 0.086065
C62   C     C_R   0.288894 0.222113 0.406818 -0.157241
C63   C     C_R   0.299516 0.279448 0.436959 -0.168067
C64   C     C_R   0.396665 0.338792 0.355602 -0.213946
H23   H     H_    0.447222 0.382816 0.155369 0.118220
H24   H     H_    0.438990 0.385080 0.338282 0.094541
H25   H     H_    0.263771 0.278371 0.480073 0.105729
H26   H     H_    0.252068 0.121062 0.340823 0.131791
H27   H     H_    0.434090 0.324508 0.069720 0.114965
H28   H     H_    0.438842 0.222441 0.018625 0.110938
H29   H     H_    0.437101 0.385726 0.252755 0.119848
H30   H     H_    0.294467 0.120237 0.243599 0.168788
H31   H     H_    0.245887 0.177482 0.427402 0.113373
O11   O     O_R   0.323550 0.942140 0.056770 -0.535189
O12   O     O_R   0.647080 0.077200 0.045890 -0.526804
O13   O     O_R   0.813610 0.057920 0.943260 -0.537915
C65   C     C_R   0.477542 0.100809 0.056910 0.746292
O14   O     O_R   0.653470 0.943760 0.063000 -0.529704
O15   O     O_R   0.820050 0.923540 0.960490 -0.540191
C66   C     C_R   0.485391 0.923672 0.079012 0.751910
O16   O     O_R   0.317110 0.076520 0.039540 -0.535829
O17   O     O_3   0.483830 0.993580 0.966380 -0.375238
V3    V     V_3+5 0.760140 0.001190 0.006240 1.464077
O18   O     O_R   0.149510 0.922740 0.954070 -0.540908
C67   C     C_R   0.981549 0.898901 0.943312 0.684750
O19   O     O_R   0.143120 0.056170 0.936970 -0.540909
C68   C     C_R   0.973395 0.076278 0.921083 0.719620
V4    V     V_3+5 0.259690 0.998700 0.993700 1.439965
O20   O     O_3   0.986130 0.006420 0.033620 -0.355930
I1    I     I_    0.596029 0.071087 0.184513 -0.450537

loop_
_geom_bond_atom_site_label_1
_geom_bond_atom_site_label_2
_ccdc_geom_bond_type
C13   C19   A    
C49   C53   A    
C59   C60   A    
C53   C57   A    
C48   C64   A    
C4    C6    S    
C38   C46   T    
C7    C8    A    
C1    O6    A    
C3    C26   S    
O14   C66   A    
C61   C64   A    
O12   V3    S    
V1    O10   S    
C23   C24   S    
C31   C32   S    
C14   C15   A    
O17   V4    S    
C7    H5    S    
C16   C17   A    
C41   H21   S    
C30   C34   S    
O12   C65   A    
O13   C68   A    
O5    C3    A    
C18   C19   A    
C8    H6    S    
C52   C54   A    
C28   C31   S    
V2    O10   S    
C5    C8    A    
H13   C32   S    
O17   V3    S    
C51   I1    S    
O18   V4    S    
C36   C40   S    
O11   C66   A    
O18   C67   A    
O15   C67   A    
O8    V2    S    
C47   C65   S    
O19   V4    S    
C17   H4    S    
C39   C40   S    
O1    V2    S    
C11   C15   A    
O7    V1    S    
C22   H2    S    
C35   H18   S    
O16   V4    S    
O9    C4    A    
C42   C44   S    
C25   C68   S    
O13   V3    S    
C27   C29   S    
C10   C11   A    
C29   C31   S    
C38   C66   S    
C43   C44   S    
C39   H22   S    
C25   C33   T    
C54   C58   A    
C12   C13   A    
C41   C43   S    
C1    C37   S    
C52   C53   A    
C35   C42   S    
C23   C27   S    
C15   H1    S    
C13   C14   A    
C51   C52   A    
C21   H3    S    
C31   H14   S    
C55   C61   A    
O2    C1    A    
C17   C18   A    
C49   C50   A    
C35   C39   S    
C28   C33   S    
C63   H25   S    
C62   C63   A    
C20   H10   S    
C19   C22   A    
C24   H11   S    
C60   C62   A    
C6    C22   A    
O3    C4    A    
C49   H27   S    
O15   V3    S    
C58   H30   S    
C62   H31   S    
O6    V2    S    
C64   H24   S    
O9    V2    S    
C24   C32   S    
C50   H28   S    
C48   C63   A    
C9    H7    S    
C26   C34   T    
O2    V1    S    
C47   C50   A    
C27   C28   S    
C14   H8    S    
O4    C2    A    
C23   H12   S    
C29   C30   S    
O1    C2    A    
C12   C16   A    
C56   H29   S    
O11   V4    S    
C41   C42   S    
C59   H26   S    
O5    V1    S    
C40   C43   S    
C65   O16   A    
O8    C3    A    
C29   H15   S    
C37   C45   T    
C16   H9    S    
O14   V3    S    
C20   C21   A    
C30   C32   S    
V3    O20   S    
O4    V1    S    
O3    V1    S    
C27   H16   S    
C36   H17   S    
C18   C20   A    
C56   C57   A    
C40   C45   S    
C24   C28   S    
C58   C59   A    
C36   C44   S    
C10   C12   A    
O7    V2    S    
C60   C61   A    
C6    C21   A    
C5    C9    A    
C5    C67   S    
C35   C36   S    
C7    C11   A    
C2    C48   S    
H19   C44   S    
C54   C55   A    
C23   C30   S    
C43   H20   S    
V4    O20   S    
C42   C46   S    
O19   C68   A    
C39   C41   S    
C57   H23   S    
C55   C56   A    
C9    C10   A    
C47   C51   A    
