data_mof_unit_27042.cif
_audit_creation_date              2012-12-10T17:48:38-0500
_audit_creation_method            fapswitch 2.2
_symmetry_space_group_name_H-M    P1
_symmetry_Int_Tables_number       1
_space_group_crystal_system       triclinic
_cell_length_a                    15.784811
_cell_length_b                    10.646955
_cell_length_c                    9.9709
_cell_angle_alpha                 87.296041
_cell_angle_beta                  91.633638
_cell_angle_gamma                 95.84038
_cell_volume                      1664.68295017

loop_
_atom_site_label
_atom_site_type_symbol
_atom_type_description
_atom_site_fract_x
_atom_site_fract_y
_atom_site_fract_z
_atom_type_partial_charge
C1    C     C_R   0.500319 0.260716 0.503235 0.881086
C2    C     C_R   0.705073 0.078967 0.693484 0.184068
C3    C     C_R   0.719619 0.964466 0.641087 -0.154433
C4    C     C_R   0.338638 0.499650 0.498381 0.913447
C5    C     C_R   0.658044 0.902546 0.557452 0.086463
C6    C     C_R   0.577057 0.946889 0.540629 0.003209
C7    C     C_R   0.569018 0.071577 0.570708 0.044633
C8    C     C_R   0.499798 0.128049 0.511322 -0.090084
C9    C     C_R   0.433107 0.059085 0.444520 -0.155671
C10   C     C_R   0.432878 0.929961 0.437986 0.168106
C11   C     C_R   0.505454 0.874349 0.486709 -0.089055
C12   C     C_3   0.941357 0.370656 0.550426 -0.508546
C13   C     C_R   0.371613 0.359328 0.147864 -0.162743
C14   C     C_R   0.295984 0.313248 0.087572 0.128108
C15   C     C_R   0.284846 0.330537 0.950882 -0.179919
C16   C     C_R   0.502034 0.740047 0.496516 0.905402
C17   C     C_R   0.355537 0.368002 0.871223 0.193769
C18   C     C_R   0.432176 0.432586 0.929723 0.073239
C19   C     C_R   0.434972 0.432017 0.074534 0.092243
C20   C     C_R   0.562559 0.565025 0.071911 -0.068056
C21   C     C_R   0.563823 0.564395 0.929417 0.202420
C22   C     C_R   0.661359 0.496704 0.501923 0.906633
C23   C     C_3   0.917787 0.502655 0.498694 0.072378
C24   C     C_3   0.039147 0.366581 0.549756 -0.028074
C25   C     C_3   0.048510 0.537247 0.346175 0.244385
C26   C     C_3   0.948523 0.522664 0.350354 0.055127
C27   C     C_1   0.750603 0.498008 0.505334 -0.105525
C28   C     C_3   0.083260 0.497343 0.492722 0.182328
C29   C     C_3   0.355620 0.853842 0.379786 -0.827584
C30   C     C_3   0.063702 0.245090 0.489140 -0.790078
C31   C     C_3   0.638807 0.635276 0.860764 -0.754517
C32   C     C_3   0.084021 0.675524 0.304091 -0.767905
C33   C     C_3   0.077539 0.455330 0.234489 -0.785300
C34   C     C_3   0.963321 0.601456 0.594892 -0.004404
C35   C     C_3   0.061200 0.598294 0.592507 -0.129098
C36   C     C_1   0.826116 0.500996 0.504071 0.039599
C37   C     C_1   0.174752 0.496168 0.494105 -0.016423
C38   C     C_1   0.249915 0.497419 0.495226 -0.138800
C39   C     C_R   0.632942 0.136780 0.651119 -0.217732
H1    H     H_    0.907540 0.295740 0.488704 0.218521
H2    H     H_    0.924465 0.434482 0.299796 0.142630
H3    H     H_    0.092563 0.692725 0.561988 0.193940
H4    H     H_    0.941390 0.574507 0.698281 0.186135
H5    H     H_    0.373386 0.806025 0.289643 0.258956
H6    H     H_    0.304393 0.914299 0.349147 0.256646
H7    H     H_    0.329307 0.781918 0.455867 0.221755
H8    H     H_    0.052564 0.164886 0.564081 0.264773
H9    H     H_    0.024002 0.217820 0.399964 0.257899
H10   H     H_    0.132088 0.253360 0.464772 0.271699
H11   H     H_    0.618175 0.693647 0.773808 0.263054
H12   H     H_    0.060507 0.355696 0.656450 0.218602
H13   H     H_    0.675816 0.700690 0.929431 0.220843
H14   H     H_    0.682567 0.567646 0.829439 0.254089
H15   H     H_    0.073288 0.696941 0.195134 0.277709
H16   H     H_    0.053107 0.747025 0.356770 0.262479
H17   H     H_    0.153841 0.691322 0.323355 0.226929
H18   H     H_    0.050790 0.356088 0.244126 0.246882
H19   H     H_    0.054934 0.489949 0.134155 0.266830
H20   H     H_    0.148043 0.459820 0.232364 0.265604
H21   H     H_    0.919036 0.350574 0.654754 0.221869
H22   H     H_    0.380294 0.106219 0.401093 0.166295
H23   H     H_    0.628003 0.231170 0.682805 0.186445
H24   H     H_    0.780968 0.928963 0.657263 0.207466
H25   H     H_    0.613581 0.617367 0.126891 0.177537
H26   H     H_    0.379606 0.334915 0.251957 0.215244
H27   H     H_    0.225314 0.289154 0.907233 0.206638
I1    I     I_    0.930321 0.792354 0.565982 -0.319512
I2    I     I_    0.796549 0.171791 0.822642 -0.353590
I3    I     I_    0.704636 0.802111 0.403090 -0.284278
I4    I     I_    0.206351 0.192605 0.197842 -0.423865
I5    I     I_    0.338116 0.231019 0.721370 -0.332736
I6    I     I_    0.883976 0.654803 0.220630 -0.283919
I7    I     I_    0.114019 0.576712 0.795107 -0.379514
N1    N     N_R   0.499210 0.498800 0.142780 -0.129036
N2    N     N_R   0.499180 0.498720 0.857170 -0.109338
O1    O     O_R   0.500000 0.316780 0.614690 -0.600043
O2    O     O_R   0.499990 0.316750 0.385360 -0.632606
O3    O     O_R   0.377150 0.500020 0.614720 -0.585673
O4    O     O_R   0.377140 0.499990 0.385380 -0.639373
O5    O     O_R   0.500010 0.683250 0.614640 -0.617146
O6    O     O_R   0.500000 0.683220 0.385310 -0.597702
O7    O     O_R   0.622860 0.500010 0.614620 -0.631715
O8    O     O_R   0.622850 0.499980 0.385280 -0.587554
Zn1   Zn    Zn3+2 0.500010 0.500020 0.653130 0.977774
Zn2   Zn    Zn3+2 0.499990 0.499980 0.346870 0.969660

loop_
_geom_bond_atom_site_label_1
_geom_bond_atom_site_label_2
_ccdc_geom_bond_type
C12   H1    S    
C18   N2    A    
C1    C8    S    
C1    O2    A    
C31   H13   S    
O5    Zn1   S    
O1    Zn1   S    
C7    C8    A    
C13   H26   S    
C25   C28   S    
C21   C31   S    
C12   C23   S    
C33   H19   S    
C9    H22   S    
C22   O7    A    
C30   H9    S    
C34   C35   S    
C2    I2    S    
C5    C6    A    
N2    Zn1   S    
C26   I6    S    
C18   C19   A    
C23   C26   S    
C35   H3    S    
C5    I3    S    
C2    C39   A    
C28   C35   S    
C8    C9    A    
C9    C10   A    
C32   H16   S    
C24   H12   S    
O2    Zn2   S    
C33   H20   S    
C13   C14   A    
C14   I4    S    
C32   H15   S    
C13   C19   A    
C30   H8    S    
C4    O4    A    
C6    C11   A    
C25   C26   S    
C15   H27   S    
C29   H6    S    
C16   O5    A    
C20   H25   S    
C4    O3    A    
C37   C38   T    
C11   C16   S    
C23   C34   S    
C17   C18   A    
C20   N1    A    
C31   H14   S    
O8    Zn2   S    
C30   H10   S    
C4    C38   S    
C17   I5    S    
O7    Zn1   S    
C22   C27   S    
C29   H5    S    
C31   H11   S    
O4    Zn2   S    
C15   C17   A    
C39   H23   S    
C21   N2    A    
C35   I7    S    
C33   H18   S    
C1    O1    A    
C19   N1    A    
C34   H4    S    
C24   C28   S    
C3    C5    A    
C34   I1    S    
C6    C7    A    
C3    H24   S    
C27   C36   T    
C12   C24   S    
C29   H7    S    
C22   O8    A    
C2    C3    A    
C10   C29   S    
C28   C37   S    
C25   C32   S    
C16   O6    A    
N1    Zn2   S    
C24   C30   S    
C10   C11   A    
C12   H21   S    
O3    Zn1   S    
C20   C21   A    
C23   C36   S    
C7    C39   A    
C14   C15   A    
C32   H17   S    
O6    Zn2   S    
C26   H2    S    
C25   C33   S    
