data_mof_unit_45703.cif
_audit_creation_date              2012-12-11T14:08:33-0500
_audit_creation_method            fapswitch 2.2
_symmetry_space_group_name_H-M    P1
_symmetry_Int_Tables_number       1
_space_group_crystal_system       triclinic
_cell_length_a                    10.999097
_cell_length_b                    11.050679
_cell_length_c                    18.556342
_cell_angle_alpha                 90.315874
_cell_angle_beta                  89.522549
_cell_angle_gamma                 59.950912
_cell_volume                      1952.14328485

loop_
_atom_site_label
_atom_site_type_symbol
_atom_type_description
_atom_site_fract_x
_atom_site_fract_y
_atom_site_fract_z
_atom_type_partial_charge
C1    C     C_R   0.296643 0.619662 0.614915 0.539674
C2    C     C_2   0.768062 0.178511 0.711705 -0.187086
C3    C     C_2   0.267591 0.627771 0.693113 -0.143611
C4    C     C_R   0.625714 0.587240 0.609398 0.537441
C5    C     C_2   0.237509 0.639495 0.853643 -0.137273
C6    C     C_2   0.255485 0.530710 0.812173 -0.180351
C7    C     C_2   0.297513 0.516078 0.734387 -0.189430
C8    C     C_2   0.651945 0.645312 0.317293 -0.134295
C9    C     C_2   0.630639 0.665470 0.159171 -0.061623
C10   C     C_2   0.696937 0.544451 0.194646 0.234594
C11   C     C_2   0.664849 0.544335 0.271632 -0.157885
C12   C     C_3   0.703914 0.518060 0.809294 -0.282072
C13   C     C_2   0.632410 0.199656 0.317634 -0.105465
C14   C     C_2   0.634348 0.205669 0.162467 -0.094047
C15   C     C_2   0.520083 0.235219 0.200447 -0.172050
C16   C     C_R   0.625121 0.232789 0.603379 0.532275
C17   C     C_2   0.516025 0.262152 0.276785 -0.156974
C18   C     C_2   0.120570 0.682210 0.346171 -0.108155
C19   C     C_2   0.112192 0.692191 0.191173 -0.089149
C20   C     C_2   0.040869 0.804758 0.234941 -0.152029
C21   C     C_2   0.072980 0.800751 0.310559 -0.167361
C22   C     C_R   0.699544 0.108718 0.900215 0.556664
C23   C     C_3   0.687114 0.665405 0.816170 0.079324
C24   C     C_R   0.720857 0.686334 0.889761 0.562625
C25   C     C_R   0.129781 0.700053 0.912146 0.538044
C26   C     C_R   0.672258 0.115045 0.100615 0.556218
C27   C     C_R   0.691628 0.688514 0.094436 0.568986
C28   C     C_R   0.215596 0.651534 0.404990 0.564086
C29   C     C_R   0.085815 0.713828 0.115324 0.550184
C30   C     C_R   0.642778 0.622056 0.393253 0.562413
C31   C     C_R   0.614352 0.234008 0.393239 0.554038
C32   C     C_3   0.533963 0.773516 0.795301 -0.210809
C33   C     C_3   0.513393 0.753875 0.715159 -0.224491
C34   C     C_3   0.642856 0.618396 0.684476 0.019894
C35   C     C_3   0.789480 0.680959 0.762717 0.156895
C36   C     C_3   0.909759 0.336558 0.199669 -0.001780
C37   C     C_3   0.022104 0.222778 0.151711 -0.360574
C38   C     C_3   0.857035 0.836232 0.718515 -0.030089
C39   C     C_3   0.954218 0.852939 0.767535 -0.355315
C40   C     C_3   0.772381 0.635852 0.687128 -0.180661
C41   C     C_3   0.671683 0.494126 0.732031 -0.268409
C42   C     C_2   0.659262 0.182912 0.676999 -0.135400
C43   C     C_2   0.675065 0.189093 0.834353 -0.100830
C44   C     C_2   0.782128 0.167388 0.790900 -0.174350
Cr1   Cr    Cr6+3 0.393010 0.398050 0.501480 1.012102
Cr2   Cr    Cr6+3 0.398820 0.707980 0.501630 1.014195
Cr3   Cr    Cr6+3 0.708140 0.393940 0.496850 1.003033
Cr4   Cr    Cr6+3 0.937950 0.938450 0.008940 1.005877
Cr5   Cr    Cr6+3 0.626180 0.937030 0.994750 1.021653
Cr6   Cr    Cr6+3 0.937790 0.625760 0.001410 1.025727
H1    H     H_    0.510520 0.882775 0.804489 0.178663
H2    H     H_    0.338985 0.413901 0.709088 0.150825
H3    H     H_    0.280060 0.703795 0.835208 0.104341
H4    H     H_    0.458610 0.758759 0.829052 0.092897
H5    H     H_    0.224236 0.730032 0.717771 0.100572
H6    H     H_    0.666694 0.451607 0.292382 0.144375
H7    H     H_    0.543564 0.757150 0.184696 0.059574
H8    H     H_    0.649827 0.739627 0.299209 0.084878
H9    H     H_    0.436280 0.221911 0.178326 0.152573
H10   H     H_    0.412248 0.328045 0.300496 0.158083
H11   H     H_    0.713734 0.226017 0.184307 0.133040
H12   H     H_    0.766695 0.402561 0.709936 0.142035
H13   H     H_    0.737224 0.133530 0.295355 0.076833
H14   H     H_    0.968535 0.907187 0.213316 0.149170
H15   H     H_    0.416241 0.749710 0.708775 0.112259
H16   H     H_    0.076823 0.889689 0.333172 0.152855
H17   H     H_    0.186075 0.588520 0.210507 0.083977
H18   H     H_    0.107925 0.597293 0.324868 0.101384
H19   H     H_    0.499826 0.846576 0.684978 0.156406
H20   H     H_    0.758185 0.713358 0.645182 0.148460
H21   H     H_    0.812978 0.436085 0.822636 0.134626
H22   H     H_    0.631515 0.507322 0.847607 0.130903
H23   H     H_    0.900014 0.612281 0.780559 0.117508
H24   H     H_    0.882696 0.284780 0.243076 0.116346
H25   H     H_    0.954547 0.398245 0.223764 0.140887
H26   H     H_    0.052629 0.270592 0.107796 0.161309
H27   H     H_    0.116277 0.154840 0.184058 0.092999
H28   H     H_    0.981724 0.157637 0.127726 0.172170
H29   H     H_    0.801774 0.926202 0.683135 0.168530
H30   H     H_    0.924056 0.747312 0.681272 0.112355
H31   H     H_    0.031571 0.746902 0.780443 0.145853
H32   H     H_    0.003578 0.907199 0.740569 0.100359
H33   H     H_    0.902121 0.903888 0.818711 0.212428
H34   H     H_    0.870615 0.536703 0.673057 0.104413
H35   H     H_    0.581607 0.475004 0.731402 0.133404
H36   H     H_    0.887191 0.124247 0.812365 0.139680
H37   H     H_    0.850793 0.182161 0.681165 0.143713
H38   H     H_    0.568366 0.241553 0.814497 0.111178
H39   H     H_    0.583759 0.163959 0.705273 0.123339
H40   H     H_    0.217149 0.463062 0.831310 0.148861
O1    O     O_R   0.507110 0.256280 0.580300 -0.521758
O2    O     O_R   0.837080 0.593860 0.915300 -0.538294
O3    O     O_R   0.064770 0.636080 0.932550 -0.494814
O4    O     O_R   0.280830 0.527190 0.577940 -0.489139
O5    O     O_R   0.068250 0.829200 0.092940 -0.520920
O6    O     O_R   0.799650 0.057040 0.080330 -0.511905
O7    O     O_R   0.586130 0.079760 0.077080 -0.517632
O8    O     O_R   0.627700 0.809630 0.066580 -0.516848
O9    O     O_R   0.816140 0.597180 0.075920 -0.460203
O10   O     O_R   0.045360 0.639170 0.081440 -0.502442
O11   O     O_3   0.833980 0.833750 0.001700 -0.250509
O12   O     O_R   0.524640 0.695370 0.425100 -0.481190
O13   O     O_R   0.261360 0.738990 0.584270 -0.521891
O14   O     O_R   0.532590 0.694780 0.574370 -0.515598
O15   O     O_R   0.744470 0.503750 0.577000 -0.524573
O16   O     O_R   0.698520 0.277230 0.571620 -0.509822
O17   O     O_R   0.498530 0.256920 0.419280 -0.508716
O18   O     O_R   0.272880 0.527780 0.428680 -0.504717
O19   O     O_R   0.252780 0.739630 0.423250 -0.505535
O20   O     O_3   0.790693 0.421902 0.157706 -0.538292
O21   O     O_3   0.756943 0.822045 0.760691 -0.566641
O22   O     O_R   0.735890 0.504390 0.415980 -0.510111
O23   O     O_R   0.690560 0.277820 0.422350 -0.502613
O24   O     O_3   0.499990 0.499990 0.499980 -0.288343
O25   O     O_R   0.089190 0.825870 0.932320 -0.522363
O26   O     O_R   0.819070 0.053960 0.931440 -0.505517
O27   O     O_R   0.607070 0.076440 0.916460 -0.506014
O28   O     O_R   0.647110 0.806550 0.917690 -0.492042

loop_
_geom_bond_atom_site_label_1
_geom_bond_atom_site_label_2
_ccdc_geom_bond_type
C22   O27   A    
C27   O8    A    
C25   O3    A    
Cr4   O5    S    
C21   H16   S    
Cr3   O24   S    
C18   C21   D    
C40   H34   S    
C19   C20   D    
C33   H15   S    
Cr2   O12   S    
C12   C23   S    
C27   O9    A    
Cr6   O9    S    
C40   H20   S    
C34   C40   S    
C43   H38   S    
C5    H3    S    
C36   C37   S    
C2    C42   D    
C7    H2    S    
C3    C7    D    
C25   O25   A    
Cr5   O11   S    
C38   C39   S    
C38   H29   S    
C18   H18   S    
Cr3   O22   S    
Cr3   O23   S    
C8    H8    S    
Cr5   O8    S    
C3    H5    S    
Cr1   O24   S    
Cr5   O27   S    
C22   C43   S    
C2    C44   S    
C1    O4    A    
Cr3   O15   S    
C23   C24   S    
C19   H17   S    
C9    C10   D    
C1    O13   A    
Cr1   O18   S    
C33   H19   S    
Cr4   O26   S    
C22   O26   A    
C12   H22   S    
C34   C41   S    
C31   O17   A    
C41   H12   S    
C44   H36   S    
Cr1   O4    S    
C24   O2    A    
C32   H4    S    
C26   O6    A    
C4    C34   S    
Cr2   O24   S    
C18   C28   S    
C39   H31   S    
C29   O5    A    
C17   H10   S    
C6    H40   S    
C14   H11   S    
Cr2   O14   S    
C30   O22   A    
C1    C3    S    
C20   H14   S    
C43   C44   D    
C32   H1    S    
C12   C41   S    
C36   H25   S    
Cr5   O28   S    
C13   H13   S    
Cr3   O16   S    
C30   O12   A    
C12   H21   S    
C33   C34   S    
C2    H37   S    
C14   C26   S    
C36   H24   S    
C16   O1    A    
Cr4   O25   S    
C5    C25   S    
Cr6   O2    S    
C37   H26   S    
C23   C35   S    
C36   O20   S    
C19   C29   S    
C16   C42   S    
C35   O21   S    
C9    C27   S    
Cr2   O13   S    
C4    O15   A    
C15   C17   S    
C37   H27   S    
C35   H23   S    
Cr4   O6    S    
C29   O10   A    
C15   H9    S    
C13   C31   S    
C39   H32   S    
Cr6   O3    S    
C6    C7    S    
C16   O16   A    
C28   O19   A    
C41   H35   S    
C37   H28   S    
C24   O28   A    
C13   C17   D    
C42   H39   S    
C8    C30   S    
C23   C32   S    
C35   C40   S    
C39   H33   S    
C32   C33   S    
C5    C6    D    
C38   H30   S    
C28   O18   A    
C8    C11   D    
Cr4   O11   S    
C4    O14   A    
C10   O20   S    
C9    H7    S    
Cr1   O1    S    
Cr6   O10   S    
C10   C11   S    
C26   O7    A    
Cr5   O7    S    
C20   C21   S    
Cr6   O11   S    
Cr2   O19   S    
C14   C15   D    
C38   O21   S    
C31   O23   A    
C11   H6    S    
Cr1   O17   S    
