data_mof_unit_56375.cif
_audit_creation_date              2012-12-10T17:00:38-0500
_audit_creation_method            fapswitch 2.2
_symmetry_space_group_name_H-M    P1
_symmetry_Int_Tables_number       1
_space_group_crystal_system       triclinic
_cell_length_a                    27.765344
_cell_length_b                    10.951803
_cell_length_c                    9.712967
_cell_angle_alpha                 87.886617
_cell_angle_beta                  89.881734
_cell_angle_gamma                 90.215406
_cell_volume                      2951.48762196

loop_
_atom_site_label
_atom_site_type_symbol
_atom_type_description
_atom_site_fract_x
_atom_site_fract_y
_atom_site_fract_z
_atom_type_partial_charge
C1    C     C_R   0.502659 0.264912 0.504325 0.820637
C2    C     C_R   0.973618 0.444746 0.394773 0.024938
C3    C     C_R   0.974461 0.653538 0.481802 0.006225
C4    C     C_R   0.407360 0.501514 0.499503 0.796590
C5    C     C_R   0.948629 0.548071 0.441218 0.041036
C6    C     C_R   0.947299 0.338128 0.368344 -0.237569
C7    C     C_R   0.897343 0.331465 0.384198 0.111228
C8    C     C_R   0.871472 0.438779 0.415356 -0.044107
C9    C     C_R   0.897532 0.545819 0.446925 -0.071699
C10   C     C_R   0.872452 0.650688 0.485683 -0.039177
C11   C     C_R   0.822119 0.646602 0.498327 0.543585
C12   C     C_R   0.276238 0.512697 0.609298 -0.100412
C13   C     C_R   0.820560 0.444430 0.415964 0.516854
C14   C     C_R   0.725211 0.442220 0.561303 -0.130387
C15   C     C_R   0.675279 0.423133 0.563523 0.059768
C16   C     C_R   0.498128 0.733833 0.496997 0.842170
C17   C     C_R   0.665867 0.609183 0.420573 -0.265550
C18   C     C_R   0.715765 0.622099 0.411743 -0.104582
C19   C     C_R   0.745753 0.538524 0.482100 0.324450
C20   C     C_R   0.024525 0.448060 0.383844 0.050501
C21   C     C_R   0.050143 0.543427 0.445598 0.077200
C22   C     C_R   0.025168 0.642683 0.501910 0.034649
C23   C     C_R   0.252955 0.520256 0.481284 0.347989
C24   C     C_R   0.050911 0.356898 0.317474 -0.222033
C25   C     C_R   0.101299 0.715296 0.595634 -0.151573
C26   C     C_R   0.948036 0.763862 0.499889 0.084642
C27   C     C_R   0.897714 0.758802 0.507330 -0.188988
C28   C     C_R   0.592378 0.501208 0.499482 0.769869
C29   C     C_R   0.051389 0.721768 0.585523 -0.233346
C30   C     C_2   0.517854 0.934694 0.403441 -0.181900
C31   C     C_2   0.490870 0.863528 0.487768 -0.316814
C32   C     C_2   0.514433 0.068284 0.404342 -0.197106
C33   C     C_2   0.510014 0.132098 0.520341 -0.052864
C34   C     C_R   0.101109 0.537472 0.454944 -0.048611
C35   C     C_2   0.472194 0.429392 0.928391 0.244781
C36   C     C_2   0.483415 0.411063 0.080608 -0.004287
C37   C     C_R   0.176741 0.437771 0.404916 0.531330
C38   C     C_R   0.177173 0.618488 0.534802 0.532258
C39   C     C_R   0.280504 0.521927 0.360218 -0.104170
C40   C     C_R   0.330526 0.514438 0.366877 -0.216443
C41   C     C_R   0.326411 0.507623 0.616051 -0.229399
C42   C     C_3   0.970011 0.891298 0.487969 -0.420722
C43   C     C_3   0.964159 0.960912 0.621909 -0.366625
C44   C     C_3   0.998681 0.069458 0.625843 -0.829432
C45   C     C_R   0.126394 0.442564 0.393418 -0.019074
C46   C     C_3   0.512797 0.069265 0.666237 -0.416060
C47   C     C_3   0.534219 0.142432 0.784467 -0.295865
C48   C     C_3   0.551136 0.059126 0.903740 -0.920824
C49   C     C_3   0.426063 0.374387 0.874662 -0.442479
C50   C     C_3   0.400004 0.283190 0.973560 -0.452974
C51   C     C_3   0.353996 0.235042 0.908585 -0.779871
C52   C     C_3   0.558802 0.632560 0.888023 0.183945
C53   C     C_3   0.602069 0.647074 0.983576 -0.382032
C54   C     C_3   0.618396 0.779562 0.989967 -0.951942
C55   C     C_3   0.656217 0.304531 0.627703 -0.420735
C56   C     C_R   0.100936 0.354436 0.322244 -0.145487
C57   C     C_3   0.675318 0.194009 0.551245 -0.323877
C58   C     C_3   0.653051 0.074562 0.606928 -0.855490
C59   C     C_3   0.875104 0.204513 0.381669 -0.355812
C60   C     C_3   0.864556 0.167453 0.234017 -0.312638
C61   C     C_3   0.841255 0.041037 0.232816 -0.820071
C62   C     C_R   0.126713 0.625180 0.527965 -0.013683
C63   C     C_R   0.354154 0.507127 0.495029 -0.035860
C64   C     C_R   0.645150 0.510666 0.496458 -0.046820
Cu1   Cu    Cu3+1 0.500010 0.500020 0.638630 0.942669
Cu2   Cu    Cu3+1 0.499990 0.499980 0.361370 0.932994
H1    H     H_    0.343107 0.504804 0.715880 0.146093
H2    H     H_    0.516794 0.115674 0.304286 0.157662
H3    H     H_    0.255439 0.510951 0.703787 0.148704
H4    H     H_    0.474650 0.324825 0.132821 0.134538
H5    H     H_    0.500998 0.583602 0.104900 0.206265
H6    H     H_    0.119548 0.282116 0.270955 0.186054
H7    H     H_    0.748703 0.377786 0.615079 0.135086
H8    H     H_    0.965405 0.254664 0.344097 0.131953
H9    H     H_    0.033752 0.287438 0.258512 0.139836
H10   H     H_    0.350634 0.515288 0.271178 0.158621
H11   H     H_    0.036581 0.037312 0.626286 0.256323
H12   H     H_    0.263090 0.528904 0.260588 0.148667
H13   H     H_    0.993018 0.132069 0.535089 0.253517
H14   H     H_    0.992199 0.120537 0.720728 0.245465
H15   H     H_    0.926655 0.995083 0.629689 0.213179
H16   H     H_    0.970679 0.899807 0.713738 0.223498
H17   H     H_    0.008031 0.889704 0.453374 0.216019
H18   H     H_    0.951294 0.943712 0.403804 0.184420
H19   H     H_    0.521569 0.997120 0.939743 0.257315
H20   H     H_    0.582239 0.004589 0.869928 0.263444
H21   H     H_    0.562795 0.115123 0.990790 0.256770
H22   H     H_    0.565210 0.197922 0.747975 0.239546
H23   H     H_    0.119785 0.780219 0.658589 0.186431
H24   H     H_    0.506419 0.203150 0.826611 0.242491
H25   H     H_    0.475829 0.042143 0.699056 0.189797
H26   H     H_    0.535326 0.986098 0.660957 0.231190
H27   H     H_    0.328779 0.311370 0.884578 0.251105
H28   H     H_    0.362541 0.187653 0.812391 0.251085
H29   H     H_    0.336039 0.169054 0.981676 0.252078
H30   H     H_    0.423956 0.204346 0.998589 0.222852
H31   H     H_    0.390099 0.328431 0.070219 0.232952
H32   H     H_    0.401404 0.451524 0.853090 0.207888
H33   H     H_    0.433659 0.325922 0.779254 0.245895
H34   H     H_    0.643247 0.675481 0.366406 0.149113
H35   H     H_    0.529219 0.694023 0.919941 0.100245
H36   H     H_    0.570059 0.660218 0.781941 0.181265
H37   H     H_    0.592525 0.612887 0.089363 0.239932
H38   H     H_    0.632462 0.591275 0.946170 0.234113
H39   H     H_    0.627775 0.816512 0.885255 0.261071
H40   H     H_    0.650755 0.785004 0.056497 0.267754
H41   H     H_    0.589431 0.835085 0.035273 0.259920
H42   H     H_    0.658895 0.063545 0.719793 0.260728
H43   H     H_    0.613932 0.073163 0.584724 0.262401
H44   H     H_    0.669977 0.996440 0.555775 0.254078
H45   H     H_    0.877979 0.842157 0.524214 0.180267
H46   H     H_    0.666818 0.205129 0.439642 0.233674
H47   H     H_    0.715043 0.187529 0.562534 0.233975
H48   H     H_    0.666953 0.297475 0.737894 0.205557
H49   H     H_    0.616575 0.302161 0.623000 0.200285
H50   H     H_    0.865571 0.971451 0.280954 0.244807
H51   H     H_    0.806537 0.040660 0.289903 0.271498
H52   H     H_    0.834152 0.016326 0.124873 0.241797
H53   H     H_    0.840156 0.234777 0.182238 0.259289
H54   H     H_    0.898738 0.165817 0.174286 0.200552
H55   H     H_    0.900591 0.137246 0.429178 0.171138
H56   H     H_    0.731068 0.695963 0.348464 0.154476
H57   H     H_    0.842720 0.195960 0.448299 0.229251
H58   H     H_    0.033679 0.786992 0.648032 0.170561
H59   H     H_    0.542902 0.894689 0.331865 0.161142
H60   H     H_    0.463164 0.900278 0.552564 0.147416
N1    N     N_R   0.201216 0.525618 0.473767 -0.465071
N2    N     N_R   0.797276 0.544081 0.464750 -0.452423
N3    N     N_2   0.499480 0.498660 0.846910 -0.029567
N4    N     N_2   0.499460 0.498630 0.153040 -0.285662
O1    O     O_R   0.500010 0.321960 0.617040 -0.600971
O2    O     O_R   0.569740 0.500000 0.617090 -0.563557
O3    O     O_R   0.569730 0.499960 0.382940 -0.566838
O4    O     O_2   0.200990 0.345026 0.349208 -0.545360
O5    O     O_3   0.544794 0.508613 0.895896 -0.521652
O6    O     O_2   0.794112 0.353783 0.363669 -0.571597
O7    O     O_2   0.202001 0.704940 0.600562 -0.544925
O8    O     O_2   0.798244 0.743987 0.544959 -0.562233
O9    O     O_R   0.499990 0.321920 0.382900 -0.588377
O10   O     O_R   0.430270 0.500040 0.617060 -0.607701
O11   O     O_R   0.430260 0.500000 0.382910 -0.579287
O12   O     O_R   0.500010 0.678080 0.617100 -0.602810
O13   O     O_R   0.499990 0.678040 0.382960 -0.575933

loop_
_geom_bond_atom_site_label_1
_geom_bond_atom_site_label_2
_ccdc_geom_bond_type
C10   C27   A    
C59   H55   S    
C12   H3    S    
C8    C13   A    
C22   C29   A    
C58   H43   S    
C35   C36   S    
C38   N1    A    
C1    C33   S    
C7    C8    A    
C41   H1    S    
Cu2   O11   S    
C53   C54   S    
C16   C31   S    
C4    C63   S    
C52   H36   S    
C26   C27   A    
C40   C63   A    
C54   H41   S    
C44   H11   S    
C11   O8    S    
C17   C64   A    
C30   C31   D    
C23   C39   A    
C57   H46   S    
C49   H33   S    
C53   H38   S    
C29   H58   S    
C19   N2    S    
C34   C62   A    
C60   H53   S    
C18   C19   A    
C49   H32   S    
N3    O5    S    
Cu1   O10   S    
Cu2   O9    S    
C20   C24   A    
C45   C56   A    
C8    C9    A    
C56   H6    S    
C35   C49   S    
C15   C64   A    
Cu2   N4    S    
C9    C10   A    
C35   N3    D    
C1    O9    A    
C32   H2    S    
C30   H59   S    
C27   H45   S    
C59   C60   S    
C21   C22   A    
C59   H57   S    
C33   C46   S    
C13   N2    A    
C2    C6    A    
C7    C59   S    
Cu1   O1    S    
C36   H4    S    
C6    H8    S    
C44   H13   S    
C25   C29   A    
C52   H35   S    
C54   H40   S    
C2    C20   A    
C28   O3    A    
C39   H12   S    
C44   H14   S    
C16   O13   A    
C42   H18   S    
C39   C40   A    
C57   H47   S    
C46   H25   S    
C50   C51   S    
C61   H51   S    
C40   H10   S    
C60   C61   S    
C28   O2    A    
C15   C55   S    
C16   O12   A    
C43   C44   S    
C14   H7    S    
C5    C9    A    
C12   C41   A    
C36   N4    D    
C4    O10   A    
Cu2   O3    S    
C47   C48   S    
C12   C23   A    
C61   H50   S    
C14   C15   A    
C17   C18   A    
C48   H21   S    
C34   C45   A    
C51   H27   S    
C28   C64   S    
C18   H56   S    
Cu1   Cu2   S    
C55   C57   S    
C43   H15   S    
C47   H24   S    
C48   H20   S    
C2    C5    A    
C42   C43   S    
C41   C63   A    
C37   C45   A    
C4    O11   A    
Cu1   O2    S    
C52   C53   S    
C26   C42   S    
C23   N1    S    
C43   H16   S    
C46   C47   S    
C50   H31   S    
C54   H39   S    
C61   H52   S    
C58   H44   S    
C14   C19   A    
C48   H19   S    
C3    C26   A    
C42   H17   S    
C3    C5    A    
Cu1   N3    S    
C24   H9    S    
C6    C7    A    
C21   C34   A    
C55   H48   S    
C24   C56   A    
C25   H23   S    
C32   C33   D    
C11   N2    A    
C47   H22   S    
H5    N4    S    
C30   C32   S    
Cu1   O12   S    
C50   H30   S    
C57   C58   S    
C55   H49   S    
C53   H37   S    
C1    O1    A    
C13   O6    S    
C38   O7    S    
C60   H54   S    
C58   H42   S    
C25   C62   A    
C17   H34   S    
C10   C11   A    
C51   H28   S    
C46   H26   S    
C20   C21   A    
C49   C50   S    
C52   O5    S    
C37   O4    S    
C3    C22   A    
C31   H60   S    
C37   N1    A    
Cu2   O13   S    
C51   H29   S    
C38   C62   A    
