data_mof_unit_46812.cif
_audit_creation_date              2012-12-10T16:51:31-0500
_audit_creation_method            fapswitch 2.2
_symmetry_space_group_name_H-M    P1
_symmetry_Int_Tables_number       1
_space_group_crystal_system       triclinic
_cell_length_a                    7.858243
_cell_length_b                    8.559976
_cell_length_c                    12.283556
_cell_angle_alpha                 93.079887
_cell_angle_beta                  101.527491
_cell_angle_gamma                 93.643829
_cell_volume                      806.100266645

loop_
_atom_site_label
_atom_site_type_symbol
_atom_type_description
_atom_site_fract_x
_atom_site_fract_y
_atom_site_fract_z
_atom_type_partial_charge
C1    C     C_R   0.044188 0.794385 0.497989 0.961748
C2    C     C_R   0.174488 0.561091 0.824947 -0.097680
C3    C     C_2   0.067768 0.957851 0.499028 -0.376506
C4    C     C_R   0.108139 0.514086 0.709037 0.844801
C5    C     C_2   0.931942 0.041984 0.503693 -0.365808
C6    C     C_R   0.955886 0.205547 0.502834 0.955402
C7    C     C_R   0.892253 0.491670 0.290329 0.979999
C8    C     C_R   0.778194 0.284039 0.011736 -0.305325
C9    C     C_R   0.830025 0.470638 0.170693 -0.260729
C10   C     C_R   0.141795 0.712021 0.861398 -0.186673
C11   C     C_R   0.267895 0.800374 0.939735 -0.202251
C12   C     C_R   0.443194 0.574545 0.963295 0.110150
C13   C     C_R   0.422271 0.735645 0.984854 -0.170994
C14   C     C_3   0.155438 0.282329 0.088188 -0.308261
C15   C     C_3   0.390639 0.222928 0.377834 -0.125518
C16   C     C_3   0.486967 0.639712 0.224835 -0.159363
C17   C     C_R   0.318922 0.488080 0.879456 0.065238
C18   C     C_R   0.587725 0.498156 0.017596 -0.055555
C19   C     C_R   0.624640 0.352367 0.969585 0.039003
C20   C     C_R   0.503452 0.271440 0.883812 -0.177397
C21   C     C_R   0.347321 0.334109 0.844268 -0.227080
C22   C     C_R   0.686606 0.552174 0.123422 0.371033
C23   C     C_R   0.887161 0.347321 0.109941 0.465391
H1    H     H_    0.802758 0.991223 0.507067 0.174477
H2    H     H_    0.183483 0.406016 0.069526 0.168180
H3    H     H_    0.112936 0.206888 0.009723 0.159458
H4    H     H_    0.279138 0.240050 0.132712 0.182690
H5    H     H_    0.251853 0.230418 0.339396 0.225978
H6    H     H_    0.409238 0.169666 0.459449 0.136805
H7    H     H_    0.445949 0.144774 0.321074 0.126843
H8    H     H_    0.511506 0.670887 0.315633 0.206293
H9    H     H_    0.438079 0.513941 0.209557 0.175270
H10   H     H_    0.382058 0.712598 0.187230 0.143497
H11   H     H_    0.532125 0.617425 0.589089 0.143674
H12   H     H_    0.526222 0.156505 0.850495 0.142787
H13   H     H_    0.808250 0.175752 0.972263 0.160068
H14   H     H_    0.031340 0.769398 0.818137 0.147086
H15   H     H_    0.524440 0.814063 0.035060 0.198639
H16   H     H_    0.251129 0.922393 0.959964 0.147940
H17   H     H_    0.251592 0.264106 0.781937 0.140667
H18   H     H_    0.196726 0.008164 0.496719 0.155380
N1    N     N_2   0.434800 0.456690 0.470850 0.112060
N2    N     N_2   0.565200 0.543310 0.529150 -0.101181
O1    O     O_R   0.893060 0.738880 0.507150 -0.621839
O2    O     O_3   0.481444 0.370314 0.388274 -0.522983
O3    O     O_3   0.641701 0.678227 0.185750 -0.637277
O4    O     O_R   0.172250 0.711130 0.488470 -0.651240
O5    O     O_R   0.944700 0.520730 0.667600 -0.625431
O6    O     O_R   0.223890 0.492980 0.648920 -0.622799
O7    O     O_R   0.827750 0.288870 0.511530 -0.589902
O8    O     O_R   0.106940 0.261120 0.492850 -0.641936
O9    O     O_R   0.776110 0.507020 0.351080 -0.550542
O10   O     O_R   0.055300 0.479270 0.332400 -0.600466
O11   O     O_3   0.031424 0.271006 0.156731 -0.607870
Zn1   Zn    Zn3+2 0.813580 0.518530 0.512470 0.991019
Zn2   Zn    Zn3+2 0.186420 0.481470 0.487530 0.961027

loop_
_geom_bond_atom_site_label_1
_geom_bond_atom_site_label_2
_ccdc_geom_bond_type
C12   C17   A    
O5    Zn1   S    
C2    C4    S    
C16   H10   S    
C16   H9    S    
O6    Zn2   S    
C1    O1    A    
C19   C20   A    
O9    Zn1   S    
C4    O6    A    
C20   C21   A    
C15   H5    S    
C14   H3    S    
C2    C17   A    
C11   H16   S    
C11   C13   A    
O1    Zn1   S    
C13   H15   S    
C5    H1    S    
C23   O11   S    
C10   H14   S    
C22   O3    S    
O8    Zn2   S    
N2    Zn1   S    
C14   O11   S    
C7    O9    A    
C15   H6    S    
C10   C11   A    
C14   H2    S    
C8    H13   S    
C5    C6    S    
C14   H4    S    
C9    C22   A    
O10   Zn2   S    
C8    C19   A    
C3    H18   S    
N1    N2    D    
C15   O2    S    
C12   C18   A    
C2    C10   A    
C3    C5    D    
C8    C23   A    
C12   C13   A    
C15   H7    S    
C18   C19   A    
C4    O5    A    
C6    O8    A    
C16   O3    S    
C7    C9    S    
C7    O10   A    
C1    O4    A    
C9    C23   A    
C6    O7    A    
N1    Zn2   S    
C18   C22   A    
C20   H12   S    
C16   H8    S    
C17   C21   A    
H11   N2    S    
O7    Zn1   S    
O4    Zn2   S    
C1    C3    S    
N1    O2    S    
C21   H17   S    
