data_mof_unit_9081.cif
_audit_creation_date              2012-12-11T14:58:24-0500
_audit_creation_method            fapswitch 2.2
_symmetry_space_group_name_H-M    P1
_symmetry_Int_Tables_number       1
_space_group_crystal_system       triclinic
_cell_length_a                    10.898357
_cell_length_b                    10.940662
_cell_length_c                    18.76452
_cell_angle_alpha                 90.281314
_cell_angle_beta                  90.531746
_cell_angle_gamma                 60.013768
_cell_volume                      1937.82356557

loop_
_atom_site_label
_atom_site_type_symbol
_atom_type_description
_atom_site_fract_x
_atom_site_fract_y
_atom_site_fract_z
_atom_type_partial_charge
C1    C     C_R   0.357887 0.774501 0.397616 0.541195
C2    C     C_R   0.246760 0.442842 0.198424 -0.152521
C3    C     C_R   0.245528 0.450602 0.272621 -0.034372
C4    C     C_R   0.386466 0.355494 0.387103 0.533609
C5    C     C_R   0.878445 0.797705 0.368926 -0.118471
C6    C     C_R   0.928992 0.660768 0.394037 -0.093118
C7    C     C_R   0.047222 0.547346 0.362657 -0.045356
C8    C     C_R   0.118473 0.570093 0.306649 0.055644
C9    C     C_R   0.364238 0.345122 0.310810 -0.003060
C10   C     C_R   0.954397 0.306690 0.307925 -0.154129
C11   C     C_R   0.982754 0.299713 0.235726 -0.126919
C12   C     C_R   0.616321 0.124937 0.164572 0.059058
C13   C     C_R   0.874105 0.333044 0.185721 0.038480
C14   C     C_R   0.735594 0.380880 0.207200 -0.146348
C15   C     C_R   0.706423 0.392186 0.279398 -0.116333
C16   C     C_R   0.777947 0.378348 0.403210 0.536547
C17   C     C_R   0.816097 0.354241 0.329459 0.038393
C18   C     C_R   0.455545 0.821242 0.288444 -0.143202
C19   C     C_R   0.435990 0.863701 0.217241 -0.137082
C20   C     C_R   0.299031 0.934038 0.188166 0.023739
C21   C     C_R   0.182190 0.969030 0.231803 -0.149603
C22   C     C_R   0.201275 0.930136 0.302827 -0.141487
C23   C     C_R   0.360568 0.332944 0.161882 -0.002694
C24   C     C_R   0.337933 0.849423 0.330548 0.025895
C25   C     C_R   0.462562 0.277225 0.716582 -0.135945
C26   C     C_R   0.446095 0.275410 0.788724 -0.139686
C27   C     C_R   0.310478 0.334099 0.816616 0.017276
C28   C     C_R   0.344419 0.769150 0.604742 0.544208
C29   C     C_R   0.190169 0.406390 0.772797 -0.137432
C30   C     C_R   0.206120 0.411450 0.699628 -0.031848
C31   C     C_R   0.343662 0.341533 0.671197 0.022513
C32   C     C_R   0.739312 0.475457 0.732102 -0.116785
C33   C     C_R   0.750317 0.461831 0.805112 -0.137446
C34   C     C_R   0.482380 0.242413 0.273274 -0.151915
C35   C     C_R   0.813917 0.327779 0.835839 0.024317
C36   C     C_R   0.850760 0.208629 0.792918 -0.140945
C37   C     C_R   0.835504 0.223107 0.719087 -0.153526
C38   C     C_R   0.785097 0.356280 0.688362 0.036113
C39   C     C_R   0.204583 0.823130 0.714003 -0.130073
C40   C     C_R   0.372075 0.351915 0.597164 0.546596
C41   C     C_R   0.197674 0.833288 0.787263 -0.138485
C42   C     C_R   0.303689 0.842090 0.825395 0.030873
C43   C     C_R   0.419077 0.836393 0.789442 -0.135092
C44   C     C_R   0.425813 0.826489 0.715980 -0.142865
C45   C     C_R   0.485069 0.237319 0.199564 -0.026551
C46   C     C_R   0.319932 0.817359 0.677959 0.032250
C47   C     C_R   0.910526 0.316210 0.111724 0.528459
C48   C     C_R   0.330001 0.295292 0.091758 0.528317
C49   C     C_R   0.271907 0.963154 0.112067 0.562848
C50   C     C_R   0.878443 0.310421 0.905922 0.544199
C51   C     C_R   0.296447 0.291334 0.886804 0.550481
C52   C     C_R   0.757691 0.379905 0.612265 0.553718
C53   C     C_R   0.276370 0.892909 0.898106 0.557476
C54   C     C_R   0.849537 0.908244 0.092420 -0.107173
C55   C     C_R   0.786973 0.047087 0.068028 -0.080979
C56   C     C_R   0.066169 0.708768 0.281812 -0.090492
C57   C     C_R   0.672563 0.155413 0.104394 -0.057334
C58   C     C_1   0.081311 0.484530 0.655140 0.194206
C59   C     C_R   0.947064 0.821642 0.312931 -0.119453
C60   C     C_R   0.681258 0.984550 0.188933 -0.102707
C61   C     C_R   0.796561 0.876995 0.152763 -0.126435
Cr1   Cr    Cr6+3 0.601770 0.606860 0.505860 1.016288
Cr2   Cr    Cr6+3 0.291380 0.601660 0.495070 1.041294
Cr3   Cr    Cr6+3 0.606880 0.291510 0.499120 1.008892
Cr4   Cr    Cr6+3 0.062440 0.063090 0.008210 0.980379
Cr5   Cr    Cr6+3 0.062880 0.375170 0.998920 1.003914
Cr6   Cr    Cr6+3 0.374700 0.061720 0.992470 1.019547
H1    H     H_    0.577910 0.167636 0.301395 0.141666
H2    H     H_    0.527463 0.833221 0.184029 0.136053
H3    H     H_    0.075610 0.021471 0.210005 0.141999
H4    H     H_    0.844117 0.769087 0.171248 0.123682
H5    H     H_    0.109598 0.955384 0.334932 0.133515
H6    H     H_    0.569624 0.228932 0.696485 0.148420
H7    H     H_    0.539567 0.220898 0.822352 0.129842
H8    H     H_    0.084649 0.451192 0.794835 0.139319
H9    H     H_    0.695194 0.580194 0.709916 0.142409
H10   H     H_    0.719909 0.555235 0.837168 0.125400
H11   H     H_    0.900523 0.103766 0.815738 0.131084
H12   H     H_    0.786601 0.885348 0.393078 0.112775
H13   H     H_    0.866451 0.130773 0.686152 0.119631
H14   H     H_    0.121674 0.814805 0.686004 0.140401
H15   H     H_    0.907935 0.927942 0.293594 0.113864
H16   H     H_    0.106485 0.839913 0.813585 0.125795
H17   H     H_    0.501455 0.845125 0.817755 0.130023
H18   H     H_    0.515645 0.821901 0.689207 0.126799
H19   H     H_    0.938299 0.824742 0.064226 0.111130
H20   H     H_    0.826162 0.070542 0.020350 0.139689
H21   H     H_    0.624130 0.261984 0.083882 0.090127
H22   H     H_    0.118236 0.729766 0.238615 0.120299
H23   H     H_    0.877376 0.642804 0.438390 0.146001
H24   H     H_    0.641000 0.957496 0.235119 0.102306
H25   H     H_    0.152509 0.517576 0.169319 0.136387
H26   H     H_    0.086185 0.442606 0.383760 0.099480
H27   H     H_    0.039232 0.274659 0.346536 0.099600
H28   H     H_    0.090074 0.264641 0.218607 0.119643
H29   H     H_    0.650828 0.411281 0.168630 0.103809
H30   H     H_    0.598086 0.432880 0.296461 0.125021
H31   H     H_    0.562573 0.757871 0.308865 0.137682
N1    N     N_1   0.981490 0.543594 0.619414 -0.298178
O1    O     O_R   0.748800 0.497470 0.428000 -0.526359
O2    O     O_R   0.417600 0.174890 0.067840 -0.513552
O3    O     O_R   0.375320 0.946260 0.070860 -0.497154
O4    O     O_R   0.476420 0.724060 0.429470 -0.509189
O5    O     O_R   0.160600 0.919630 0.926660 -0.527652
O6    O     O_R   0.933060 0.190520 0.936020 -0.522104
O7    O     O_R   0.908880 0.403460 0.925020 -0.518392
O8    O     O_R   0.179600 0.361450 0.918490 -0.503577
O9    O     O_R   0.391510 0.170860 0.907530 -0.522144
O10   O     O_R   0.351130 0.942530 0.922260 -0.499531
O11   O     O_3   0.166667 0.166667 0.999870 -0.260722
O12   O     O_R   0.300070 0.471040 0.567100 -0.488383
O13   O     O_R   0.264580 0.744340 0.416750 -0.507092
O14   O     O_R   0.309380 0.472470 0.418200 -0.492543
O15   O     O_R   0.501710 0.260430 0.414300 -0.530107
O16   O     O_R   0.728090 0.305600 0.428960 -0.503876
O17   O     O_R   0.738760 0.495930 0.588610 -0.500221
O18   O     O_R   0.467110 0.722640 0.578360 -0.509746
O19   O     O_R   0.254530 0.742800 0.577360 -0.521538
O20   O     O_R   0.491670 0.258900 0.574910 -0.526704
O21   O     O_R   0.718780 0.304180 0.577850 -0.511450
O22   O     O_3   0.500010 0.500010 0.500020 -0.254265
O23   O     O_R   0.186690 0.923650 0.086970 -0.519854
O24   O     O_R   0.957250 0.194250 0.084630 -0.532018
O25   O     O_R   0.934970 0.407490 0.085330 -0.514198
O26   O     O_R   0.203780 0.365190 0.067090 -0.512168

loop_
_geom_bond_atom_site_label_1
_geom_bond_atom_site_label_2
_ccdc_geom_bond_type
C25   C31   A    
C23   C45   A    
C27   C29   A    
C41   C42   A    
C19   C20   A    
C59   H15   S    
Cr5   O8    S    
C8    C56   A    
C48   O2    A    
C7    C8    A    
C39   C41   A    
C28   C46   S    
C26   C27   A    
C29   C30   A    
Cr3   O20   S    
C18   C24   A    
C4    O15   A    
C36   C37   A    
C37   C38   A    
Cr5   O7    S    
C28   O18   A    
C22   H5    S    
C1    O13   A    
C30   C31   A    
Cr6   O9    S    
C38   C52   S    
C10   H27   S    
C10   C17   A    
C53   O10   A    
Cr3   O22   S    
C41   H16   S    
C31   C40   S    
C18   C19   A    
Cr4   O6    S    
Cr2   O13   S    
Cr1   O18   S    
C26   H7    S    
C48   O26   A    
Cr6   O10   S    
C35   C36   A    
C44   C46   A    
C16   C17   S    
C50   O6    A    
C32   C38   A    
C5    H12   S    
C1    O4    A    
C25   H6    S    
C61   H4    S    
Cr3   O16   S    
C21   C22   A    
Cr2   O12   S    
C43   H17   S    
C15   H30   S    
C14   H29   S    
Cr2   O22   S    
C27   C51   S    
C40   O12   A    
C52   O17   A    
C7    H26   S    
C37   H13   S    
Cr3   O15   S    
C5    C59   A    
C4    O14   A    
C39   H14   S    
C3    C8    S    
C34   H1    S    
C49   O3    A    
C54   H19   S    
Cr2   O19   S    
C16   O1    A    
C25   C26   A    
C6    H23   S    
C60   C61   A    
Cr2   O14   S    
C43   C44   A    
Cr1   O17   S    
C20   C49   S    
C3    C9    A    
Cr6   O11   S    
C47   O24   A    
Cr5   O26   S    
C35   C50   S    
C34   C45   A    
Cr4   O23   S    
Cr5   O11   S    
C2    H25   S    
C53   O5    A    
C39   C46   A    
Cr1   O1    S    
C12   C57   A    
C52   O21   A    
C56   H22   S    
C51   O9    A    
C55   C57   A    
C9    C34   A    
C22   C24   A    
C19   H2    S    
C42   C43   A    
C44   H18   S    
C16   O16   A    
Cr6   O2    S    
C13   C47   S    
Cr1   O4    S    
C60   H24   S    
C11   H28   S    
C15   C17   A    
C54   C55   A    
C23   C48   S    
C58   N1    T    
C12   C45   S    
C32   H9    S    
C57   H21   S    
C6    C7    A    
C29   H8    S    
C54   C61   A    
Cr3   O21   S    
C56   C59   A    
C21   H3    S    
C32   C33   A    
C2    C3    A    
C42   C53   S    
C36   H11   S    
C11   C13   A    
C33   H10   S    
C47   O25   A    
C5    C6    A    
C49   O23   A    
C30   C58   S    
C33   C35   A    
Cr5   O25   S    
Cr4   O24   S    
C55   H20   S    
Cr4   O11   S    
C10   C11   A    
C12   C60   A    
C40   O20   A    
C20   C21   A    
C1    C24   S    
C51   O8    A    
C2    C23   A    
C50   O7    A    
C14   C15   A    
C28   O19   A    
C18   H31   S    
Cr4   O5    S    
C4    C9    S    
C13   C14   A    
Cr1   O22   S    
Cr6   O3    S    
