data_mof_unit_41724.cif
_audit_creation_date              2012-12-10T17:20:25-0500
_audit_creation_method            fapswitch 2.2
_symmetry_space_group_name_H-M    P1
_symmetry_Int_Tables_number       1
_space_group_crystal_system       triclinic
_cell_length_a                    11.672954
_cell_length_b                    10.712571
_cell_length_c                    9.705623
_cell_angle_alpha                 90.892053
_cell_angle_beta                  89.835459
_cell_angle_gamma                 92.863447
_cell_volume                      1211.99750511

loop_
_atom_site_label
_atom_site_type_symbol
_atom_type_description
_atom_site_fract_x
_atom_site_fract_y
_atom_site_fract_z
_atom_type_partial_charge
C1    C     C_R   0.481656 0.262319 0.499160 0.848068
C2    C     C_R   0.368874 0.081799 0.865600 -0.119743
C3    C     C_R   0.395194 0.958504 0.882749 -0.108410
C4    C     C_R   0.403274 0.880928 0.766402 -0.020872
C5    C     C_R   0.427415 0.935120 0.634854 0.043105
C6    C     C_R   0.420324 0.066857 0.626053 0.008566
C7    C     C_R   0.442498 0.126477 0.500089 -0.223005
C8    C     C_R   0.408691 0.056714 0.381545 0.406542
C9    C     C_R   0.408711 0.924618 0.386167 -0.166088
C10   C     C_R   0.442541 0.866494 0.508588 -0.220489
C11   C     C_R   0.696247 0.597411 0.140989 0.437190
C12   C     C_R   0.284530 0.501588 0.499945 0.807003
C13   C     C_R   0.798300 0.568929 0.075259 -0.283162
C14   C     C_R   0.801218 0.580212 0.932397 -0.100232
C15   C     C_R   0.697320 0.598017 0.863791 -0.046077
C16   C     C_R   0.594101 0.551694 0.926806 0.111570
C17   C     C_R   0.593964 0.551375 0.075043 0.106062
C18   C     C_R   0.408652 0.455463 0.072916 0.057816
C19   C     C_R   0.409031 0.454713 0.926230 -0.028214
C20   C     C_R   0.481582 0.735465 0.502233 0.862732
C21   C     C_R   0.715500 0.499559 0.499779 0.861658
C22   C     C_1   0.162722 0.503180 0.499337 -0.076612
C23   C     C_1   0.060076 0.503145 0.498613 0.056469
C24   C     C_1   0.940079 0.502048 0.498458 0.032918
C25   C     C_1   0.837389 0.500815 0.499068 -0.141497
C26   C     C_R   0.368731 0.131185 0.735564 -0.004645
Cu1   Cu    Cu3+1 0.499990 0.499990 0.640660 0.986298
Cu2   Cu    Cu3+1 0.500010 0.500010 0.359340 1.062078
H1    H     H_    0.333589 0.418116 0.872921 0.153993
H2    H     H_    0.329347 0.132293 0.947874 0.213923
H3    H     H_    0.381374 0.918575 0.983219 0.212090
H4    H     H_    0.333045 0.418871 0.125723 0.183813
H5    H     H_    0.878248 0.579945 0.131878 0.187540
N1    N     N_R   0.501070 0.501210 0.147910 -0.198133
N2    N     N_R   0.501110 0.501290 0.852040 -0.192728
O1    O     O_R   0.499990 0.319640 0.618810 -0.582639
O2    O     O_R   0.500000 0.319660 0.381240 -0.503470
O3    O     O_R   0.337190 0.500000 0.618790 -0.575036
O4    O     O_R   0.337200 0.500030 0.381210 -0.575016
O5    O     O_R   0.500000 0.680340 0.618760 -0.595373
O6    O     O_R   0.500010 0.680360 0.381190 -0.513468
O7    O     O_R   0.662800 0.499970 0.618790 -0.590977
O8    O     O_R   0.662810 0.500000 0.381210 -0.577078
S1    S     S_3+6 0.344503 0.133674 0.243996 -0.051303
O9    O     O_2   0.283421 0.243849 0.300097 -0.336024
O10   O     O_2   0.438769 0.178416 0.148510 -0.325492
O11   O     O_3   0.247646 0.039610 0.159367 -0.574552
H6    H     H_    0.186074 0.094229 0.131303 0.376629
C27   C     C_1   0.910724 0.601991 0.865008 0.317768
N3    N     N_1   0.998650 0.619766 0.811620 -0.251032
C28   C     C_1   0.697395 0.706391 0.776648 0.376286
N4    N     N_1   0.700772 0.794649 0.709120 -0.231686
C29   C     C_1   0.280553 0.217325 0.708745 0.239503
N5    N     N_1   0.206592 0.282518 0.688778 -0.268499
C30   C     C_1   0.338040 0.764369 0.781910 0.287285
N6    N     N_1   0.281730 0.674175 0.799254 -0.238426
C31   C     C_1   0.359412 0.847176 0.275635 0.461296
N7    N     N_1   0.319412 0.783195 0.189405 -0.250109
S2    S     S_3+6 0.704387 0.753821 0.205510 0.017974
O12   O     O_2   0.719981 0.757171 0.359057 -0.286745
O13   O     O_2   0.805545 0.824311 0.142009 -0.282704
O14   O     O_3   0.585415 0.825537 0.162182 -0.556228
H7    H     H_    0.603858 0.915644 0.179715 0.379591

loop_
_geom_bond_atom_site_label_1
_geom_bond_atom_site_label_2
_ccdc_geom_bond_type
S2    O12   D    
C30   N6    T    
C13   H5    S    
O14   H7    S    
C21   O8    A    
C15   C28   S    
Cu1   O1    S    
C11   C13   A    
C9    C10   A    
Cu2   O8    S    
O11   H6    S    
C14   C15   A    
S1    O11   S    
C1    O2    A    
Cu1   O5    S    
C23   C24   S    
C12   O4    A    
C2    C3    A    
C3    C4    A    
Cu2   N1    S    
C7    C8    A    
C2    C26   A    
C19   N2    A    
C13   C14   A    
C24   C25   T    
C3    H3    S    
C18   N1    A    
Cu1   O7    S    
C31   N7    T    
C6    C26   A    
Cu2   O2    S    
C11   S2    S    
C4    C5    A    
S1    O10   D    
C20   O6    A    
C6    C7    A    
C9    C31   S    
C16   N2    A    
C12   O3    A    
C5    C6    A    
C20   O5    A    
S2    O13   D    
C14   C27   S    
C18   H4    S    
C17   N1    A    
Cu1   O3    S    
C29   N5    T    
C15   C16   A    
C19   H1    S    
C26   C29   S    
C12   C22   S    
Cu2   O6    S    
C5    C10   A    
C28   N4    T    
S1    O9    D    
C18   C19   A    
C4    C30   S    
C27   N3    T    
C21   C25   S    
C22   C23   T    
C16   C17   A    
S2    O14   S    
C21   O7    A    
Cu2   O4    S    
Cu1   N2    S    
C1    C7    S    
C11   C17   A    
C2    H2    S    
C8    S1    S    
C1    O1    A    
C10   C20   S    
C8    C9    A    
Cu1   Cu2   S    
