data_mof_unit_22332.cif
_audit_creation_date              2012-12-10T19:45:45-0500
_audit_creation_method            fapswitch 2.2
_symmetry_space_group_name_H-M    P1
_symmetry_Int_Tables_number       1
_space_group_crystal_system       triclinic
_cell_length_a                    10.821228
_cell_length_b                    14.689035
_cell_length_c                    14.803792
_cell_angle_alpha                 65.039117
_cell_angle_beta                  103.964721
_cell_angle_gamma                 103.094352
_cell_volume                      2049.36549691

loop_
_atom_site_label
_atom_site_type_symbol
_atom_type_description
_atom_site_fract_x
_atom_site_fract_y
_atom_site_fract_z
_atom_type_partial_charge
C1    C     C_R   0.477163 0.119564 0.312576 0.806322
C2    C     C_R   0.657179 0.781519 0.965004 0.144573
C3    C     C_R   0.376570 0.151601 0.134008 -0.215518
C4    C     C_R   0.625382 0.848553 0.865645 -0.215387
C5    C     C_R   0.506045 0.289038 0.177412 -0.255017
C6    C     C_R   0.496325 0.710783 0.822599 -0.254918
C7    C     C_R   0.474995 0.359786 0.078484 0.065018
C8    C     C_R   0.529739 0.639963 0.921044 0.064975
C9    C     C_R   0.396470 0.322796 0.005538 0.111588
C10   C     C_R   0.608676 0.677049 0.993767 0.111570
C11   C     C_R   0.518809 0.465944 0.050663 0.082141
C12   C     C_R   0.522980 0.880436 0.687425 0.806223
C13   C     C_R   0.487233 0.533697 0.948676 0.082055
C14   C     C_R   0.415888 0.492792 0.877310 -0.227485
C15   C     C_R   0.591645 0.506792 0.121721 -0.227337
C16   C     C_R   0.262783 0.998907 0.502284 0.793585
C17   C     C_R   0.737215 0.001091 0.497717 0.793580
C18   C     C_R   0.370152 0.390285 0.905555 -0.201566
C19   C     C_R   0.636922 0.609381 0.093430 -0.201779
C20   C     C_R   0.714487 0.284541 0.668851 -0.315656
C21   C     C_R   0.285506 0.715452 0.331161 -0.315468
C22   C     C_R   0.680725 0.202851 0.639261 0.080470
C23   C     C_R   0.870752 0.001920 0.495494 -0.084910
C24   C     C_R   0.319252 0.797136 0.360757 0.080727
C25   C     C_R   0.518586 0.285383 0.508736 0.022817
C26   C     C_R   0.481477 0.714649 0.491223 0.022601
C27   C     C_R   0.548404 0.371451 0.534857 -0.027022
C28   C     C_R   0.451656 0.628577 0.465110 -0.026976
C29   C     C_R   0.648554 0.368824 0.617277 0.151740
C30   C     C_R   0.351472 0.631185 0.382716 0.151921
C31   C     C_R   0.482277 0.458607 0.483572 0.065040
C32   C     C_R   0.517780 0.541419 0.516400 0.065038
C33   C     C_R   0.618018 0.534222 0.599305 -0.239653
C34   C     C_R   0.129244 0.998062 0.504531 -0.084913
C35   C     C_R   0.381999 0.465784 0.400697 -0.239187
C36   C     C_R   0.681858 0.449792 0.648289 -0.194036
C37   C     C_R   0.318142 0.550204 0.351725 -0.194133
C38   C     C_R   0.368224 0.065413 0.769337 -0.081810
C39   C     C_R   0.632364 0.935110 0.230091 -0.082686
C40   C     C_R   0.271182 0.022979 0.711053 -0.084551
C41   C     C_R   0.729094 0.977326 0.288744 -0.084907
C42   C     C_R   0.190112 0.084761 0.629372 0.120936
C43   C     C_R   0.809922 0.915389 0.370500 0.121057
C44   C     C_R   0.204512 0.188660 0.609378 -0.145678
C45   C     C_R   0.905461 0.957932 0.438333 -0.001581
C46   C     C_R   0.795502 0.811536 0.390286 -0.145951
C47   C     C_R   0.300990 0.230578 0.668423 -0.114924
C48   C     C_R   0.699299 0.769827 0.330905 -0.114797
C49   C     C_R   0.383765 0.169263 0.747499 -0.074222
C50   C     C_R   0.616859 0.831317 0.251665 -0.074060
C51   C     C_R   0.965242 0.044245 0.555524 -0.225832
C52   C     C_R   0.034753 0.955729 0.444510 -0.225819
C53   C     C_R   0.094536 0.042063 0.561682 -0.001608
C54   C     C_R   0.455329 0.186761 0.205693 -0.096325
C55   C     C_R   0.546027 0.813247 0.794241 -0.096312
C56   C     C_R   0.346433 0.218585 0.034393 0.144460
Cu1   Cu    Cu3+1 0.466270 0.918260 0.475690 0.940758
Cu2   Cu    Cu3+1 0.533730 0.081740 0.524310 0.940594
H1    H     H_    0.459379 0.202148 0.792281 0.141272
H2    H     H_    0.730690 0.137317 0.679515 0.131519
H3    H     H_    0.791202 0.281582 0.732101 0.156746
H4    H     H_    0.208764 0.718394 0.267931 0.156689
H5    H     H_    0.649771 0.592754 0.628801 0.137988
H6    H     H_    0.350205 0.407232 0.371229 0.138007
H7    H     H_    0.431973 0.017917 0.830940 0.134061
H8    H     H_    0.568845 0.982736 0.168389 0.134304
H9    H     H_    0.261271 0.942675 0.727755 0.103157
H10   H     H_    0.739023 0.057598 0.272199 0.103335
H11   H     H_    0.143129 0.237474 0.546699 0.129257
H12   H     H_    0.541494 0.798603 0.206588 0.141326
H13   H     H_    0.856695 0.762604 0.453024 0.129334
H14   H     H_    0.312756 0.310881 0.652033 0.140026
H15   H     H_    0.687519 0.689558 0.347132 0.140146
H16   H     H_    0.938223 0.076530 0.600506 0.161567
H17   H     H_    0.061775 0.923462 0.399513 0.161551
H18   H     H_    0.314923 0.364619 0.847205 0.176378
H19   H     H_    0.693200 0.634970 0.151558 0.176655
H20   H     H_    0.431202 0.688906 0.765474 0.154761
H21   H     H_    0.569733 0.310802 0.235104 0.154783
H22   H     H_    0.665899 0.927895 0.843624 0.173099
H23   H     H_    0.393752 0.537409 0.797802 0.144163
H24   H     H_    0.335103 0.072456 0.156001 0.173249
H25   H     H_    0.615873 0.462119 0.200970 0.143937
H26   H     H_    0.758180 0.447777 0.711608 0.148977
H27   H     H_    0.241778 0.552196 0.288436 0.148839
H28   H     H_    0.557654 0.720424 0.551292 0.127167
H29   H     H_    0.442445 0.279628 0.448639 0.127216
H30   H     H_    0.269255 0.862654 0.320525 0.131542
I1    I     I_    0.215571 0.155690 0.936090 -0.436673
I2    I     I_    0.787517 0.844921 0.063140 -0.436780
N1    N     N_R   0.584450 0.204570 0.560790 -0.178879
N2    N     N_R   0.415550 0.795430 0.439210 -0.178871
O1    O     O_R   0.455540 0.022090 0.338120 -0.590934
O2    O     O_R   0.544460 0.977910 0.661880 -0.591098
O3    O     O_R   0.512510 0.160150 0.379180 -0.589279
O4    O     O_R   0.487490 0.839850 0.620820 -0.589108
O5    O     O_R   0.291160 0.930970 0.479480 -0.589100
O6    O     O_R   0.708840 0.069030 0.520520 -0.589150
O7    O     O_R   0.348130 0.069020 0.520540 -0.574468
O8    O     O_R   0.651870 0.930980 0.479460 -0.574480

loop_
_geom_bond_atom_site_label_1
_geom_bond_atom_site_label_2
_ccdc_geom_bond_type
C8    C13   A    
C23   C45   A    
Cu1   N2    S    
C27   C29   A    
C14   C18   A    
Cu2   O6    S    
C51   H16   S    
C6    C55   A    
C1    C54   S    
C52   H17   S    
C39   C41   A    
C38   C49   A    
C15   C19   A    
C29   C36   A    
C17   C23   S    
C37   H27   S    
C35   C37   A    
C4    H22   S    
C42   C53   S    
C22   H2    S    
C3    C54   A    
C16   O5    A    
C6    H20   S    
C26   N2    A    
C25   H29   S    
C33   C36   A    
C2    I2    S    
C20   H3    S    
C19   H19   S    
C16   C34   S    
C11   C15   A    
C40   H9    S    
C22   N1    A    
C35   H6    S    
C5    H21   S    
Cu2   N1    S    
C44   C47   A    
C33   H5    S    
C40   C42   A    
Cu1   O1    S    
C13   C14   A    
C41   C43   A    
C12   O2    A    
C42   C44   A    
C24   N2    A    
C17   O8    A    
C7    C11   A    
C41   H10   S    
C20   C29   A    
C46   C48   A    
C25   N1    A    
C27   C31   A    
C5    C54   A    
C28   C32   A    
C47   C49   A    
C5    C7    A    
C6    C8    A    
C26   H28   S    
C45   C52   A    
Cu1   O8    S    
Cu1   O4    S    
C30   C37   A    
C51   C53   A    
C2    C4    A    
Cu2   O3    S    
C43   C45   S    
C3    C56   A    
C23   C51   A    
C31   C32   A    
C38   H7    S    
C10   C19   A    
C1    O3    A    
Cu1   O5    S    
C3    H24   S    
C21   H4    S    
C44   H11   S    
C9    C56   A    
C24   H30   S    
C46   H13   S    
C8    C10   A    
C56   I1    S    
C20   C22   A    
C4    C55   A    
C39   H8    S    
C31   C35   A    
C2    C10   A    
C17   O6    A    
C7    C9    A    
C18   H18   S    
C26   C28   A    
C48   H15   S    
Cu2   O7    S    
C15   H25   S    
C16   O7    A    
C25   C27   A    
C21   C30   A    
C34   C52   A    
C49   H1    S    
C32   C33   A    
C28   C30   A    
C50   H12   S    
C38   C40   A    
C11   C13   A    
Cu1   Cu2   S    
C36   H26   S    
C48   C50   A    
Cu2   O2    S    
C43   C46   A    
C47   H14   S    
C12   C55   S    
C9    C18   A    
C39   C50   A    
C34   C53   A    
C1    O1    A    
C21   C24   A    
C12   O4    A    
C14   H23   S    
