data_mof_unit_15092.cif
_audit_creation_date              2012-12-10T19:08:08-0500
_audit_creation_method            fapswitch 2.2
_symmetry_space_group_name_H-M    P1
_symmetry_Int_Tables_number       1
_space_group_crystal_system       triclinic
_cell_length_a                    9.07558
_cell_length_b                    10.828117
_cell_length_c                    9.550085
_cell_angle_alpha                 89.661437
_cell_angle_beta                  89.974967
_cell_angle_gamma                 89.707804
_cell_volume                      938.471958753

loop_
_atom_site_label
_atom_site_type_symbol
_atom_type_description
_atom_site_fract_x
_atom_site_fract_y
_atom_site_fract_z
_atom_type_partial_charge
C1    C     C_R   0.503940 0.262549 0.500458 0.850333
C2    C     C_R   0.568759 0.937938 0.378693 0.239366
C3    C     C_R   0.521041 0.871239 0.498734 -0.095041
C4    C     C_R   0.497340 0.935877 0.622895 -0.044210
C5    C     C_3   0.374170 0.928080 0.726481 -0.403077
C6    C     C_3   0.374136 0.068348 0.728123 0.451203
C7    C     C_R   0.581134 0.416568 0.074102 0.228861
C8    C     C_R   0.407006 0.576051 0.074144 -0.156994
C9    C     C_R   0.407107 0.576342 0.925263 0.659103
C10   C     C_R   0.581107 0.416507 0.926897 0.140627
C11   C     C_3   0.743958 0.398192 0.921162 -0.455982
C12   C     C_R   0.220689 0.500023 0.499999 0.874159
C13   C     C_3   0.743945 0.398224 0.080072 -0.465787
C14   C     C_R   0.504522 0.737785 0.499347 0.816957
C15   C     C_R   0.779309 0.499862 0.500004 0.828273
C16   C     C_1   0.065544 0.499938 0.500023 -0.147224
C17   C     C_1   0.934434 0.499876 0.499994 -0.173144
C18   C     C_R   0.497267 0.062738 0.624501 0.001492
C19   C     C_R   0.521052 0.129935 0.501941 -0.072429
C20   C     C_R   0.569210 0.067407 0.381981 -0.266264
Cu1   Cu    Cu3+1 0.499990 0.499980 0.640670 1.014965
Cu2   Cu    Cu3+1 0.500010 0.500020 0.359330 0.962476
H1    H     H_    0.600894 0.118415 0.288830 0.159600
H2    H     H_    0.802853 0.478712 0.875590 0.227791
H3    H     H_    0.774470 0.307305 0.126615 0.190834
H4    H     H_    0.802811 0.478767 0.124503 0.225042
H5    H     H_    0.272498 0.887489 0.681312 0.238576
H6    H     H_    0.410607 0.886684 0.827436 0.185094
H7    H     H_    0.406853 0.109055 0.830009 0.069086
H8    H     H_    0.333333 0.637286 0.129817 0.163287
H9    H     H_    0.774556 0.307265 0.875891 0.203512
N1    N     N_R   0.500920 0.500930 0.147930 -0.209796
N2    N     N_R   0.500930 0.500890 0.852020 -0.232250
O1    O     O_R   0.500000 0.319640 0.618810 -0.578019
O2    O     O_R   0.500020 0.319680 0.381230 -0.590593
O3    O     O_R   0.288380 0.499980 0.618770 -0.515284
O4    O     O_R   0.288400 0.500020 0.381190 -0.591281
O5    O     O_R   0.499980 0.680320 0.618770 -0.542469
O6    O     O_R   0.500000 0.680360 0.381190 -0.557642
O7    O     O_R   0.711600 0.499980 0.618810 -0.588829
O8    O     O_R   0.711620 0.500020 0.381230 -0.583331
N3    N     N_2   0.614666 0.876579 0.254763 -0.406809
H10   H     H_    0.719164 0.901763 0.223564 0.248041
C21   C     C_3   0.510378 0.884610 0.140477 -0.639808
H11   H     H_    0.502100 0.981071 0.100725 0.200235
H12   H     H_    0.399839 0.853237 0.175243 0.239256
H13   H     H_    0.548105 0.824514 0.053653 0.221312
F1    F     F_    0.246789 0.118540 0.671025 -0.647800
F2    F     F_    0.314308 0.653393 0.855663 -0.675418

loop_
_geom_bond_atom_site_label_1
_geom_bond_atom_site_label_2
_ccdc_geom_bond_type
C7    C10   A    
N3    C21   S    
Cu1   O1    S    
C14   O5    A    
C5    H6    S    
Cu2   N1    S    
C19   C20   A    
C21   H13   S    
C8    H8    S    
C15   O7    A    
C12   O3    A    
Cu2   O4    S    
C2    C3    A    
C11   H9    S    
Cu1   O3    S    
Cu1   Cu2   S    
C9    N2    A    
Cu2   O2    S    
C11   C13   S    
C13   H3    S    
C16   C17   T    
C3    C14   S    
C6    F1    S    
C2    N3    S    
Cu2   O6    S    
C21   H12   S    
C1    O1    A    
C10   N2    A    
C5    C6    S    
C6    C18   S    
C13   H4    S    
C1    C19   S    
Cu2   O8    S    
Cu1   N2    S    
C10   C11   S    
C2    C20   A    
C3    C4    A    
C8    N1    A    
C11   H2    S    
C7    C13   S    
C6    H7    S    
C9    F2    S    
C21   H11   S    
C15   O8    A    
C18   C19   A    
N3    H10   S    
C12   O4    A    
C15   C17   S    
C1    O2    A    
C8    C9    A    
C7    N1    A    
C14   O6    A    
C5    H5    S    
C20   H1    S    
C4    C18   A    
Cu1   O5    S    
C12   C16   S    
C4    C5    S    
Cu1   O7    S    
