data_mof_unit_22970.cif
_audit_creation_date              2012-12-10T17:08:12-0500
_audit_creation_method            fapswitch 2.2
_symmetry_space_group_name_H-M    P1
_symmetry_Int_Tables_number       1
_space_group_crystal_system       triclinic
_cell_length_a                    23.456677
_cell_length_b                    11.066816
_cell_length_c                    9.92296
_cell_angle_alpha                 112.625817
_cell_angle_beta                  95.646889
_cell_angle_gamma                 92.950749
_cell_volume                      2354.90435791

loop_
_atom_site_label
_atom_site_type_symbol
_atom_type_description
_atom_site_fract_x
_atom_site_fract_y
_atom_site_fract_z
_atom_type_partial_charge
C1    C     C_R   0.494439 0.253264 0.438704 0.811239
C2    C     C_R   0.505391 0.747559 0.561873 0.832643
C3    C     C_R   0.232487 0.417951 0.394187 -0.103792
C4    C     C_R   0.768056 0.578848 0.615847 -0.111775
C5    C     C_R   0.291595 0.413749 0.393244 -0.236184
C6    C     C_R   0.708849 0.577676 0.619075 -0.218600
C7    C     C_R   0.329678 0.505983 0.509162 -0.027732
C8    C     C_R   0.670865 0.503050 0.491773 -0.032689
C9    C     C_R   0.308101 0.604766 0.624167 -0.231905
C10   C     C_R   0.692874 0.428978 0.361912 -0.242203
C11   C     C_R   0.248823 0.607468 0.626574 -0.109046
C12   C     C_R   0.752162 0.430044 0.358593 -0.107912
C13   C     C_R   0.210704 0.513803 0.511607 0.357860
C14   C     C_R   0.789889 0.505025 0.485704 0.372235
C15   C     C_2   0.486791 0.111044 0.402020 -0.069413
C16   C     C_2   0.512287 0.891292 0.598599 -0.074218
C17   C     C_2   0.511643 0.067054 0.500607 -0.189905
C18   C     C_2   0.504442 0.929280 0.484270 -0.205029
C19   C     C_2   0.512668 0.464962 0.055443 0.118089
C20   C     C_2   0.492383 0.488005 0.917723 0.173492
C21   C     C_R   0.391545 0.502237 0.503672 0.792311
C22   C     C_R   0.608653 0.500587 0.496935 0.801890
C23   C     C_R   0.882350 0.615134 0.495595 0.532997
C24   C     C_R   0.117985 0.407010 0.508071 0.529371
C25   C     C_R   0.876026 0.393253 0.476209 0.516263
C26   C     C_R   0.124078 0.624559 0.512761 0.512826
C27   C     C_R   0.936574 0.390372 0.478891 -0.041749
C28   C     C_R   0.063612 0.628504 0.511912 -0.036319
C29   C     C_R   0.969758 0.507224 0.493488 -0.044155
C30   C     C_R   0.030486 0.512704 0.500963 -0.044424
C31   C     C_R   0.942245 0.619109 0.500739 -0.027955
C32   C     C_R   0.058019 0.401746 0.497483 -0.026844
C33   C     C_R   0.965470 0.277274 0.468696 0.088627
C34   C     C_R   0.034588 0.741085 0.519267 0.088267
C35   C     C_R   0.025551 0.286291 0.481231 -0.207517
C36   C     C_R   0.974638 0.733625 0.514146 -0.208548
Cu1   Cu    Cu3+1 0.509980 0.521810 0.644910 0.899488
Cu2   Cu    Cu3+1 0.490020 0.478190 0.355090 0.910803
H1    H     H_    0.203490 0.346466 0.303683 0.143426
H2    H     H_    0.797064 0.636258 0.714642 0.135628
H3    H     H_    0.307652 0.338231 0.302254 0.147806
H4    H     H_    0.692752 0.635430 0.720808 0.151323
H5    H     H_    0.232499 0.682624 0.717229 0.142127
H6    H     H_    0.768830 0.371793 0.257989 0.137406
H7    H     H_    0.491672 0.856324 0.373799 0.181907
H8    H     H_    0.538433 0.136425 0.597855 0.158105
N1    N     N_R   0.850888 0.503996 0.484167 -0.461490
N2    N     N_R   0.149535 0.515966 0.512790 -0.459618
N3    N     N_2   0.475010 0.445410 0.137370 -0.323530
N4    N     N_2   0.524990 0.554590 0.862630 -0.314187
O1    O     O_R   0.505330 0.332340 0.577400 -0.600386
O2    O     O_R   0.494670 0.667660 0.422600 -0.581844
O3    O     O_R   0.488470 0.295500 0.332650 -0.576477
O4    O     O_R   0.511530 0.704500 0.667350 -0.582773
O5    O     O_R   0.426310 0.518390 0.622390 -0.588395
O6    O     O_R   0.573690 0.481610 0.377610 -0.591563
O7    O     O_R   0.409450 0.481550 0.377650 -0.576914
O8    O     O_R   0.590550 0.518450 0.622350 -0.579913
O9    O     O_2   0.855416 0.721632 0.502003 -0.575900
O10   O     O_2   0.144818 0.303549 0.513442 -0.566271
O11   O     O_2   0.842052 0.288682 0.469218 -0.565153
O12   O     O_2   0.157536 0.725973 0.510187 -0.567095
C37   C     C_3   0.935162 0.143959 0.441354 -0.344712
C38   C     C_3   0.919274 0.137085 0.585013 -0.338039
C39   C     C_3   0.870374 0.029962 0.553950 -0.731115
H9    H     H_    0.829316 0.060090 0.516730 0.278045
H10   H     H_    0.879466 0.937018 0.466449 0.267470
H11   H     H_    0.865435 0.013082 0.655667 0.246920
H12   H     H_    0.957720 0.115593 0.643946 0.194179
H13   H     H_    0.905939 0.232412 0.659355 0.248830
H14   H     H_    0.897698 0.118923 0.354724 0.237616
H15   H     H_    0.963464 0.064661 0.393237 0.150364
C40   C     C_3   0.064126 0.872985 0.536929 -0.340108
C41   C     C_3   0.091775 0.951328 0.696259 -0.339189
C42   C     C_3   0.122564 0.082173 0.713068 -0.773373
H16   H     H_    0.156931 0.065198 0.640178 0.280789
H17   H     H_    0.091486 0.143844 0.684879 0.251719
H18   H     H_    0.142522 0.136013 0.828852 0.232939
H19   H     H_    0.057724 0.971307 0.770394 0.205580
H20   H     H_    0.123101 0.894387 0.732060 0.247894
H21   H     H_    0.095038 0.860821 0.456172 0.243311
H22   H     H_    0.032296 0.933740 0.509218 0.159139
H23   H     H_    0.562526 0.605533 0.926851 0.177782
H24   H     H_    0.432860 0.456604 0.112297 0.211781
H25   H     H_    0.047156 0.200592 0.475841 0.175866
H26   H     H_    0.952989 0.819683 0.522364 0.176676
H27   H     H_    0.336904 0.680550 0.710705 0.135868
H28   H     H_    0.664243 0.367684 0.264915 0.152106
C43   C     C_3   0.529427 0.995235 0.755463 -0.419318
C44   C     C_3   0.531404 0.949299 0.883478 -0.320507
C45   C     C_3   0.546048 0.065253 0.031426 -0.889142
H29   H     H_    0.588819 0.115528 0.037836 0.256190
H30   H     H_    0.513098 0.136370 0.047006 0.269441
H31   H     H_    0.547927 0.029289 0.121602 0.246098
H32   H     H_    0.488833 0.899503 0.882176 0.231761
H33   H     H_    0.565411 0.881311 0.874618 0.240730
H34   H     H_    0.572926 0.042418 0.759730 0.207192
H35   H     H_    0.498332 0.071077 0.775943 0.206000
C46   C     C_3   0.447720 0.022814 0.262975 -0.413828
C47   C     C_3   0.388574 0.986412 0.298158 -0.326586
C48   C     C_3   0.349566 0.898974 0.158038 -0.852736
H36   H     H_    0.342512 0.951131 0.082848 0.250106
H37   H     H_    0.369180 0.806603 0.100632 0.245397
H38   H     H_    0.307248 0.873520 0.186582 0.253635
H39   H     H_    0.393146 0.933376 0.372943 0.232378
H40   H     H_    0.367823 0.077626 0.354193 0.213040
H41   H     H_    0.440762 0.074056 0.186885 0.216591
H42   H     H_    0.468407 0.933132 0.201842 0.196365
C49   C     C_3   0.433153 0.418752 0.842138 -0.308198
C50   C     C_3   0.385138 0.511325 0.888231 -0.374609
C51   C     C_3   0.325662 0.435082 0.832986 -0.807532
H43   H     H_    0.320681 0.380148 0.711784 0.265244
H44   H     H_    0.319482 0.364234 0.886037 0.244655
H45   H     H_    0.291952 0.504385 0.861308 0.250104
H46   H     H_    0.388196 0.563710 0.009143 0.189990
H47   H     H_    0.389319 0.590990 0.848080 0.239814
H48   H     H_    0.430885 0.367752 0.722567 0.236074
H49   H     H_    0.424085 0.333606 0.872659 0.141133
C52   C     C_3   0.574580 0.433428 0.076840 -0.351998
C53   C     C_3   0.600514 0.362065 0.932577 -0.405818
C54   C     C_3   0.660505 0.322493 0.960827 -0.870449
H50   H     H_    0.689794 0.410312 0.034010 0.262918
H51   H     H_    0.659079 0.249199 0.011348 0.243560
H52   H     H_    0.678243 0.277560 0.854726 0.256681
H53   H     H_    0.571625 0.273216 0.861502 0.221068
H54   H     H_    0.605654 0.424923 0.870280 0.249251
H55   H     H_    0.602138 0.525241 0.146921 0.199046
H56   H     H_    0.574643 0.362781 0.130951 0.241213

loop_
_geom_bond_atom_site_label_1
_geom_bond_atom_site_label_2
_ccdc_geom_bond_type
C48   H36   S    
C27   C29   A    
C11   C13   A    
C40   C41   S    
C19   C20   S    
C49   H48   S    
C44   H32   S    
Cu2   N3    S    
C27   C33   A    
C23   O9    S    
C46   H42   S    
C10   H28   S    
C47   H39   S    
Cu1   Cu2   S    
N3    H24   S    
Cu1   O1    S    
C53   H54   S    
Cu2   O2    S    
C15   C17   D    
C1    O3    A    
C50   C51   S    
C54   H52   S    
C20   N4    D    
C4    H2    S    
C39   H10   S    
C49   H49   S    
C8    C22   S    
C11   H5    S    
C1    C15   S    
C38   H13   S    
C2    C16   S    
C25   N1    A    
Cu1   O8    S    
C3    C13   A    
C24   O10   S    
C52   H56   S    
C26   O12   S    
C19   C52   S    
C16   C43   S    
C48   H37   S    
C41   H20   S    
C40   H21   S    
N4    H23   S    
C23   N1    A    
C41   C42   S    
C24   N2    A    
C32   C35   A    
C17   H8    S    
C4    C6    A    
C2    O4    A    
C45   H29   S    
C5    C7    A    
C53   H53   S    
C22   O6    A    
C36   H26   S    
C7    C21   S    
C20   C49   S    
C43   H34   S    
C23   C31   A    
C42   H16   S    
C24   C32   A    
C21   O7    A    
C29   C30   A    
C2    O2    A    
C45   H30   S    
Cu2   O7    S    
C9    C11   A    
C19   N3    D    
C46   C47   S    
C33   C37   S    
C39   H11   S    
C17   C18   S    
C51   H44   S    
C25   O11   S    
C38   H12   S    
C42   H17   S    
C54   H50   S    
C10   C12   A    
Cu1   O4    S    
C16   C18   D    
C37   H14   S    
C48   H38   S    
C41   H19   S    
C18   H7    S    
C50   H47   S    
C40   H22   S    
C53   C54   S    
C21   O5    A    
C7    C9    A    
C5    H3    S    
C51   H43   S    
C26   C28   A    
C15   C46   S    
C3    C5    A    
C22   O8    A    
C13   N2    S    
C6    C8    A    
C52   C53   S    
C44   H33   S    
C14   N1    S    
C26   N2    A    
C25   C27   A    
C46   H41   S    
C47   H40   S    
C1    O1    A    
C43   H35   S    
C38   C39   S    
C28   C30   A    
C12   C14   A    
C29   C31   A    
C49   C50   S    
C9    H27   S    
C45   H31   S    
C30   C32   A    
Cu1   N4    S    
C35   H25   S    
C44   C45   S    
Cu2   O3    S    
C47   C48   S    
C33   C35   A    
C51   H45   S    
C34   C36   A    
C28   C34   A    
C4    C14   A    
C42   H18   S    
C54   H51   S    
C34   C40   S    
C3    H1    S    
C37   C38   S    
Cu1   O5    S    
Cu2   O6    S    
C37   H15   S    
C8    C10   A    
C39   H9    S    
C6    H4    S    
C31   C36   A    
C12   H6    S    
C43   C44   S    
C50   H46   S    
C52   H55   S    
