data_mof_unit_8721.cif
_audit_creation_date              2013-03-05T16:11:04-0500
_audit_creation_method            fapswitch 2.2
_symmetry_space_group_name_H-M    P1
_symmetry_Int_Tables_number       1
_space_group_crystal_system       triclinic
_cell_length_a                    10.737605
_cell_length_b                    9.418989
_cell_length_c                    10.623768
_cell_angle_alpha                 90.206116
_cell_angle_beta                  89.799483
_cell_angle_gamma                 90.15026
_cell_volume                      1074.44290535

loop_
_atom_site_label
_atom_site_type_symbol
_atom_site_description
_atom_site_fract_x
_atom_site_fract_y
_atom_site_fract_z
_atom_type_partial_charge
O1    O     O_R   0.317570 0.620260 0.500070 -0.602605
O2    O     O_R   0.317570 0.379740 0.500070 -0.594502
C1    C     C_R   0.259812 0.499634 0.500614 0.799099
O3    O     O_R   0.499850 0.620240 0.316900 -0.590256
O4    O     O_R   0.499850 0.379760 0.316900 -0.585387
C2    C     C_R   0.499721 0.499703 0.259345 0.873881
Cu1   Cu    Cu3+1 0.499860 0.642410 0.500060 0.932976
Cu2   Cu    Cu3+1 0.499860 0.357590 0.500060 0.930343
O5    O     O_R   0.682190 0.620260 0.500030 -0.573405
O6    O     O_R   0.682190 0.379740 0.500030 -0.584492
O7    O     O_R   0.499910 0.620280 0.683200 -0.599175
O8    O     O_R   0.499910 0.379720 0.683200 -0.585312
C3    C     C_R   0.740081 0.500043 0.497745 0.851022
C4    C     C_R   0.499377 0.500299 0.740752 0.816662
C5    C     C_3   0.395527 0.564522 0.043282 -0.199983
C6    C     C_3   0.501386 0.364689 0.040500 -0.144058
C7    C     C_3   0.398245 0.430804 0.958997 0.175921
H1    H     H_    0.310850 0.616791 0.081584 0.160483
H2    H     H_    0.503092 0.253932 0.075884 0.149998
C8    C     C_3   0.498598 0.500871 0.877589 -0.045795
C9    C     C_3   0.496510 0.635060 0.959962 -0.204158
C10   C     C_3   0.602290 0.435434 0.957244 -0.160196
C11   C     C_3   0.600280 0.569543 0.041689 -0.079891
C12   C     C_3   0.499370 0.499019 0.122586 -0.030180
H3    H     H_    0.494591 0.745785 0.924517 0.153285
H4    H     H_    0.686917 0.382943 0.919094 0.159522
H5    H     H_    0.683098 0.626642 0.078380 0.214856
C13   C     C_3   0.070460 0.588224 0.609202 -0.341515
C14   C     C_3   0.071082 0.344983 0.508861 -0.378904
H6    H     H_    0.101139 0.700696 0.600307 0.198705
H7    H     H_    0.106930 0.278331 0.429930 0.189721
H8    H     H_    0.107347 0.547763 0.699950 0.191053
H9    H     H_    0.102927 0.295979 0.598347 0.203773
C15   C     C_3   0.927202 0.581611 0.611084 -0.410632
C16   C     C_3   0.928670 0.345014 0.505416 -0.400113
H10   H     H_    0.895925 0.526632 0.698356 0.176258
H11   H     H_    0.892792 0.295348 0.593436 0.180503
H12   H     H_    0.888231 0.690537 0.617111 0.211739
H13   H     H_    0.896814 0.276331 0.426706 0.231593
H14   H     H_    0.119003 0.669113 0.357534 0.194908
H15   H     H_    0.113672 0.495400 0.294169 0.173046
C17   C     C_3   0.076671 0.562514 0.372254 -0.440119
C18   C     C_3   0.122119 0.498879 0.498175 0.044575
C19   C     C_3   0.878355 0.499850 0.493494 -0.032076
C20   C     C_3   0.930994 0.569620 0.367705 0.598564
C21   C     C_3   0.615890 0.084277 0.558775 -0.186747
C22   C     C_3   0.615629 0.916817 0.559270 -0.181513
H16   H     H_    0.627562 0.124968 0.656462 0.143629
H17   H     H_    0.626453 0.877671 0.657285 0.137631
H18   H     H_    0.698597 0.120771 0.504582 0.167493
H19   H     H_    0.698533 0.879551 0.506053 0.210085
H20   H     H_    0.398226 0.123255 0.675345 0.171450
H21   H     H_    0.397283 0.876872 0.674908 0.149208
C23   C     C_3   0.394369 0.083762 0.576686 -0.179414
C24   C     C_3   0.394147 0.916178 0.576385 -0.190710
C25   C     C_3   0.490453 0.083115 0.373653 -0.189431
C26   C     C_3   0.490615 0.916003 0.373641 -0.180101
N1    N     N_3   0.500250 0.143650 0.502780 -0.130604
N2    N     N_3   0.500250 0.856350 0.502780 -0.132617
H22   H     H_    0.403787 0.121703 0.328109 0.148493
H23   H     H_    0.404101 0.876432 0.327863 0.145887
H24   H     H_    0.569568 0.121508 0.314914 0.172751
H25   H     H_    0.569835 0.877968 0.314998 0.193181
H26   H     H_    0.304520 0.121112 0.537434 0.154098
H27   H     H_    0.304371 0.878591 0.536442 0.158043
I1    I     I_    0.237033 0.320661 0.892703 -0.446661
N3    N     N_R   0.890838 0.719424 0.358227 0.104342
O9    O     O_R   0.802968 0.755068 0.280417 -0.366966
O10   O     O_R   0.944226 0.819103 0.424165 -0.434505
N4    N     N_R   0.889205 0.493610 0.252789 0.094165
O11   O     O_R   0.797954 0.402433 0.254606 -0.414253
O12   O     O_R   0.933722 0.531707 0.143789 -0.346664

loop_
_geom_bond_atom_site_label_1
_geom_bond_atom_site_label_2
_geom_bond_distance
_ccdc_geom_bond_type
C5    H1    1.110394 S    
C24   N2    1.490295 S    
H15   C17   1.113937 S    
Cu1   Cu2   2.682716 S    
C22   H17   1.112458 S    
Cu1   O7    1.957519 S    
C1    C18   1.478807 S    
C7    I1    2.136033 S    
C16   H11   1.114156 S    
O4    C2    1.286534 A    
O7    C4    1.286820 A    
C26   N2    1.488449 S    
C14   H9    1.113561 S    
C7    C8    1.529221 S    
C25   C26   1.574027 S    
C5    C7    1.542994 S    
O5    C3    1.293263 A    
C9    H3    1.110358 S    
Cu2   N1    2.015425 S    
C21   C22   1.577330 S    
C6    C7    1.542168 S    
C20   N3    1.480368 S    
C11   C12   1.532234 S    
N4    O11   1.301359 A    
C11   H5    1.109226 S    
H14   C17   1.112403 S    
C13   C15   1.539416 S    
C6    C12   1.534236 S    
C15   H12   1.110585 S    
C14   C18   1.552731 S    
O3    Cu1   1.956275 S    
Cu1   N2    2.015195 S    
C24   H27   1.111155 S    
H20   C23   1.111787 S    
C26   H25   1.111909 S    
H21   C24   1.112132 S    
C21   H16   1.112394 S    
N3    O9    1.302070 A    
C4    C8    1.453708 S    
C13   H8    1.112507 S    
C15   C19   1.557027 S    
O3    C2    1.287580 A    
C22   H19   1.109945 S    
C25   H22   1.112840 S    
O1    C1    1.293008 A    
C17   C20   1.566743 S    
C16   H13   1.109822 S    
Cu2   O8    1.956028 S    
C2    C12   1.452909 S    
C16   C19   1.562304 S    
C5    C12   1.532211 S    
C8    C10   1.532839 S    
C9    C11   1.546098 S    
C25   H24   1.112719 S    
C17   C18   1.548829 S    
C19   C20   1.592565 S    
C23   N1    1.490233 S    
Cu1   O5    1.969415 S    
C21   H18   1.111098 S    
C23   C24   1.578456 S    
C6    C10   1.547251 S    
C20   N4    1.483315 S    
O1    Cu1   1.967900 S    
O2    Cu2   1.968988 S    
O8    C4    1.287931 A    
O6    C3    1.291277 A    
O4    Cu2   1.957769 S    
C26   H23   1.112849 S    
C14   C16   1.529728 S    
C13   C18   1.548513 S    
C13   H6    1.112828 S    
O2    C1    1.289786 A    
C14   H7    1.113851 S    
C23   H26   1.110893 S    
C6    H2    1.110365 S    
C25   N1    1.487651 S    
C15   H10   1.113975 S    
C22   N2    1.489443 S    
C5    C9    1.547396 S    
C8    C9    1.534887 S    
Cu2   O6    1.968327 S    
C10   H4    1.110298 S    
C10   C11   1.546856 S    
N4    O12   1.302469 A    
N3    O10   1.302341 A    
C3    C19   1.485259 S    
C21   N1    1.489849 S    
