data_mof_unit_65440.cif
_audit_creation_date              2012-12-10T19:11:14-0500
_audit_creation_method            fapswitch 2.2
_symmetry_space_group_name_H-M    P1
_symmetry_Int_Tables_number       1
_space_group_crystal_system       triclinic
_cell_length_a                    24.442863
_cell_length_b                    24.442731
_cell_length_c                    43.027234
_cell_angle_alpha                 90.00014
_cell_angle_beta                  90.000136
_cell_angle_gamma                 89.999796
_cell_volume                      25706.6349445

loop_
_atom_site_label
_atom_site_type_symbol
_atom_type_description
_atom_site_fract_x
_atom_site_fract_y
_atom_site_fract_z
_atom_type_partial_charge
C1    C     C_R   0.771330 0.271330 0.250000 0.033698
C2    C     C_R   0.771330 0.728670 0.250000 0.033703
C3    C     C_R   0.394834 0.105166 0.250000 0.504336
C4    C     C_R   0.894833 0.394833 0.750000 0.504364
C5    C     C_R   0.105166 0.605167 0.250000 0.503578
C6    C     C_R   0.394833 0.105167 0.750000 0.503571
C7    C     C_R   0.605166 0.894833 0.250000 0.504364
C8    C     C_R   1.000000 0.500000 0.131528 -0.021053
C9    C     C_R   0.000000 0.500000 0.868471 -0.021009
C10   C     C_R   0.500000 1.000000 0.131529 -0.021011
C11   C     C_R   0.500000 0.000000 0.868472 -0.021054
C12   C     C_R   0.500000 0.000000 0.631530 -0.021052
C13   C     C_R   0.271330 0.771330 0.750000 0.033704
C14   C     C_R   0.500000 0.000000 0.368469 -0.021009
C15   C     C_R   0.000000 0.500000 0.631530 -0.021015
C16   C     C_R   1.000000 0.500000 0.368471 -0.021046
C17   C     C_R   0.823421 0.260264 0.262270 -0.118123
C18   C     C_R   0.192757 0.723558 0.724681 -0.118521
C19   C     C_R   0.723552 0.807237 0.275321 -0.118521
C20   C     C_R   0.260271 0.176586 0.737718 -0.118128
C21   C     C_R   0.176579 0.739736 0.262271 -0.118123
C22   C     C_R   0.807243 0.276442 0.724681 -0.118519
C23   C     C_R   0.276555 0.192865 0.275363 -0.118521
C24   C     C_R   0.728671 0.228670 0.250000 0.032687
C25   C     C_R   0.739735 0.823420 0.737728 -0.118127
C26   C     C_R   0.192780 0.276465 0.724672 -0.118528
C27   C     C_R   0.823419 0.739734 0.262273 -0.118150
C28   C     C_R   0.260266 0.823420 0.737727 -0.118148
C29   C     C_R   0.723551 0.192765 0.275322 -0.118527
C30   C     C_R   0.807226 0.723542 0.724674 -0.118529
C31   C     C_R   0.176626 0.260303 0.262341 -0.118165
C32   C     C_R   0.739734 0.176579 0.737728 -0.118149
C33   C     C_R   0.276450 0.807235 0.275322 -0.118526
C34   C     C_R   0.323420 0.760266 0.762272 -0.118126
C35   C     C_R   0.771329 0.728670 0.750000 0.032683
C36   C     C_R   0.692765 0.223550 0.224678 -0.118518
C37   C     C_R   0.223536 0.307221 0.775328 -0.118520
C38   C     C_R   0.760266 0.676580 0.237727 -0.118127
C39   C     C_R   0.676580 0.239734 0.762273 -0.118125
C40   C     C_R   0.307235 0.776449 0.224678 -0.118519
C41   C     C_R   0.776457 0.692773 0.775325 -0.118521
C42   C     C_R   0.239697 0.323375 0.237659 -0.118141
C43   C     C_R   0.692763 0.776448 0.224678 -0.118527
C44   C     C_R   0.323414 0.239730 0.762281 -0.118153
C45   C     C_R   0.760264 0.323421 0.237729 -0.118149
C46   C     C_R   0.228673 0.271327 0.250000 0.033690
C47   C     C_R   0.223557 0.692758 0.775319 -0.118527
C48   C     C_R   0.307134 0.223444 0.224637 -0.118528
C49   C     C_R   0.676580 0.760264 0.762272 -0.118152
C50   C     C_R   0.239735 0.676579 0.237729 -0.118150
C51   C     C_R   0.776443 0.307243 0.775319 -0.118527
C52   C     C_R   0.863543 0.300658 0.262479 -0.120771
C53   C     C_R   0.152238 0.683561 0.724792 -0.120801
C54   C     C_R   0.683555 0.847756 0.275211 -0.120799
C55   C     C_R   0.300664 0.136464 0.737509 -0.120784
C56   C     C_R   0.136457 0.699343 0.262480 -0.120774
C57   C     C_R   0.728670 0.228670 0.750000 0.033705
C58   C     C_R   0.847761 0.316438 0.724792 -0.120801
C59   C     C_R   0.316551 0.152345 0.275253 -0.120795
C60   C     C_R   0.699342 0.863542 0.737519 -0.120781
C61   C     C_R   0.152261 0.316462 0.724782 -0.120859
C62   C     C_R   0.863541 0.699340 0.262483 -0.120856
C63   C     C_R   0.300660 0.863542 0.737518 -0.120848
C64   C     C_R   0.683553 0.152247 0.275212 -0.120859
C65   C     C_R   0.847745 0.683545 0.724785 -0.120859
C66   C     C_R   0.136503 0.300697 0.262549 -0.120869
C67   C     C_R   0.699340 0.136458 0.737518 -0.120848
C68   C     C_R   0.271329 0.771329 0.250000 0.032687
C69   C     C_R   0.316447 0.847752 0.275212 -0.120855
C70   C     C_R   0.363541 0.800660 0.762482 -0.120787
C71   C     C_R   0.652247 0.183553 0.224788 -0.120797
C72   C     C_R   0.183539 0.347739 0.775217 -0.120800
C73   C     C_R   0.800660 0.636459 0.237517 -0.120787
C74   C     C_R   0.636459 0.199341 0.762482 -0.120787
C75   C     C_R   0.347753 0.816446 0.224788 -0.120802
C76   C     C_R   0.816455 0.652255 0.775215 -0.120800
C77   C     C_R   0.199303 0.363497 0.237452 -0.120800
C78   C     C_R   0.652244 0.816445 0.224789 -0.120858
C79   C     C_R   0.852476 0.352477 0.250000 0.038678
C80   C     C_R   0.363535 0.199336 0.762491 -0.120847
C81   C     C_R   0.800658 0.363543 0.237520 -0.120844
C82   C     C_R   0.183561 0.652239 0.775209 -0.120857
C83   C     C_R   0.347654 0.183449 0.224747 -0.120853
C84   C     C_R   0.636458 0.800658 0.762481 -0.120845
C85   C     C_R   0.199342 0.636457 0.237520 -0.120841
C86   C     C_R   0.816439 0.347761 0.775209 -0.120858
C87   C     C_R   0.147524 0.647524 0.750000 0.037648
C88   C     C_R   0.647523 0.852476 0.250000 0.037651
C89   C     C_R   0.228670 0.728670 0.750000 0.032693
C90   C     C_R   0.352476 0.147524 0.750000 0.038670
C91   C     C_R   0.147523 0.647524 0.250000 0.038678
C92   C     C_R   0.852477 0.352476 0.750000 0.037648
C93   C     C_R   0.352479 0.147521 0.250000 0.037688
C94   C     C_R   0.647524 0.852476 0.750000 0.038676
C95   C     C_R   0.147523 0.352477 0.750000 0.037658
C96   C     C_R   0.852476 0.647523 0.250000 0.038671
C97   C     C_R   0.352477 0.852477 0.750000 0.038673
C98   C     C_R   0.647524 0.147524 0.250000 0.037652
C99   C     C_R   0.852476 0.647524 0.750000 0.037655
C100  C     C_R   0.728670 0.771330 0.250000 0.032690
C101  C     C_R   0.147526 0.352474 0.250000 0.038632
C102  C     C_R   0.647523 0.147523 0.750000 0.038673
C103  C     C_R   0.352476 0.852476 0.250000 0.037651
C104  C     C_R   0.500000 0.000000 0.468422 0.349961
C105  C     C_R   0.500000 0.000000 0.531576 0.350116
C106  C     C_R   1.000000 0.500000 0.468419 0.350193
C107  C     C_R   0.000000 0.500000 0.531572 0.349963
C108  C     C_R   0.000000 0.500000 0.968423 0.350027
C109  C     C_R   1.000000 0.500000 0.031575 0.350181
C110  C     C_R   0.500000 0.000000 0.968425 0.350192
C111  C     C_R   0.271330 0.228671 0.750000 0.033698
C112  C     C_R   0.500000 1.000000 0.031577 0.350038
C113  C     C_R   0.950510 0.499444 0.115038 -0.122120
C114  C     C_R   0.049491 0.500558 0.884960 -0.123649
C115  C     C_R   0.500536 0.950509 0.115039 -0.123648
C116  C     C_R   0.499466 0.049491 0.884962 -0.122121
C117  C     C_R   0.049490 0.500556 0.115038 -0.122125
C118  C     C_R   0.950510 0.499442 0.884960 -0.123649
C119  C     C_R   0.499464 0.049491 0.115039 -0.123653
C120  C     C_R   0.500534 0.950509 0.884962 -0.122121
C121  C     C_R   0.450513 0.999219 0.615041 -0.122124
C122  C     C_R   0.228670 0.728670 0.250000 0.033697
C123  C     C_R   0.549487 0.000783 0.384957 -0.123651
C124  C     C_R   0.000800 0.450513 0.615041 -0.123651
C125  C     C_R   0.998824 0.549480 0.384960 -0.122119
C126  C     C_R   0.549486 0.000782 0.615041 -0.122124
C127  C     C_R   0.450513 0.999217 0.384957 -0.123657
C128  C     C_R   0.999201 0.549486 0.615041 -0.123650
C129  C     C_R   0.001175 0.450520 0.384960 -0.122123
C130  C     C_R   0.950325 0.499443 0.082623 0.093051
C131  C     C_R   0.049675 0.500558 0.917375 0.092388
C132  C     C_R   0.500535 0.950324 0.082625 0.092386
C133  C     C_R   0.771330 0.271329 0.750000 0.032693
C134  C     C_R   0.499466 0.049675 0.917377 0.093048
C135  C     C_R   0.049674 0.500557 0.082623 0.093048
C136  C     C_R   0.950325 0.499441 0.917375 0.092388
C137  C     C_R   0.499464 0.049675 0.082625 0.092384
C138  C     C_R   0.500533 0.950325 0.917377 0.093049
C139  C     C_R   0.450328 0.999212 0.582627 0.093062
C140  C     C_R   0.549672 0.000790 0.417371 0.092400
C141  C     C_R   0.000807 0.450328 0.582626 0.092410
C142  C     C_R   0.998815 0.549663 0.417374 0.093041
C143  C     C_R   0.549672 0.000789 0.582627 0.093062
C144  C     C_R   0.271332 0.228668 0.250000 0.032669
C145  C     C_R   0.450328 0.999210 0.417371 0.092398
C146  C     C_R   0.999193 0.549672 0.582626 0.092410
C147  C     C_R   0.001184 0.450337 0.417374 0.093039
C148  C     C_R   1.000000 0.500000 0.065965 0.029909
C149  C     C_R   0.000000 0.500000 0.934033 0.030204
C150  C     C_R   0.500000 1.000000 0.065967 0.030210
C151  C     C_R   0.500000 0.000000 0.934035 0.029914
C152  C     C_R   0.500000 0.000000 0.565967 0.029876
C153  C     C_R   0.500000 0.000000 0.434031 0.030172
C154  C     C_R   0.000000 0.500000 0.565966 0.030151
C155  C     C_R   0.728670 0.771330 0.750000 0.033695
C156  C     C_R   1.000000 0.500000 0.434031 0.029937
C157  C     C_R   1.000000 0.500000 0.334219 0.511349
C158  C     C_R   0.000000 0.500000 0.665781 0.509469
C159  C     C_R   0.500000 0.000000 0.334219 0.509467
C160  C     C_R   0.500000 0.000000 0.665781 0.511350
C161  C     C_R   0.500000 0.000000 0.834220 0.511351
C162  C     C_R   0.500000 1.000000 0.165780 0.509468
C163  C     C_R   0.000000 0.500000 0.834219 0.509472
C164  C     C_R   1.000000 0.500000 0.165780 0.511350
C165  C     C_R   0.894833 0.605166 0.250000 0.503557
C166  C     C_R   0.228670 0.271330 0.750000 0.032685
C167  C     C_R   0.105166 0.394833 0.750000 0.504353
C168  C     C_R   0.394833 0.894833 0.250000 0.504355
C169  C     C_R   0.605166 0.105166 0.750000 0.503564
C170  C     C_R   0.105167 0.394833 0.250000 0.503570
C171  C     C_R   0.894833 0.605167 0.750000 0.504353
C172  C     C_R   0.605166 0.105167 0.250000 0.504356
C173  C     C_R   0.394833 0.894833 0.750000 0.503563
C174  C     C_R   0.105166 0.605167 0.750000 0.504364
C175  C     C_R   0.894833 0.394833 0.250000 0.503577
C176  C     C_R   0.605167 0.894833 0.750000 0.503567
F1    F     F_    0.901392 0.497801 0.067730 -0.156108
F2    F     F_    0.598600 0.002662 0.432261 -0.156649
F3    F     F_    0.002692 0.401398 0.567739 -0.156640
F4    F     F_    0.996538 0.598566 0.432272 -0.156123
F5    F     F_    0.598600 0.002659 0.567737 -0.156092
F6    F     F_    0.401400 0.997338 0.432261 -0.156649
F7    F     F_    0.997308 0.598602 0.567739 -0.156640
F8    F     F_    0.003462 0.401434 0.432271 -0.156126
F9    F     F_    0.098608 0.502202 0.932269 -0.156665
F10   F     F_    0.502157 0.901391 0.067730 -0.156668
F11   F     F_    0.497847 0.098609 0.932272 -0.156112
F12   F     F_    0.098608 0.502199 0.067730 -0.156111
F13   F     F_    0.901392 0.497797 0.932268 -0.156665
F14   F     F_    0.497843 0.098608 0.067730 -0.156669
F15   F     F_    0.502153 0.901392 0.932272 -0.156111
F16   F     F_    0.401400 0.997342 0.567737 -0.156092
H1    H     H_    0.911729 0.498808 0.127211 0.154219
H2    H     H_    0.588264 0.001601 0.372784 0.152163
H3    H     H_    0.001631 0.411737 0.627215 0.152160
H4    H     H_    0.997684 0.588247 0.372787 0.154207
H5    H     H_    0.588263 0.001597 0.627215 0.154221
H6    H     H_    0.411737 0.998399 0.372783 0.152163
H7    H     H_    0.998370 0.588263 0.627215 0.152161
H8    H     H_    0.002315 0.411754 0.372787 0.154201
H9    H     H_    0.833424 0.220188 0.271360 0.110576
H10   H     H_    0.196379 0.750007 0.704601 0.112740
H11   H     H_    0.749997 0.803610 0.295403 0.112745
H12   H     H_    0.088271 0.501195 0.872787 0.152160
H13   H     H_    0.220200 0.166588 0.728620 0.110576
H14   H     H_    0.166576 0.779812 0.271360 0.110577
H15   H     H_    0.803621 0.249992 0.704601 0.112740
H16   H     H_    0.250193 0.196578 0.295473 0.112767
H17   H     H_    0.779810 0.833422 0.728638 0.110579
H18   H     H_    0.196420 0.250032 0.704586 0.112735
H19   H     H_    0.833422 0.779809 0.271365 0.110566
H20   H     H_    0.220191 0.833424 0.728637 0.110562
H21   H     H_    0.749996 0.196393 0.295403 0.112732
H22   H     H_    0.803592 0.749981 0.704591 0.112738
H23   H     H_    0.501155 0.911728 0.127213 0.152160
H24   H     H_    0.166656 0.220258 0.271487 0.110585
H25   H     H_    0.779809 0.166575 0.728637 0.110562
H26   H     H_    0.250005 0.803608 0.295404 0.112734
H27   H     H_    0.333424 0.720191 0.771363 0.110566
H28   H     H_    0.696392 0.249995 0.204596 0.112749
H29   H     H_    0.249968 0.303581 0.795413 0.112749
H30   H     H_    0.720192 0.666577 0.228635 0.110570
H31   H     H_    0.666576 0.279809 0.771363 0.110566
H32   H     H_    0.303607 0.750004 0.204596 0.112747
H33   H     H_    0.750018 0.696407 0.795408 0.112752
H34   H     H_    0.498848 0.088272 0.872789 0.154217
H35   H     H_    0.279741 0.333344 0.228513 0.110589
H36   H     H_    0.696390 0.750003 0.204597 0.112729
H37   H     H_    0.333412 0.279801 0.771380 0.110568
H38   H     H_    0.720189 0.333424 0.228640 0.110569
H39   H     H_    0.250007 0.696379 0.795399 0.112726
H40   H     H_    0.303422 0.249807 0.204527 0.112751
H41   H     H_    0.666578 0.720189 0.771362 0.110570
H42   H     H_    0.279811 0.666575 0.228640 0.110568
H43   H     H_    0.749993 0.303621 0.795399 0.112726
H44   H     H_    0.903441 0.291102 0.271999 0.133041
H45   H     H_    0.088270 0.501192 0.127211 0.154213
H46   H     H_    0.125117 0.680340 0.704966 0.135890
H47   H     H_    0.680330 0.874873 0.295038 0.135887
H48   H     H_    0.291114 0.096572 0.727981 0.133042
H49   H     H_    0.096559 0.708898 0.271999 0.133036
H50   H     H_    0.874883 0.319659 0.704966 0.135889
H51   H     H_    0.319864 0.125311 0.295111 0.135834
H52   H     H_    0.708897 0.903440 0.727999 0.133032
H53   H     H_    0.125158 0.319702 0.704950 0.135718
H54   H     H_    0.903437 0.708893 0.272006 0.133000
H55   H     H_    0.291106 0.903438 0.727995 0.133002
H56   H     H_    0.911729 0.498805 0.872787 0.152161
H57   H     H_    0.680324 0.125134 0.295041 0.135725
H58   H     H_    0.874852 0.680309 0.704954 0.135721
H59   H     H_    0.096639 0.291173 0.272124 0.133055
H60   H     H_    0.708893 0.096561 0.727996 0.133001
H61   H     H_    0.319677 0.874866 0.295040 0.135731
H62   H     H_    0.403438 0.791106 0.772004 0.133030
H63   H     H_    0.625133 0.180324 0.204960 0.135878
H64   H     H_    0.180298 0.374843 0.795050 0.135866
H65   H     H_    0.791107 0.596562 0.227994 0.133033
H66   H     H_    0.596562 0.208894 0.772004 0.133031
H67   H     H_    0.498845 0.088272 0.127213 0.152159
H68   H     H_    0.374867 0.819675 0.204960 0.135873
H69   H     H_    0.819690 0.625147 0.795046 0.135870
H70   H     H_    0.208827 0.403361 0.227876 0.133088
H71   H     H_    0.625127 0.819670 0.204962 0.135739
H72   H     H_    0.403428 0.208886 0.772019 0.133009
H73   H     H_    0.791102 0.403441 0.228000 0.132999
H74   H     H_    0.180340 0.625117 0.795034 0.135740
H75   H     H_    0.374688 0.180136 0.204889 0.135685
H76   H     H_    0.596561 0.791103 0.772001 0.133001
H77   H     H_    0.208897 0.596558 0.228001 0.133004
H78   H     H_    0.501151 0.911728 0.872789 0.154219
H79   H     H_    0.819661 0.374883 0.795034 0.135741
H80   H     H_    0.411737 0.998403 0.627214 0.154220
N1    N     N_R   0.044495 0.482734 0.015459 -0.188115
N2    N     N_R   0.455363 0.016894 0.484540 -0.188239
N3    N     N_R   0.016812 0.544668 0.515454 -0.188221
N4    N     N_R   0.983190 0.455330 0.484535 -0.188135
N5    N     N_R   0.455363 0.016894 0.515458 -0.188083
N6    N     N_R   0.544637 0.983106 0.484540 -0.188236
N7    N     N_R   0.983189 0.455331 0.515454 -0.188222
N8    N     N_R   0.016810 0.544670 0.484535 -0.188134
N9    N     N_R   0.955504 0.517266 0.984539 -0.188268
N10   N     N_R   0.517317 0.044476 0.015461 -0.188274
N11   N     N_R   0.482683 0.955524 0.984541 -0.188119
N12   N     N_R   0.955504 0.517266 0.015458 -0.188113
N13   N     N_R   0.044495 0.482734 0.984540 -0.188270
N14   N     N_R   0.482683 0.955524 0.015460 -0.188275
N15   N     N_R   0.517317 0.044476 0.984542 -0.188119
N16   N     N_R   0.544637 0.983106 0.515458 -0.188082
O1    O     O_3   0.000000 0.500000 0.250000 -0.435136
O2    O     O_R   0.000000 0.454510 0.680680 -0.544904
O3    O     O_R   0.454510 0.000000 0.319320 -0.544912
O4    O     O_R   0.545490 0.000000 0.680680 -0.542131
O5    O     O_R   0.500000 0.954510 0.819320 -0.542127
O6    O     O_R   0.500000 0.045490 0.180680 -0.544907
O7    O     O_R   0.045490 0.500000 0.819320 -0.544905
O8    O     O_R   0.954510 0.500000 0.180680 -0.542127
O9    O     O_R   0.500000 0.045490 0.819320 -0.542128
O10   O     O_R   0.500000 0.954510 0.180680 -0.544903
O11   O     O_R   0.954510 0.500000 0.819320 -0.544904
O12   O     O_3   0.000000 0.500000 0.750000 -0.434902
O13   O     O_R   0.045490 0.500000 0.180680 -0.542134
O14   O     O_R   0.936000 0.609460 0.268180 -0.546091
O15   O     O_R   0.064000 0.390540 0.731820 -0.544835
O16   O     O_R   0.390540 0.936000 0.268180 -0.544826
O17   O     O_R   0.609460 0.064000 0.731820 -0.546067
O18   O     O_R   0.064000 0.390540 0.268180 -0.546105
O19   O     O_R   0.936000 0.609460 0.731820 -0.544836
O20   O     O_R   0.609460 0.064000 0.268180 -0.544837
O21   O     O_R   0.390540 0.936000 0.731820 -0.546067
O22   O     O_R   0.064000 0.609460 0.731820 -0.544722
O23   O     O_3   0.500000 0.000000 0.250000 -0.434906
O24   O     O_R   0.936000 0.390540 0.268180 -0.545895
O25   O     O_R   0.609460 0.936000 0.731820 -0.545921
O26   O     O_R   0.390540 0.064000 0.268180 -0.544700
O27   O     O_R   0.936000 0.390540 0.731820 -0.544722
O28   O     O_R   0.064000 0.609460 0.268180 -0.545899
O29   O     O_R   0.390540 0.064000 0.731820 -0.545924
O30   O     O_R   0.609460 0.936000 0.268180 -0.544721
O31   O     O_R   0.436000 0.109460 0.768180 -0.546058
O32   O     O_R   0.564000 0.890540 0.231820 -0.544827
O33   O     O_R   0.890540 0.436000 0.768180 -0.544829
O34   O     O_3   0.500000 0.000000 0.750000 -0.435138
O35   O     O_R   0.109460 0.564000 0.231820 -0.546056
O36   O     O_R   0.564000 0.890540 0.768180 -0.546056
O37   O     O_R   0.436000 0.109460 0.231820 -0.544806
O38   O     O_R   0.109460 0.564000 0.768180 -0.544828
O39   O     O_R   0.890540 0.436000 0.231820 -0.546059
O40   O     O_R   0.564000 0.109460 0.231820 -0.544724
O41   O     O_R   0.436000 0.890540 0.768180 -0.545933
O42   O     O_R   0.109460 0.436000 0.231820 -0.545945
O43   O     O_R   0.890540 0.564000 0.768180 -0.544730
O44   O     O_R   0.436000 0.890540 0.231820 -0.544734
O45   O     O_R   0.000000 0.454510 0.319320 -0.542130
O46   O     O_R   0.564000 0.109460 0.768180 -0.545934
O47   O     O_R   0.890540 0.564000 0.231820 -0.545931
O48   O     O_R   0.109460 0.436000 0.768180 -0.544729
O49   O     O_R   0.000000 0.545490 0.680680 -0.544903
O50   O     O_R   0.545490 0.000000 0.319320 -0.544907
O51   O     O_R   0.454510 0.000000 0.680680 -0.542133
O52   O     O_R   0.000000 0.545490 0.319320 -0.542123
Zn1   Zn    Zn3+2 0.935020 0.500000 0.224040 0.940817
Zn2   Zn    Zn3+2 0.564980 0.000000 0.275960 0.940549
Zn3   Zn    Zn3+2 0.000000 0.435020 0.724040 0.940554
Zn4   Zn    Zn3+2 0.000000 0.564980 0.275960 0.940820
Zn5   Zn    Zn3+2 0.564980 0.000000 0.724040 0.940814
Zn6   Zn    Zn3+2 0.435020 0.000000 0.275960 0.940557
Zn7   Zn    Zn3+2 0.000000 0.564980 0.724040 0.940553
Zn8   Zn    Zn3+2 0.000000 0.435020 0.275960 0.940812
Zn9   Zn    Zn3+2 0.064980 0.500000 0.775960 0.940553
Zn10  Zn    Zn3+2 0.500000 0.935020 0.224040 0.940550
Zn11  Zn    Zn3+2 0.500000 0.064980 0.775960 0.940815
Zn12  Zn    Zn3+2 0.064980 0.500000 0.224040 0.940810
Zn13  Zn    Zn3+2 0.935020 0.500000 0.775960 0.940552
Zn14  Zn    Zn3+2 0.500000 0.064980 0.224040 0.940558
Zn15  Zn    Zn3+2 0.500000 0.935020 0.775960 0.940816
Zn16  Zn    Zn3+2 0.435020 0.000000 0.724040 0.940813

loop_
_geom_bond_atom_site_label_1
_geom_bond_atom_site_label_2
_ccdc_geom_bond_type
O4    Zn5   S    
C132  C150  A    
C77   C101  A    
O40   Zn14  S    
N9    N12   A    
C146  F7    S    
C9    C114  A    
C172  O40   A    
C20   C55   A    
C73   H65   S    
C141  C154  A    
C174  O38   A    
C12   C126  A    
C82   C87   A    
C83   C93   A    
C139  C152  A    
O43   Zn13  S    
C120  H78   S    
C48   C144  A    
C51   H43   S    
C39   C74   A    
C5    O28   A    
O19   Zn7   S    
O39   Zn1   S    
C50   C122  A    
C140  F2    S    
C25   C60   A    
O12   Zn3   S    
C107  N3    A    
C162  O10   A    
C36   C71   A    
C33   C69   A    
C69   C103  A    
C29   C64   A    
C117  H45   S    
C10   C162  S    
C75   C103  A    
C57   C133  S    
C32   C57   A    
C53   C87   A    
C17   C52   A    
O14   Zn4   S    
O21   Zn16  S    
C105  N16   A    
C97   C173  S    
C3    O26   A    
O11   Zn13  S    
C65   C99   A    
C139  F16   S    
C113  C130  A    
C34   H27   S    
C130  C148  A    
O34   Zn15  S    
C130  F1    S    
C20   C111  A    
C163  O11   A    
C29   H21   S    
C7    C88   S    
C146  C154  A    
O46   Zn11  S    
C172  O20   A    
C19   H11   S    
C173  O21   A    
C101  C170  S    
C112  N10   A    
C17   H9    S    
C16   C129  A    
O26   Zn6   S    
C121  H80   S    
O12   Zn7   S    
C127  C145  A    
C169  O17   A    
C3    O37   A    
C171  O43   A    
C131  C149  A    
C120  C138  A    
C158  O2    A    
C104  N6    A    
C117  C135  A    
C127  H6    S    
C104  N2    A    
O5    Zn15  S    
C118  C136  A    
C52   H44   S    
C157  O52   A    
O41   Zn15  S    
C87   C174  S    
O10   Zn10  S    
C18   C89   A    
C49   C155  A    
C45   C81   A    
C168  O44   A    
O17   Zn5   S    
C22   C58   A    
C31   H24   S    
C138  C151  A    
C63   H55   S    
C125  H4    S    
N3    N8    A    
C128  H7    S    
C37   H29   S    
C128  C146  A    
C41   C76   A    
C54   C88   A    
C175  O39   A    
C134  C151  A    
C123  C140  A    
C118  H56   S    
C129  C147  A    
O33   Zn13  S    
O3    Zn6   S    
O24   Zn8   S    
C167  O15   A    
C168  O16   A    
C160  O51   A    
C142  C156  A    
O45   Zn8   S    
C126  C143  A    
C138  F15   S    
C167  O48   A    
C70   H62   S    
C129  H8    S    
C23   C59   A    
C24   C36   A    
C49   C84   A    
C35   C155  S    
C86   H79   S    
C55   C90   A    
O34   Zn16  S    
C157  O45   A    
C50   H42   S    
C58   H50   S    
C10   C119  A    
C142  F4    S    
C12   C121  A    
C31   C46   A    
C123  H2    S    
C104  C153  S    
C52   C79   A    
C16   C125  A    
C50   C85   A    
C98   C172  S    
N10   N15   A    
C65   H58   S    
N11   N14   A    
C81   H73   S    
C9    C118  A    
C66   C101  A    
C20   H13   S    
C11   C120  A    
C160  O4    A    
C8    C117  A    
O34   Zn5   S    
C159  O3    A    
C115  C132  A    
C74   H66   S    
C15   C124  A    
C22   C133  A    
C15   C158  S    
C3    C93   S    
C8    C164  S    
C46   C144  S    
C6    C90   S    
C21   H14   S    
C44   H37   S    
C28   C63   A    
C27   C62   A    
O12   Zn13  S    
C2    C38   A    
C26   H18   S    
C71   H63   S    
C5    C91   S    
C32   C67   A    
C131  F9    S    
C19   C54   A    
O18   Zn8   S    
C106  C156  S    
O51   Zn16  S    
C4    O33   A    
C112  C150  S    
C124  C141  A    
C45   H38   S    
O47   Zn1   S    
C43   H36   S    
C126  H5    S    
C169  O46   A    
C95   C167  S    
C163  O7    A    
C1    C17   A    
C48   C83   A    
C136  F13   S    
C121  C139  A    
O23   Zn2   S    
O36   Zn15  S    
O32   Zn10  S    
C63   C97   A    
C67   H60   S    
C1    C45   A    
O35   Zn12  S    
C170  O18   A    
O23   Zn14  S    
C114  H12   S    
C137  C150  A    
C30   C65   A    
C137  F14   S    
O29   Zn16  S    
C1    C24   S    
C96   C165  S    
O48   Zn9   S    
O13   Zn12  S    
C58   C92   A    
C4    O27   A    
C108  N9    A    
C33   C68   A    
O34   Zn11  S    
C60   C94   A    
C147  F8    S    
C119  H67   S    
C62   C96   A    
N2    N5    A    
C114  C131  A    
C80   H72   S    
O6    Zn14  S    
C158  O49   A    
C136  C149  A    
C43   C78   A    
O30   Zn2   S    
N6    N16   A    
C26   C61   A    
C54   H47   S    
O23   Zn6   S    
C62   H54   S    
C116  C134  A    
C11   C161  S    
C84   H76   S    
C42   C46   A    
C85   H77   S    
C21   C122  A    
C9    C163  S    
C24   C29   A    
C18   C53   A    
O44   Zn10  S    
C165  O14   A    
C56   C91   A    
C110  N15   A    
C175  O24   A    
C13   C28   A    
C2    C27   A    
C55   H48   S    
C34   C70   A    
C70   C97   A    
C140  C153  A    
C74   C102  A    
O37   Zn14  S    
C64   C98   A    
C107  N7    A    
O16   Zn6   S    
C165  O47   A    
C39   H31   S    
C159  O50   A    
C72   H64   S    
C51   C86   A    
O28   Zn4   S    
C41   H33   S    
C7    O32   A    
C60   H52   S    
C77   H70   S    
O42   Zn12  S    
C44   C80   A    
O38   Zn9   S    
C106  N4    A    
C43   C100  A    
C173  O41   A    
C110  C151  S    
O1    Zn8   S    
C68   C122  S    
C33   H26   S    
C14   C127  A    
O15   Zn3   S    
C30   H22   S    
N4    N7    A    
C5    O35   A    
C18   H10   S    
C84   C94   A    
C12   C160  S    
C11   C116  A    
C8    C113  A    
C143  C152  A    
C15   C128  A    
C23   C144  A    
C170  O42   A    
C164  O8    A    
C78   C88   A    
C105  C152  S    
C66   H59   S    
C16   C157  S    
C141  F3    S    
C113  H1    S    
C134  F11   S    
C161  O5    A    
O52   Zn4   S    
C21   C56   A    
C19   C100  A    
C61   C95   A    
C28   H20   S    
C14   C159  S    
C40   C75   A    
C38   H30   S    
O20   Zn2   S    
C13   C34   A    
C176  O36   A    
C174  O22   A    
C22   H15   S    
O2    Zn3   S    
O27   Zn3   S    
C64   H57   S    
C44   C111  A    
C99   C171  S    
C40   C68   A    
C37   C72   A    
C73   C96   A    
C109  N1    A    
C94   C176  S    
C4    C92   S    
C6    O31   A    
C31   C66   A    
C76   H69   S    
C7    O30   A    
C23   H16   S    
C25   C155  A    
C105  N5    A    
C78   H71   S    
C161  O9    A    
C36   H28   S    
C85   C91   A    
C69   H61   S    
C42   H35   S    
C76   C99   A    
C171  O19   A    
O25   Zn5   S    
C30   C35   A    
C40   H32   S    
C143  F5    S    
C47   H39   S    
C61   H53   S    
C39   C57   A    
O31   Zn11  S    
C59   H51   S    
C47   C82   A    
O1    Zn1   S    
O7    Zn9   S    
C49   H41   S    
C108  N13   A    
C72   C95   A    
O12   Zn9   S    
C32   H25   S    
C145  C153  A    
C102  C169  S    
C2    C100  S    
C103  C168  S    
C164  O13   A    
C47   C89   A    
C112  N14   A    
O23   Zn10  S    
C35   C41   A    
C71   C98   A    
C115  H23   S    
C119  C137  A    
C79   C175  S    
C82   H74   S    
C132  F10   S    
C79   C81   A    
C109  N12   A    
C110  N11   A    
C56   H49   S    
O50   Zn2   S    
C145  F6    S    
C116  H34   S    
C48   H40   S    
O8    Zn1   S    
C147  C156  A    
C125  C142  A    
C27   H19   S    
C111  C166  S    
C25   H17   S    
C42   C77   A    
C6    O29   A    
N1    N13   A    
C109  C148  S    
C106  N8    A    
O1    Zn12  S    
C135  F12   S    
O1    Zn4   S    
C26   C166  A    
C14   C123  A    
C13   C89   S    
C53   H46   S    
C37   C166  A    
C83   H75   S    
O22   Zn7   S    
C86   C92   A    
C51   C133  A    
O9    Zn11  S    
C124  H3    S    
C80   C90   A    
C107  C154  S    
C108  C149  S    
O49   Zn7   S    
C176  O25   A    
C75   H68   S    
C135  C148  A    
C59   C93   A    
C162  O6    A    
C10   C115  A    
C67   C102  A    
C38   C73   A    
