data_mof_unit_67668.cif
_audit_creation_date              2012-12-10T19:43:25-0500
_audit_creation_method            fapswitch 2.2
_symmetry_space_group_name_H-M    P1
_symmetry_Int_Tables_number       1
_space_group_crystal_system       triclinic
_cell_length_a                    11.093472
_cell_length_b                    11.164293
_cell_length_c                    9.85813
_cell_angle_alpha                 90.165326
_cell_angle_beta                  89.97757
_cell_angle_gamma                 96.52218
_cell_volume                      1213.03000182

loop_
_atom_site_label
_atom_site_type_symbol
_atom_type_description
_atom_site_fract_x
_atom_site_fract_y
_atom_site_fract_z
_atom_type_partial_charge
C1    C     C_R   0.504382 0.262644 0.498971 0.792832
C2    C     C_R   0.135071 0.220987 0.045527 -0.243334
C3    C     C_R   0.928823 0.441647 0.374084 0.260015
C4    C     C_R   0.867571 0.474640 0.493735 -0.193244
C5    C     C_R   0.931097 0.459283 0.613193 0.044353
C6    C     C_R   0.054101 0.513007 0.602336 0.285780
C7    C     C_R   0.123991 0.472248 0.497014 -0.205289
C8    C     C_R   0.056543 0.430372 0.380892 -0.006970
C9    C     C_R   0.883942 0.299566 0.799864 0.348564
C10   C     C_R   0.906588 0.187988 0.850995 -0.277427
C11   C     C_R   0.940500 0.100003 0.763834 0.168421
C12   C     C_R   0.261551 0.491462 0.499495 0.837150
C13   C     C_R   0.932331 0.117180 0.624647 0.192933
C14   C     C_R   0.919709 0.231455 0.575577 -0.345158
C15   C     C_R   0.911314 0.330059 0.664055 0.018949
C16   C     C_R   0.600719 0.120335 0.721977 -0.079625
C17   C     C_R   0.602869 0.065428 0.848233 -0.108264
C18   C     C_R   0.531149 0.957059 0.870163 -0.110304
C19   C     C_R   0.473977 0.893166 0.762222 0.314137
C20   C     C_R   0.491622 0.938309 0.628201 0.004105
C21   C     C_R   0.532535 0.063293 0.615063 0.042248
C22   C     C_R   0.506434 0.126678 0.496208 -0.163227
C23   C     C_R   0.486877 0.735160 0.501665 0.862589
C24   C     C_R   0.466739 0.056183 0.380860 0.147016
C25   C     C_R   0.441523 0.929621 0.390321 0.173229
C26   C     C_R   0.467673 0.867684 0.508626 -0.178930
C27   C     C_R   0.664873 0.656840 0.151456 0.125646
C28   C     C_R   0.781623 0.652712 0.107503 0.248018
C29   C     C_R   0.799204 0.646601 0.968284 0.254334
C30   C     C_R   0.698545 0.635546 0.878829 0.108083
C31   C     C_R   0.582382 0.582430 0.929144 0.078445
C32   C     C_R   0.573902 0.586525 0.077427 0.087602
C33   C     C_R   0.431515 0.417153 0.073575 0.001271
C34   C     C_R   0.735719 0.491248 0.498804 0.868529
C35   C     C_R   0.436990 0.411921 0.928839 0.431365
C36   C     C_R   0.140920 0.345719 0.033419 0.201206
C37   C     C_R   0.134391 0.416880 0.148133 0.334844
C38   C     C_R   0.111190 0.363057 0.274022 -0.023733
C39   C     C_R   0.111432 0.238362 0.287520 -0.258127
C40   C     C_R   0.121231 0.167438 0.172580 0.338750
Cu1   Cu    Cu3+1 0.499990 0.499990 0.640660 1.083165
Cu2   Cu    Cu3+1 0.500010 0.500010 0.359340 1.055977
H1    H     H_    0.141231 0.166147 0.956311 0.234577
H2    H     H_    0.914160 0.239281 0.467849 0.198430
H3    H     H_    0.651201 0.207706 0.708418 0.180379
H4    H     H_    0.651173 0.111777 0.931814 0.212118
H5    H     H_    0.515650 0.924388 0.971805 0.205742
H6    H     H_    0.374745 0.348671 0.127565 0.150253
H7    H     H_    0.097234 0.195820 0.385233 0.189273
H8    H     H_    0.892222 0.167569 0.957494 0.216804
N1    N     N_R   0.501190 0.501210 0.147910 -0.191972
N2    N     N_R   0.501230 0.501290 0.852040 -0.173486
O1    O     O_R   0.499990 0.319640 0.618810 -0.549492
O2    O     O_R   0.500000 0.319660 0.381240 -0.558192
O3    O     O_R   0.319640 0.500000 0.618780 -0.508914
O4    O     O_R   0.319650 0.500020 0.381210 -0.575195
O5    O     O_R   0.500000 0.680340 0.618760 -0.553892
O6    O     O_R   0.500010 0.680360 0.381190 -0.549673
O7    O     O_R   0.680350 0.499980 0.618790 -0.556062
O8    O     O_R   0.680360 0.500000 0.381220 -0.541258
I1    I     I_    0.005683 0.948054 0.845827 -0.093129
I2    I     I_    0.924094 0.974445 0.484635 -0.151542
I3    I     I_    0.469146 0.128380 0.181088 -0.259683
Br1   Br    Br    0.346270 0.770567 0.813159 -0.329247
I4    I     I_    0.339312 0.834189 0.234641 -0.064036
Br2   Br    Br    0.154066 0.419222 0.861127 -0.420488
I5    I     I_    0.658806 0.843898 0.182816 -0.262810
Br3   Br    Br    0.912482 0.703766 0.229928 -0.273182
Br4   Br    Br    0.959508 0.642315 0.903461 -0.247883
I6    I     I_    0.738008 0.753718 0.713116 -0.219762
Br5   Br    Br    0.376572 0.258215 0.853921 -0.463323
Br6   Br    Br    0.164498 0.586459 0.134387 -0.255524
Br7   Br    Br    0.099428 0.997692 0.186392 -0.304325
Br8   Br    Br    0.836173 0.366221 0.225678 -0.444489
I7    I     I_    0.085751 0.703612 0.590738 -0.054481
Br9   Br    Br    0.769615 0.374727 0.898286 -0.501459

loop_
_geom_bond_atom_site_label_1
_geom_bond_atom_site_label_2
_ccdc_geom_bond_type
C23   O6    A    
C16   C21   A    
Cu1   Cu2   S    
C19   C20   A    
C31   N2    A    
C18   H5    S    
Cu2   O6    S    
C7    C8    A    
C37   C38   A    
C36   C37   A    
C28   Br3   S    
C5    C6    A    
C36   Br2   S    
C40   Br7   S    
C18   C19   A    
C23   C26   S    
C3    Br8   S    
C1    O1    A    
Cu1   O3    S    
Cu2   O4    S    
C13   I2    S    
C16   C17   A    
C9    Br9   S    
C9    C10   A    
C19   Br1   S    
Cu1   N2    S    
Cu2   N1    S    
C35   Br5   S    
C1    C22   S    
C21   C22   A    
C34   O8    A    
C8    C38   S    
C30   I6    S    
C29   Br4   S    
C7    C12   S    
C4    C34   S    
C6    I7    S    
C25   I4    S    
C24   C25   A    
Cu1   O7    S    
C3    C8    A    
Cu2   O8    S    
C39   C40   A    
C25   C26   A    
C38   C39   A    
C1    O2    A    
C32   N1    A    
C29   C30   A    
C31   C32   A    
C2    H1    S    
C17   C18   A    
C17   H4    S    
Cu1   O1    S    
C12   O4    A    
C39   H7    S    
C24   I3    S    
C34   O7    A    
C22   C24   A    
C3    C4    A    
C10   H8    S    
C27   C28   A    
C14   H2    S    
C2    C36   A    
C23   O5    A    
C28   C29   A    
C27   C32   A    
C4    C5    A    
C11   I1    S    
C16   H3    S    
C6    C7    A    
C33   N1    A    
C9    C15   A    
Cu1   O5    S    
Cu2   O2    S    
C11   C13   A    
C30   C31   A    
C20   C26   A    
C33   C35   A    
C5    C15   S    
C12   O3    A    
C27   I5    S    
C10   C11   A    
C2    C40   A    
C20   C21   A    
C37   Br6   S    
C35   N2    A    
C33   H6    S    
C14   C15   A    
C13   C14   A    
