data_mof_unit_52240.cif
_audit_creation_date              2012-12-10T19:46:54-0500
_audit_creation_method            fapswitch 2.2
_symmetry_space_group_name_H-M    P1
_symmetry_Int_Tables_number       1
_space_group_crystal_system       triclinic
_cell_length_a                    10.945665
_cell_length_b                    10.988373
_cell_length_c                    13.127206
_cell_angle_alpha                 91.964563
_cell_angle_beta                  91.758928
_cell_angle_gamma                 88.752072
_cell_volume                      1576.86429944

loop_
_atom_site_label
_atom_site_type_symbol
_atom_type_description
_atom_site_fract_x
_atom_site_fract_y
_atom_site_fract_z
_atom_type_partial_charge
C1    C     C_R   0.494575 0.259676 0.498382 0.885755
C2    C     C_R   0.505553 0.740359 0.501564 0.884663
C3    C     C_R   0.872912 0.503151 0.503043 -0.128962
C4    C     C_R   0.127049 0.495475 0.496831 -0.128656
C5    C     C_R   0.941846 0.452726 0.584317 -0.092405
C6    C     C_R   0.058102 0.546247 0.415765 -0.089746
C7    C     C_R   0.447306 0.157366 0.142040 0.097009
C8    C     C_R   0.563289 0.847303 0.857226 0.092859
C9    C     C_R   0.434961 0.130182 0.244061 -0.229601
C10   C     C_R   0.571989 0.875022 0.754938 -0.225464
C11   C     C_R   0.538004 0.114223 0.308263 0.062779
C12   C     C_R   0.467012 0.886699 0.692289 0.060931
C13   C     C_R   0.654940 0.137823 0.273290 0.073873
C14   C     C_R   0.351868 0.860528 0.729647 0.072098
C15   C     C_R   0.668304 0.169695 0.170659 0.246957
C16   C     C_R   0.342034 0.829858 0.832973 0.247642
C17   C     C_R   0.564942 0.172759 0.103899 0.122189
C18   C     C_R   0.447354 0.828820 0.897675 0.123553
C19   C     C_R   0.532185 0.931285 0.411822 0.093272
C20   C     C_R   0.467331 0.068807 0.587627 0.113091
C21   C     C_R   0.507141 0.873036 0.502855 -0.141562
C22   C     C_R   0.492997 0.127070 0.496842 -0.137331
C23   C     C_R   0.259610 0.497445 0.498556 0.872751
C24   C     C_R   0.740401 0.501881 0.501433 0.874096
C25   C     C_R   0.478545 0.942126 0.591759 -0.008467
C26   C     C_R   0.522441 0.058138 0.408062 -0.015375
C27   C     C_1   0.500089 0.499931 0.173590 0.164588
C28   C     C_1   0.500119 0.500046 0.826416 0.165322
C29   C     C_1   0.500154 0.499863 0.050701 -0.123918
C30   C     C_1   0.500266 0.500097 0.949317 -0.124004
C31   C     C_R   0.196315 0.770237 0.242842 0.222264
C32   C     C_R   0.811014 0.239462 0.770446 0.208504
C33   C     C_R   0.148642 0.719602 0.329158 -0.151504
C34   C     C_R   0.853559 0.284511 0.679999 -0.125537
C35   C     C_R   0.116426 0.596878 0.327035 0.094946
C36   C     C_R   0.884093 0.407452 0.675556 0.087143
C37   C     C_R   0.133306 0.523935 0.238622 -0.125967
C38   C     C_R   0.868837 0.485885 0.761057 -0.123208
C39   C     C_R   0.181184 0.573959 0.152494 -0.190880
C40   C     C_R   0.825165 0.441204 0.850945 -0.187251
C41   C     C_R   0.211718 0.696791 0.154258 -0.145313
C42   C     C_R   0.797576 0.318169 0.855917 -0.168985
C43   C     C_R   0.930882 0.551977 0.419844 0.096619
C44   C     C_R   0.069099 0.446452 0.579928 0.098099
Cu1   Cu    Cu3+1 0.499990 0.499990 0.592680 1.003703
Cu2   Cu    Cu3+1 0.500010 0.500010 0.407320 1.002476
H1    H     H_    0.245730 0.734932 0.086439 0.193887
H2    H     H_    0.767183 0.283566 0.926322 0.199354
H3    H     H_    0.134788 0.776177 0.397261 0.132159
H4    H     H_    0.866121 0.223506 0.614364 0.136182
H5    H     H_    0.107890 0.429128 0.236207 0.132584
H6    H     H_    0.893031 0.580780 0.758481 0.132545
H7    H     H_    0.193366 0.517895 0.083993 0.142106
H8    H     H_    0.814497 0.501418 0.917223 0.141845
H9    H     H_    0.344732 0.116306 0.272528 0.174120
H10   H     H_    0.660717 0.893107 0.725035 0.182499
N1    N     N_1   0.500030 0.500030 0.268070 -0.127379
N2    N     N_1   0.499970 0.499970 0.731930 -0.128049
O1    O     O_R   0.499980 0.319630 0.578260 -0.545145
O2    O     O_R   0.500020 0.680370 0.421740 -0.546962
O3    O     O_R   0.500000 0.319650 0.421740 -0.591608
O4    O     O_R   0.500000 0.680350 0.578260 -0.589984
O5    O     O_R   0.319630 0.500000 0.578260 -0.557593
O6    O     O_R   0.680370 0.500000 0.421740 -0.556706
O7    O     O_R   0.319650 0.500020 0.421740 -0.587491
O8    O     O_R   0.680350 0.499980 0.578260 -0.587113
N3    N     N_3   0.758516 0.126998 0.342308 -0.601919
H11   H     H_    0.803901 0.209752 0.346681 0.227690
H12   H     H_    0.817865 0.059124 0.313930 0.207614
N4    N     N_3   0.246411 0.867550 0.662269 -0.606692
H13   H     H_    0.202842 0.783799 0.660272 0.228778
H14   H     H_    0.186377 0.934894 0.690493 0.204071
N5    N     N_2   0.785141 0.195655 0.132921 -0.414379
H15   H     H_    0.855965 0.141704 0.160555 0.249834
C45   C     C_3   0.813710 0.323709 0.137907 -0.703704
H16   H     H_    0.821323 0.357459 0.218499 0.223180
H17   H     H_    0.741792 0.377658 0.097132 0.243056
H18   H     H_    0.902187 0.337333 0.101146 0.222087
N6    N     N_2   0.226556 0.804310 0.873611 -0.414329
H19   H     H_    0.154413 0.856418 0.845827 0.246227
C46   C     C_3   0.199280 0.676084 0.873217 -0.701164
H20   H     H_    0.192866 0.637993 0.793815 0.222186
H21   H     H_    0.110582 0.663633 0.909979 0.221844
H22   H     H_    0.271194 0.625330 0.916639 0.245910
N7    N     N_3   0.570272 0.860693 0.323407 -0.558583
H23   H     H_    0.509396 0.876522 0.262161 0.214359
H24   H     H_    0.657606 0.886900 0.304291 0.224537
N8    N     N_3   0.426838 0.139225 0.675319 -0.557694
H25   H     H_    0.487168 0.124888 0.737136 0.215236
H26   H     H_    0.339798 0.111412 0.693741 0.220200
N9    N     N_3   0.225346 0.896814 0.245653 -0.606306
H27   H     H_    0.263395 0.919856 0.176971 0.234103
H28   H     H_    0.292988 0.909806 0.302621 0.213364
N10   N     N_3   0.784373 0.113164 0.775677 -0.607954
H29   H     H_    0.840833 0.076264 0.832953 0.231559
H30   H     H_    0.694237 0.106877 0.798490 0.227033
N11   N     N_3   0.859659 0.612053 0.341597 -0.564702
H31   H     H_    0.886095 0.702783 0.339785 0.220313
H32   H     H_    0.876758 0.569166 0.271037 0.221294
N12   N     N_3   0.140492 0.387157 0.658490 -0.565418
H33   H     H_    0.113621 0.296659 0.661336 0.217251
H34   H     H_    0.124129 0.431203 0.728724 0.221499
N13   N     N_3   0.581422 0.185338 0.997000 -0.603509
H35   H     H_    0.550559 0.106460 0.958607 0.203512
H36   H     H_    0.527561 0.258282 0.971757 0.226199
N14   N     N_3   0.434465 0.815276 0.004925 -0.603688
H37   H     H_    0.463401 0.895169 0.042910 0.204338
H38   H     H_    0.491596 0.744097 0.029021 0.226766
N15   N     N_3   0.339402 0.166087 0.077929 -0.594018
H39   H     H_    0.334518 0.253033 0.047966 0.221892
H40   H     H_    0.346376 0.101925 0.017644 0.220239
N16   N     N_3   0.673085 0.841314 0.919273 -0.597431
H41   H     H_    0.665991 0.904822 0.980013 0.222337
H42   H     H_    0.681413 0.754252 0.948750 0.220685

loop_
_geom_bond_atom_site_label_1
_geom_bond_atom_site_label_2
_ccdc_geom_bond_type
C32   N10   S    
C20   C25   A    
C27   C29   S    
C14   N4    S    
N5    H15   S    
N16   H42   S    
C46   H20   S    
C39   C41   A    
N7    H23   S    
C3    C43   A    
C35   C37   A    
C1    O1    A    
C37   H5    S    
C2    O2    A    
C23   O5    A    
C38   H6    S    
N14   H37   S    
C33   H3    S    
C5    C36   S    
Cu1   O4    S    
C11   C13   A    
C6    C35   S    
C15   C17   A    
C19   C26   A    
N15   H40   S    
N11   H32   S    
C7    C17   A    
C31   C33   A    
N4    H13   S    
C9    H9    S    
C10   H10   S    
C24   O8    A    
C40   C42   A    
C1    C22   S    
C24   O6    A    
N5    C45   S    
C3    C24   S    
N16   H41   S    
C46   H21   S    
N11   H31   S    
N7    H24   S    
Cu1   N2    S    
C34   H4    S    
Cu2   O3    S    
N3    H11   S    
Cu2   O7    S    
C4    C6    A    
C27   N1    T    
N9    H27   S    
N6    C46   S    
C4    C23   S    
C4    C44   A    
C11   C26   S    
C3    C5    A    
Cu1   Cu2   S    
Cu1   O5    S    
C8    C18   A    
C7    N15   S    
Cu2   O6    S    
N3    H12   S    
C32   C34   A    
C45   H16   S    
C18   N14   S    
C29   C30   T    
N9    H28   S    
C45   H17   S    
C2    C21   S    
N12   H34   S    
C41   H1    S    
N13   H36   S    
C42   H2    S    
N10   H30   S    
C9    C11   A    
C10   C12   A    
C16   C18   A    
C15   N5    S    
C5    C44   A    
N8    H26   S    
C31   N9    S    
C6    C43   A    
C13   C15   A    
Cu2   N1    S    
C14   C16   A    
C20   C22   A    
N13   H35   S    
C46   H22   S    
C13   N3    S    
C7    C9    A    
C21   C25   A    
Cu1   O1    S    
C31   C41   A    
Cu2   O2    S    
C43   N11   S    
C12   C14   A    
C19   N7    S    
C1    O3    A    
C28   N2    T    
C40   H8    S    
C12   C25   S    
C16   N6    S    
C23   O7    A    
C8    N16   S    
C17   N13   S    
C28   C30   S    
C37   C39   A    
N15   H39   S    
C38   C40   A    
C44   N12   S    
C39   H7    S    
N14   H38   S    
C20   N8    S    
C36   C38   A    
N12   H33   S    
C33   C35   A    
C34   C36   A    
N10   H29   S    
C45   H18   S    
N6    H19   S    
N8    H25   S    
C8    C10   A    
C22   C26   A    
Cu1   O8    S    
C32   C42   A    
N4    H14   S    
C2    O4    A    
C19   C21   A    
