data_mof_unit_35530.cif
_audit_creation_date              2012-12-10T18:33:40-0500
_audit_creation_method            fapswitch 2.2
_symmetry_space_group_name_H-M    P1
_symmetry_Int_Tables_number       1
_space_group_crystal_system       triclinic
_cell_length_a                    10.504166
_cell_length_b                    14.917423
_cell_length_c                    15.434432
_cell_angle_alpha                 81.594684
_cell_angle_beta                  89.965766
_cell_angle_gamma                 103.648797
_cell_volume                      2323.4087106

loop_
_atom_site_label
_atom_site_type_symbol
_atom_type_description
_atom_site_fract_x
_atom_site_fract_y
_atom_site_fract_z
_atom_type_partial_charge
C1    C     C_R   0.484125 0.441387 0.662304 0.860719
C2    C     C_R   0.522024 0.558522 0.337673 0.855490
C3    C     C_R   0.542711 0.467689 0.811550 -0.255435
C4    C     C_R   0.526819 0.529063 0.186882 -0.230190
C5    C     C_R   0.548071 0.438442 0.901302 0.063419
C6    C     C_R   0.585592 0.547355 0.103171 0.083205
C7    C     C_R   0.492846 0.343293 0.935201 0.171283
C8    C     C_R   0.661826 0.638574 0.072479 0.114108
C9    C     C_R   0.596758 0.503621 0.958522 0.019332
C10   C     C_R   0.565460 0.477308 0.048685 0.043906
C11   C     C_R   0.516679 0.381664 0.081922 -0.268539
C12   C     C_R   0.674220 0.594304 0.928513 -0.206369
C13   C     C_R   0.483432 0.314776 0.026107 0.065832
C14   C     C_R   0.709138 0.660568 0.984682 0.071440
C15   C     C_R   0.736728 0.851923 0.600827 -0.292719
C16   C     C_R   0.296258 0.160651 0.363953 -0.304226
C17   C     C_R   0.684301 0.758138 0.597433 0.012896
C18   C     C_R   0.327753 0.247738 0.390958 0.018996
C19   C     C_R   0.509219 0.793824 0.512875 0.001145
C20   C     C_R   0.496703 0.206326 0.478185 0.004052
C21   C     C_R   0.563758 0.890672 0.506804 0.017565
C22   C     C_R   0.476971 0.119727 0.447116 0.030330
C23   C     C_R   0.742550 0.500548 0.499926 0.860038
C24   C     C_R   0.257685 0.499809 0.499611 0.867528
C25   C     C_R   0.678081 0.918607 0.554547 0.147965
C26   C     C_R   0.369806 0.095803 0.392855 0.145197
C27   C     C_R   0.507693 0.960245 0.458065 -0.009235
C28   C     C_R   0.555533 0.054945 0.471699 -0.005780
C29   C     C_R   0.681173 0.081220 0.507784 -0.041515
C30   C     C_R   0.407564 0.940997 0.395850 -0.036552
C31   C     C_R   0.737429 0.012704 0.552065 -0.256556
C32   C     C_R   0.339072 0.008582 0.365854 -0.254427
C33   C     C_3   0.934633 0.430614 0.559550 -0.124208
C34   C     C_3   0.066453 0.571001 0.439501 -0.154229
C35   C     C_3   0.046571 0.511818 0.579470 -0.200371
C36   C     C_3   0.954423 0.489834 0.419531 -0.210922
C37   C     C_3   0.122438 0.499792 0.499224 0.002445
C38   C     C_3   0.878363 0.501664 0.499823 0.007751
C39   C     C_3   0.013267 0.418682 0.479239 -0.111397
C40   C     C_3   0.987795 0.583023 0.519774 -0.125897
C41   C     C_R   0.488508 0.405118 0.755167 -0.057344
C42   C     C_R   0.558419 0.592854 0.245334 -0.076638
C43   C     C_R   0.444703 0.279421 0.877334 -0.177204
C44   C     C_R   0.688815 0.704808 0.130686 -0.195432
C45   C     C_R   0.442823 0.310235 0.787758 -0.212804
C46   C     C_R   0.640412 0.681030 0.217316 -0.189954
H1    H     H_    0.088871 0.520643 0.644469 0.143781
H2    H     H_    0.912155 0.481026 0.354517 0.147611
H3    H     H_    0.567083 0.225582 0.527127 0.123631
H4    H     H_    0.417171 0.765708 0.485193 0.135938
H5    H     H_    0.273754 0.299271 0.367288 0.134215
H6    H     H_    0.734152 0.706394 0.627380 0.129347
H7    H     H_    0.825492 0.872358 0.636167 0.148868
H8    H     H_    0.215982 0.144461 0.320336 0.150825
H9    H     H_    0.876211 0.373916 0.608602 0.170015
H10   H     H_    0.124971 0.627913 0.390680 0.177920
H11   H     H_    0.030456 0.352609 0.462346 0.176897
H12   H     H_    0.973584 0.650074 0.536317 0.150305
H13   H     H_    0.455945 0.464165 0.208224 0.153038
H14   H     H_    0.574314 0.540611 0.784884 0.159992
H15   H     H_    0.669516 0.730599 0.262539 0.191293
H16   H     H_    0.402617 0.260420 0.744525 0.164490
H17   H     H_    0.404637 0.206144 0.901198 0.168431
H18   H     H_    0.749696 0.774209 0.110654 0.145176
H19   H     H_    0.507024 0.356615 0.151500 0.158948
H20   H     H_    0.713362 0.614492 0.861926 0.154624
H21   H     H_    0.831535 0.032774 0.581759 0.178547
H22   H     H_    0.262498 0.993771 0.319169 0.176009
N1    N     N_R   0.574200 0.731700 0.552740 -0.106208
N2    N     N_R   0.425800 0.268300 0.447260 -0.104530
O1    O     O_R   0.462600 0.383110 0.605620 -0.615303
O2    O     O_R   0.537400 0.616890 0.394380 -0.597547
O3    O     O_R   0.510210 0.531900 0.639510 -0.621570
O4    O     O_R   0.489790 0.468100 0.360490 -0.616853
O5    O     O_R   0.662240 0.425610 0.483080 -0.606971
O6    O     O_R   0.337760 0.574390 0.516920 -0.617903
O7    O     O_R   0.709860 0.574400 0.516970 -0.630002
O8    O     O_R   0.290140 0.425600 0.483030 -0.629671
Zn1   Zn    Zn3+2 0.468210 0.400660 0.477370 0.952119
Zn2   Zn    Zn3+2 0.531790 0.599340 0.522630 0.953597
C47   C     C_2   0.766795 0.176620 0.486542 0.874323
O9    O     O_2   0.846531 0.207528 0.538903 -0.669699
O10   O     O_R   0.758772 0.229869 0.405107 -0.798802
H23   H     H_    0.820805 0.293867 0.397871 0.337188
C48   C     C_2   0.385304 0.859374 0.348487 0.869584
O11   O     O_2   0.274031 0.821351 0.330608 -0.654543
O12   O     O_R   0.491861 0.827902 0.321501 -0.801964
H24   H     H_    0.463274 0.772750 0.288817 0.342431
N3    N     N_3   0.434276 0.218518 0.062331 -0.472451
H25   H     H_    0.505470 0.197763 0.102508 0.204791
H26   H     H_    0.351112 0.213074 0.101880 0.190395
N4    N     N_3   0.789837 0.750343 0.949759 -0.465402
H27   H     H_    0.874704 0.762697 0.985900 0.189197
H28   H     H_    0.738369 0.801108 0.956528 0.189191

loop_
_geom_bond_atom_site_label_1
_geom_bond_atom_site_label_2
_ccdc_geom_bond_type
C18   N2    A    
C38   C40   S    
O12   H24   S    
C34   H10   S    
C34   C37   S    
C35   H1    S    
O1    Zn1   S    
C47   O9    D    
C43   H17   S    
C48   O11   D    
C44   H18   S    
C31   H21   S    
C1    O1    A    
C34   C40   S    
C15   H7    S    
C28   C29   A    
C35   C37   S    
C15   C25   A    
C39   H11   S    
C45   H16   S    
C42   C46   A    
C7    C43   A    
N3    H26   S    
C9    C10   A    
C2    O4    A    
C32   H22   S    
C3    H14   S    
C21   C27   A    
C22   C28   A    
C27   C30   A    
C20   N2    A    
C2    O2    A    
C17   H6    S    
C47   O10   S    
C44   C46   A    
C18   H5    S    
C48   O12   S    
C16   C26   A    
C40   H12   S    
C46   H15   S    
O6    Zn2   S    
C4    C6    A    
C23   O5    A    
C5    C7    A    
O8    Zn1   S    
C24   O6    A    
C6    C8    A    
C12   H20   S    
C5    C9    A    
C20   H3    S    
O10   H23   S    
C29   C31   A    
N4    H28   S    
C24   C37   S    
C33   H9    S    
C16   C18   A    
C33   C39   S    
C23   O7    A    
C30   C48   S    
C43   C45   A    
C14   N4    S    
C24   O8    A    
C12   C14   A    
C29   C47   S    
O4    Zn1   S    
C19   N1    A    
O7    Zn2   S    
C1    C41   S    
C15   C17   A    
C21   C25   A    
C17   N1    A    
C3    C41   A    
C8    C14   A    
C13   N3    S    
N2    Zn1   S    
C25   C31   A    
C36   C39   S    
C8    C44   A    
C20   C22   A    
C3    C5    A    
C6    C10   A    
C26   C32   A    
C23   C38   S    
C33   C38   S    
C1    O3    A    
C36   C38   S    
C35   C40   S    
C37   C39   S    
C30   C32   A    
C11   C13   A    
C19   H4    S    
C4    C42   A    
C2    C42   S    
C4    H13   S    
N4    H27   S    
C33   C35   S    
O3    Zn2   S    
C36   H2    S    
C34   C36   S    
C9    C12   A    
C16   H8    S    
C10   C11   A    
C7    C13   A    
O2    Zn2   S    
C22   C26   A    
C27   C28   A    
C41   C45   A    
N1    Zn2   S    
N3    H25   S    
O5    Zn1   S    
C11   H19   S    
C19   C21   A    
