data_mof_unit_56757.cif
_audit_creation_date              2012-12-10T18:53:47-0500
_audit_creation_method            fapswitch 2.2
_symmetry_space_group_name_H-M    P1
_symmetry_Int_Tables_number       1
_space_group_crystal_system       triclinic
_cell_length_a                    10.744343
_cell_length_b                    9.882665
_cell_length_c                    19.154295
_cell_angle_alpha                 90.24572
_cell_angle_beta                  92.373668
_cell_angle_gamma                 89.837843
_cell_volume                      2032.08461562

loop_
_atom_site_label
_atom_site_type_symbol
_atom_type_description
_atom_site_fract_x
_atom_site_fract_y
_atom_site_fract_z
_atom_type_partial_charge
C1    C     C_R   0.260043 0.500160 0.501224 0.865521
C2    C     C_R   0.063406 0.623184 0.502424 -0.190405
C3    C     C_R   0.872517 0.499918 0.498583 0.011590
C4    C     C_R   0.127589 0.500276 0.502792 0.014198
C5    C     C_R   0.563773 0.072329 0.551726 0.399259
C6    C     C_R   0.434128 0.927386 0.449198 0.432075
C7    C     C_R   0.434742 0.072100 0.448835 0.402852
C8    C     C_R   0.564563 0.927710 0.551271 0.425315
C9    C     C_R   0.566925 0.616850 0.251399 0.355133
C10   C     C_R   0.443522 0.377195 0.745130 0.425412
C11   C     C_R   0.484468 0.618561 0.751786 0.361820
C12   C     C_R   0.740006 0.499914 0.499224 0.853751
C13   C     C_R   0.587324 0.371856 0.259024 0.414827
C14   C     C_R   0.563945 0.605135 0.178882 -0.230557
C15   C     C_R   0.479011 0.364802 0.815719 -0.221530
C16   C     C_R   0.522567 0.603755 0.821547 -0.233456
C17   C     C_R   0.580600 0.363371 0.186288 -0.209092
C18   C     C_R   0.566830 0.479340 0.146165 -0.054081
C19   C     C_R   0.523972 0.476874 0.853503 -0.051421
C20   C     C_R   0.559647 0.497242 0.292708 -0.324061
C21   C     C_R   0.465650 0.500662 0.710236 -0.306234
C22   C     C_3   0.740915 0.163861 0.604665 -0.170087
C23   C     C_R   0.550128 0.468851 0.929030 0.358728
C24   C     C_3   0.251718 0.841160 0.399877 -0.150340
C25   C     C_3   0.254890 0.161602 0.397517 -0.157947
C26   C     C_3   0.745933 0.842063 0.602079 -0.147636
C27   C     C_R   0.567336 0.471648 0.070078 0.353955
C28   C     C_R   0.520008 0.499703 0.366731 0.927754
C29   C     C_R   0.486307 0.500602 0.634131 0.925606
C30   C     C_R   0.064155 0.377262 0.502887 -0.182186
C31   C     C_R   0.935917 0.622996 0.498405 -0.190578
C32   C     C_R   0.936757 0.377054 0.500022 -0.161233
H1    H     H_    0.112161 0.281334 0.505335 0.139295
H2    H     H_    0.211361 0.230388 0.621801 0.366641
H3    H     H_    0.553709 0.917668 0.786791 0.354995
H4    H     H_    0.749961 0.186939 0.401149 0.363235
H5    H     H_    0.759086 0.273894 0.608663 0.174497
H6    H     H_    0.781832 0.123386 0.556304 0.071075
H7    H     H_    0.790674 0.118645 0.650695 0.171414
H8    H     H_    0.202001 0.889490 0.354752 0.171326
H9    H     H_    0.214930 0.882234 0.449227 0.071619
H10   H     H_    0.228631 0.732295 0.395374 0.174439
H11   H     H_    0.234538 0.271224 0.393528 0.177142
H12   H     H_    0.887772 0.718877 0.495177 0.157951
H13   H     H_    0.215810 0.121434 0.446211 0.074084
H14   H     H_    0.205121 0.115143 0.351726 0.172678
H15   H     H_    0.794093 0.891100 0.647656 0.172103
H16   H     H_    0.783988 0.882696 0.553173 0.072137
H17   H     H_    0.769499 0.733193 0.606419 0.170543
H18   H     H_    0.889458 0.280963 0.498696 0.144150
H19   H     H_    0.110915 0.719162 0.505073 0.154087
H20   H     H_    0.562531 0.696188 0.147506 0.189062
H21   H     H_    0.464918 0.269406 0.841870 0.204032
H22   H     H_    0.540765 0.694091 0.852507 0.183822
H23   H     H_    0.595907 0.266946 0.160789 0.204545
H24   H     H_    0.459575 0.890273 0.218961 0.350961
N1    N     N_R   0.500000 0.857200 0.500000 -0.208471
N2    N     N_R   0.500000 0.142800 0.500000 -0.214463
N3    N     N_R   0.526940 0.359204 0.035254 -0.153325
N4    N     N_R   0.594698 0.578992 0.964094 -0.161493
N5    N     N_R   0.518088 0.358003 0.965784 -0.153246
N6    N     N_R   0.603078 0.580437 0.033269 -0.152840
O1    O     O_R   0.316770 0.614620 0.500000 -0.628928
O2    O     O_2   0.697480 0.843701 0.237844 -0.259314
O3    O     O_3   0.468791 0.875652 0.270039 -0.443757
O4    O     O_2   0.416643 0.129051 0.689501 -0.186445
O5    O     O_2   0.253206 0.210208 0.763639 -0.265842
O6    O     O_3   0.260686 0.309059 0.639107 -0.567690
O7    O     O_2   0.364746 0.790348 0.658218 -0.225826
O8    O     O_2   0.333220 0.821968 0.781923 -0.266391
O9    O     O_3   0.546199 0.892800 0.736653 -0.455379
O10   O     O_2   0.569561 0.121752 0.309366 -0.184979
O11   O     O_2   0.762778 0.180446 0.255392 -0.262481
O12   O     O_R   0.683230 0.385380 0.500000 -0.614109
O13   O     O_3   0.728654 0.274463 0.378562 -0.559809
O14   O     O_3   0.612032 0.141422 0.609569 -0.500138
O15   O     O_3   0.381100 0.856742 0.393331 -0.477087
O16   O     O_3   0.384012 0.141275 0.391835 -0.501281
O17   O     O_3   0.616173 0.857614 0.607511 -0.478930
O18   O     O_R   0.683230 0.614620 0.500000 -0.627654
O19   O     O_R   0.316770 0.385380 0.500000 -0.614664
O20   O     O_R   0.499990 0.614700 0.398140 -0.527034
O21   O     O_R   0.500010 0.385300 0.601860 -0.533860
O22   O     O_R   0.500010 0.614700 0.601860 -0.535902
O23   O     O_R   0.499990 0.385300 0.398140 -0.530987
O24   O     O_2   0.646946 0.790195 0.356730 -0.244539
S1    S     S_3+6 0.599410 0.783315 0.281978 0.099443
S2    S     S_3+6 0.342714 0.251066 0.709291 0.074847
S3    S     S_3+6 0.427495 0.782330 0.729608 0.108277
S4    S     S_3+6 0.662297 0.232509 0.300902 0.074213
Zn1   Zn    Zn3+2 0.500000 0.653120 0.500000 1.082555
Zn2   Zn    Zn3+2 0.500000 0.346880 0.500000 1.064745

loop_
_geom_bond_atom_site_label_1
_geom_bond_atom_site_label_2
_ccdc_geom_bond_type
C12   O12   A    
C13   S4    S    
C24   H10   S    
C14   C18   A    
C19   C23   S    
C22   O14   S    
C25   H11   S    
C15   C19   A    
O21   Zn2   S    
C10   S2    S    
O5    S2    D    
C5    N2    A    
C15   H21   S    
C27   N6    A    
O11   S4    D    
C29   O21   A    
C10   C15   A    
O4    S2    D    
C1    O19   A    
H24   O3    S    
C22   H6    S    
N4    N6    A    
O12   Zn2   S    
C3    C12   S    
O13   S4    S    
O19   Zn2   S    
C14   H20   S    
C8    O17   S    
O22   Zn1   S    
C17   H23   S    
C7    N2    A    
C13   C20   A    
C26   H16   S    
H3    O9    S    
C24   H9    S    
C6    N1    A    
O7    S3    D    
C1    O1    A    
O23   Zn2   S    
O3    S1    S    
C10   C21   A    
C23   N4    A    
N3    N5    A    
C31   H12   S    
C28   O20   A    
C25   O16   S    
C29   O22   A    
C26   H17   S    
H2    O6    S    
O24   S1    D    
C6    O15   S    
C20   C28   S    
C22   H5    S    
C21   C29   S    
C11   C21   A    
O20   Zn1   S    
C2    C31   A    
C2    C4    A    
C9    C14   A    
H4    O13   S    
C8    N1    A    
O10   S4    D    
C11   C16   A    
C11   S3    S    
C9    C20   A    
O9    S3    S    
C17   C18   A    
C3    C31   A    
C32   H18   S    
C26   H15   S    
C7    O16   S    
O6    S2    S    
O8    S3    D    
C25   H13   S    
N1    Zn1   S    
C30   H1    S    
C18   C27   S    
C5    C8    A    
C6    C7    A    
C26   O17   S    
C13   C17   A    
C1    C4    S    
C5    O14   S    
C27   N3    A    
C9    S1    S    
C30   C32   A    
O18   Zn1   S    
C16   C19   A    
C22   H7    S    
C12   O18   A    
C24   H8    S    
C3    C32   A    
C16   H22   S    
C2    H19   S    
C24   O15   S    
C23   N5    A    
O1    Zn1   S    
C28   O23   A    
N2    Zn2   S    
C25   H14   S    
O2    S1    D    
C4    C30   A    
