data_mof_unit_53534.cif
_audit_creation_date              2012-12-10T17:14:07-0500
_audit_creation_method            fapswitch 2.2
_symmetry_space_group_name_H-M    P1
_symmetry_Int_Tables_number       1
_space_group_crystal_system       triclinic
_cell_length_a                    15.883357
_cell_length_b                    13.065855
_cell_length_c                    11.88786
_cell_angle_alpha                 99.607188
_cell_angle_beta                  92.922209
_cell_angle_gamma                 93.568414
_cell_volume                      2423.0412936

loop_
_atom_site_label
_atom_site_type_symbol
_atom_type_description
_atom_site_fract_x
_atom_site_fract_y
_atom_site_fract_z
_atom_type_partial_charge
C1    C     C_R   0.498582 0.299435 0.478901 0.819723
C2    C     C_3   0.954951 0.503905 0.634030 -0.162731
C3    C     C_3   0.916650 0.500445 0.504023 -0.021409
C4    C     C_3   0.951766 0.597632 0.450964 -0.098038
C5    C     C_3   0.052718 0.602540 0.448167 -0.110955
C6    C     C_1   0.823896 0.500427 0.500265 0.054474
C7    C     C_1   0.176678 0.503673 0.503364 0.093877
C8    C     C_1   0.251834 0.501283 0.502461 -0.065529
C9    C     C_R   0.485959 0.811405 0.533934 -0.124176
C10   C     C_R   0.499023 0.185346 0.467537 -0.080127
C11   C     C_R   0.535266 0.019157 0.362953 -0.060225
C12   C     C_R   0.340829 0.499569 0.500734 0.820715
C13   C     C_R   0.536051 0.128050 0.374230 0.053268
C14   C     C_R   0.461782 0.133638 0.550166 0.069679
C15   C     C_R   0.471868 0.026961 0.549145 0.092855
C16   C     C_R   0.506635 0.969449 0.452624 0.012136
C17   C     C_R   0.514167 0.863062 0.448160 -0.177225
C18   C     C_R   0.449422 0.866441 0.629449 -0.114140
C19   C     C_R   0.446221 0.975194 0.640181 -0.060866
C20   C     C_R   0.412280 0.409807 0.026419 0.082671
C21   C     C_R   0.419525 0.420015 0.145618 0.344787
C22   C     C_R   0.545144 0.530590 0.154322 0.105799
C23   C     C_R   0.496648 0.699587 0.521397 0.855108
C24   C     C_R   0.537791 0.528037 0.032003 -0.135588
C25   C     C_R   0.468586 0.468528 0.967959 -0.009652
C26   C     C_R   0.456620 0.470078 0.848052 0.302617
C27   C     C_R   0.581803 0.579433 0.851272 0.117639
C28   C     C_R   0.595261 0.584054 0.970873 -0.141300
C29   C     C_R   0.659220 0.500426 0.499327 0.841963
C30   C     C_3   0.057776 0.516924 0.635107 0.129363
C31   C     C_3   0.042735 0.397948 0.439902 -0.127099
C32   C     C_3   0.943225 0.397730 0.421418 0.006705
C33   C     C_1   0.748463 0.500528 0.498509 -0.025541
C34   C     C_3   0.084233 0.506696 0.504941 0.055794
Cu1   Cu    Cu3+1 0.506190 0.507730 0.615930 0.986698
Cu2   Cu    Cu3+1 0.493810 0.492270 0.384070 1.001856
H1    H     H_    0.923122 0.584236 0.362667 0.185954
H2    H     H_    0.543913 0.819180 0.377903 0.221902
H3    H     H_    0.056151 0.343516 0.499674 0.258736
N1    N     N_R   0.515490 0.519350 0.790130 -0.236001
N2    N     N_R   0.484510 0.480650 0.209890 -0.255694
O1    O     O_R   0.504390 0.354460 0.582000 -0.599899
O2    O     O_R   0.493940 0.341410 0.386200 -0.572708
O3    O     O_R   0.384660 0.506540 0.597940 -0.608627
O4    O     O_R   0.374210 0.493480 0.402140 -0.587340
O5    O     O_R   0.506060 0.658590 0.613800 -0.564116
O6    O     O_R   0.495610 0.645540 0.418000 -0.550559
O7    O     O_R   0.625790 0.506520 0.597860 -0.554133
O8    O     O_R   0.615340 0.493460 0.402060 -0.569815
C35   C     C_2   0.918674 0.403169 0.674427 0.844883
O9    O     O_2   0.843085 0.393560 0.689950 -0.511341
O10   O     O_R   0.967261 0.319926 0.688395 -0.722156
H4    H     H_    0.933487 0.260136 0.713436 0.361324
N3    N     N_3   0.091271 0.618818 0.700917 -0.511597
H5    H     H_    0.156984 0.627059 0.697677 0.221338
H6    H     H_    0.080908 0.622266 0.787651 0.230587
C36   C     C_2   0.922887 0.593703 0.720591 0.899065
O11   O     O_2   0.932321 0.684018 0.706785 -0.490244
O12   O     O_R   0.889083 0.573909 0.822219 -0.687241
H7    H     H_    0.874002 0.639448 0.873480 0.380599
C37   C     C_2   0.411827 0.810302 0.716152 0.940352
O13   O     O_2   0.436865 0.832938 0.816800 -0.534920
O14   O     O_R   0.347823 0.731239 0.681731 -0.757686
H8    H     H_    0.327461 0.698304 0.747790 0.324900
C38   C     C_2   0.559841 0.957700 0.254379 0.863841
O15   O     O_2   0.630106 0.972852 0.220297 -0.558978
O16   O     O_R   0.501304 0.883084 0.190815 -0.720464
H9    H     H_    0.523330 0.848586 0.116421 0.388879
C39   C     C_2   0.421382 0.033015 0.750400 0.930655
O17   O     O_2   0.348406 0.023780 0.777526 -0.554518
O18   O     O_R   0.482290 0.096571 0.823470 -0.733057
H10   H     H_    0.458511 0.130456 0.896964 0.337337
N4    N     N_3   0.572875 0.181250 0.290103 -0.523741
H11   H     H_    0.542851 0.151907 0.209856 0.242550
H12   H     H_    0.637102 0.168305 0.288483 0.280834
N5    N     N_3   0.407294 0.186769 0.629112 -0.580520
H13   H     H_    0.444614 0.235717 0.693402 0.259150
H14   H     H_    0.365447 0.227922 0.586140 0.212046
N6    N     N_3   0.376815 0.431422 0.791826 -0.632290
H15   H     H_    0.341592 0.494296 0.780806 0.235482
H16   H     H_    0.384876 0.383251 0.715241 0.252998
N7    N     N_3   0.097169 0.437089 0.690969 -0.544722
H17   H     H_    0.081743 0.446966 0.776500 0.252434
H18   H     H_    0.163074 0.447766 0.694986 0.207335
C40   C     C_2   0.636855 0.649241 0.795711 0.907950
O19   O     O_2   0.707920 0.625571 0.772222 -0.560708
O20   O     O_R   0.611789 0.747886 0.784850 -0.720730
H19   H     H_    0.655799 0.790150 0.749627 0.335716
N8    N     N_3   0.347278 0.335344 0.968328 -0.540531
H20   H     H_    0.372287 0.285104 0.902582 0.254623
H21   H     H_    0.297087 0.373696 0.938622 0.255998
C41   C     C_2   0.669743 0.650854 0.026952 0.850952
O21   O     O_2   0.739893 0.617268 0.023544 -0.518253
O22   O     O_R   0.660061 0.753460 0.077537 -0.722745
H22   H     H_    0.715550 0.791556 0.111203 0.367985
N9    N     N_3   0.354542 0.365419 0.196322 -0.541789
H23   H     H_    0.309299 0.416207 0.226103 0.255236
H24   H     H_    0.378626 0.326043 0.258281 0.257926
C42   C     C_2   0.620809 0.581855 0.221622 0.914700
O23   O     O_2   0.618767 0.668781 0.277673 -0.601730
O24   O     O_R   0.696083 0.531468 0.217635 -0.713574
H25   H     H_    0.744510 0.574796 0.265396 0.331413
N10   N     N_3   0.085482 0.354612 0.337309 -0.564574
H26   H     H_    0.059849 0.278722 0.307198 0.260081
H27   H     H_    0.078203 0.396760 0.271159 0.252081
C43   C     C_2   0.900080 0.295291 0.445921 0.883859
O25   O     O_2   0.822925 0.283980 0.443636 -0.556037
O26   O     O_R   0.947265 0.210892 0.460541 -0.749912
H28   H     H_    0.910713 0.147844 0.473056 0.356465
N11   N     N_3   0.915678 0.399395 0.300535 -0.551230
H29   H     H_    0.954509 0.448146 0.261647 0.234684
H30   H     H_    0.918284 0.325784 0.250492 0.238657
C44   C     C_2   0.099765 0.706186 0.508284 0.902711
O27   O     O_2   0.065026 0.771853 0.571694 -0.493876
O28   O     O_R   0.185784 0.724987 0.492163 -0.728364
H31   H     H_    0.210624 0.794359 0.536313 0.359682
C45   C     C_2   0.077901 0.597378 0.323857 0.778261
O29   O     O_2   0.031798 0.628669 0.253144 -0.590513
O30   O     O_R   0.158087 0.568295 0.293191 -0.723279
H32   H     H_    0.167949 0.571334 0.210181 0.343961
N12   N     N_3   0.917935 0.697031 0.497758 -0.439752
H33   H     H_    0.851914 0.690263 0.490884 0.217994
H34   H     H_    0.934174 0.751113 0.445244 0.252724

loop_
_geom_bond_atom_site_label_1
_geom_bond_atom_site_label_2
_ccdc_geom_bond_type
O20   H19   S    
O24   H25   S    
N4    H11   S    
Cu1   Cu2   S    
C3    C6    S    
C2    C36   S    
C7    C8    T    
C29   O8    A    
C40   O19   D    
C15   C19   A    
C30   N3    S    
C32   N11   S    
N5    H14   S    
C39   O17   D    
C45   O30   S    
C36   O12   S    
C22   N2    A    
C43   O25   D    
O28   H31   S    
C29   C33   S    
O26   H28   S    
Cu2   O6    S    
C39   O18   S    
C18   C19   A    
C27   C40   S    
Cu1   O1    S    
N11   H29   S    
C2    C35   S    
C1    O2    A    
C31   C32   S    
C16   C17   A    
C38   O16   S    
N9    H24   S    
C3    C32   S    
C35   O10   S    
N8    H21   S    
O12   H7    S    
C23   O5    A    
C32   C43   S    
N9    H23   S    
N4    H12   S    
Cu2   N2    S    
O22   H22   S    
Cu1   O7    S    
C4    H1    S    
C40   O20   S    
N3    H6    S    
C23   O6    A    
C15   C16   A    
C30   C34   S    
C29   O7    A    
O16   H9    S    
C24   C25   A    
C28   C41   S    
C10   C14   A    
N6    H16   S    
C9    C23   S    
C25   C26   A    
O14   H8    S    
C5    C45   S    
C31   N10   S    
C30   N7    S    
C11   C16   A    
C1    O1    A    
C42   O23   D    
C27   N1    A    
C8    C12   S    
C5    C34   S    
C41   O22   S    
C35   O9    D    
C31   C34   S    
Cu2   O4    S    
N10   H27   S    
N5    H13   S    
Cu1   O3    S    
N12   H33   S    
C21   N2    A    
C9    C17   A    
C42   O24   S    
C13   N4    S    
N7    H17   S    
N7    H18   S    
C7    C34   S    
C22   C24   A    
C19   C39   S    
C3    C4    S    
C27   C28   A    
O10   H4    S    
C44   O27   D    
N3    H5    S    
C22   C42   S    
C5    C44   S    
C37   O14   S    
C1    C10   S    
C24   C28   A    
C12   O4    A    
C10   C13   A    
O30   H32   S    
C18   C37   S    
C21   N9    S    
C20   N8    S    
C26   N6    S    
C6    C33   T    
C2    C30   S    
C2    C3    S    
O18   H10   S    
C12   O3    A    
C45   O29   D    
C11   C13   A    
C26   N1    A    
C36   O11   D    
C43   O26   S    
C41   O21   D    
C31   H3    S    
C4    N12   S    
Cu1   N1    S    
C17   H2    S    
C37   O13   D    
N11   H30   S    
N12   H34   S    
N6    H15   S    
C9    C18   A    
C4    C5    S    
C20   C21   A    
C38   O15   D    
C20   C25   A    
N10   H26   S    
C14   C15   A    
Cu2   O2    S    
N8    H20   S    
Cu1   O5    S    
Cu2   O8    S    
C11   C38   S    
C14   N5    S    
C44   O28   S    
