data_mof_unit_37318.cif
_audit_creation_date              2012-12-10T17:27:56-0500
_audit_creation_method            fapswitch 2.2
_symmetry_space_group_name_H-M    P1
_symmetry_Int_Tables_number       1
_space_group_crystal_system       triclinic
_cell_length_a                    11.010103
_cell_length_b                    12.051394
_cell_length_c                    12.770761
_cell_angle_alpha                 93.510128
_cell_angle_beta                  90.410785
_cell_angle_gamma                 86.953696
_cell_volume                      1688.93313998

loop_
_atom_site_label
_atom_site_type_symbol
_atom_type_description
_atom_site_fract_x
_atom_site_fract_y
_atom_site_fract_z
_atom_type_partial_charge
C1    C     C_R   0.480018 0.521570 0.699198 0.953569
C2    C     C_R   0.407153 0.635810 0.862501 0.143513
C3    C     C_R   0.420546 0.434275 0.859312 0.135219
C4    C     C_R   0.740044 0.498975 0.493027 0.913022
C5    C     C_R   0.428451 0.437697 0.968449 0.031836
C6    C     C_R   0.402610 0.540933 0.024108 0.054548
C7    C     C_R   0.401273 0.545185 0.133622 0.124987
C8    C     C_R   0.520111 0.368687 0.124692 0.155037
C9    C     C_R   0.477177 0.346334 0.022515 0.145829
C10   C     C_R   0.393529 0.950209 0.398010 -0.248115
C11   C     C_R   0.398443 0.836592 0.411004 0.016176
C12   C     C_R   0.941169 0.392133 0.502528 -0.024133
C13   C     C_R   0.541403 0.858067 0.548212 0.016220
C14   C     C_R   0.533246 0.975541 0.543512 0.008894
C15   C     C_R   0.466148 0.021090 0.461186 0.018875
C16   C     C_R   0.497617 0.477895 0.298029 0.924898
C17   C     C_R   0.471130 0.135717 0.444886 0.168854
C18   C     C_R   0.585538 0.163715 0.603481 0.283858
C19   C     C_R   0.589877 0.047178 0.617930 0.047348
C20   C     C_R   0.260003 0.498053 0.503358 0.889629
C21   C     C_R   0.892659 0.284071 0.493625 0.217844
C22   C     C_R   0.938362 0.202701 0.560446 0.218548
C23   C     C_R   0.873454 0.493419 0.482331 -0.133388
C24   C     C_R   0.041235 0.226875 0.618980 -0.148626
C25   C     C_R   0.119007 0.296234 0.571400 0.175495
C26   C     C_R   0.065801 0.394286 0.526582 0.044227
C27   C     C_3   0.872935 0.695764 0.427154 -0.831709
C28   C     C_3   0.496430 0.230194 0.970959 -0.730876
C29   C     C_3   0.649770 0.997538 0.713318 -0.851363
C30   C     C_3   0.826570 0.248092 0.395640 -0.761545
C31   C     C_3   0.897165 0.085237 0.556732 -0.900901
C32   C     C_3   0.213334 0.224249 0.512139 -0.772219
C33   C     C_3   0.324835 0.636198 0.192284 -0.861193
C34   C     C_R   0.935864 0.589009 0.460944 0.175641
C35   C     C_R   0.061634 0.584583 0.467433 -0.199836
C36   C     C_R   0.127787 0.490933 0.501281 -0.129445
C37   C     C_R   0.473541 0.463679 0.184510 -0.159539
C38   C     C_R   0.437202 0.532490 0.808137 -0.184566
C39   C     C_R   0.383429 0.638031 0.969375 -0.195614
H1    H     H_    0.329457 0.980511 0.340787 0.178071
H2    H     H_    0.540924 0.169653 0.022502 0.261197
H3    H     H_    0.407176 0.195344 0.952845 0.259093
H4    H     H_    0.552009 0.231408 0.899340 0.264372
H5    H     H_    0.680346 0.058107 0.774674 0.270183
H6    H     H_    0.583556 0.948327 0.752919 0.268073
H7    H     H_    0.729408 0.942014 0.688674 0.230272
H8    H     H_    0.879370 0.178790 0.352643 0.239470
H9    H     H_    0.734774 0.220703 0.413121 0.265711
H10   H     H_    0.819512 0.318770 0.344524 0.248323
H11   H     H_    0.811186 0.075601 0.512480 0.252774
H12   H     H_    0.338980 0.783687 0.366154 0.128671
H13   H     H_    0.968390 0.027970 0.518799 0.237426
H14   H     H_    0.883617 0.060219 0.637749 0.263180
H15   H     H_    0.220548 0.254142 0.432674 0.267043
H16   H     H_    0.298168 0.224013 0.558126 0.278513
H17   H     H_    0.190294 0.135453 0.499054 0.211532
H18   H     H_    0.241448 0.658053 0.146865 0.236889
H19   H     H_    0.291508 0.608554 0.267719 0.245262
H20   H     H_    0.378680 0.711125 0.204083 0.242377
H21   H     H_    0.597992 0.817566 0.605505 0.149747
H22   H     H_    0.080800 0.162297 0.666362 0.186780
H23   H     H_    0.108604 0.657056 0.447129 0.170329
H24   H     H_    0.361750 0.717832 0.010334 0.183129
H25   H     H_    0.938452 0.754813 0.400095 0.220544
H26   H     H_    0.810313 0.677482 0.360491 0.251257
H27   H     H_    0.822483 0.739083 0.494046 0.251640
I1    I     I_    0.381791 0.791291 0.793050 -0.371009
I2    I     I_    0.319029 0.307970 0.780449 -0.385752
I3    I     I_    0.403337 0.184200 0.295278 -0.373601
I4    I     I_    0.694936 0.264271 0.708200 -0.347395
I5    I     I_    0.683196 0.281059 0.167390 -0.382861
N1    N     N_R   0.523130 0.207800 0.519340 -0.167459
N2    N     N_R   0.476870 0.792180 0.480660 -0.103396
O1    O     O_R   0.506170 0.421690 0.658830 -0.572236
O2    O     O_R   0.491330 0.609320 0.646410 -0.598354
O3    O     O_R   0.690660 0.406170 0.506210 -0.594661
O4    O     O_R   0.675810 0.593790 0.493790 -0.622496
O5    O     O_R   0.508670 0.390680 0.353590 -0.570629
O6    O     O_R   0.493830 0.578310 0.341170 -0.623286
O7    O     O_R   0.324190 0.406210 0.506210 -0.610248
O8    O     O_R   0.309340 0.593830 0.493790 -0.635065
Zn1   Zn    Zn3+2 0.509910 0.374720 0.508290 0.999144
Zn2   Zn    Zn3+2 0.490090 0.625280 0.491710 0.966445

loop_
_geom_bond_atom_site_label_1
_geom_bond_atom_site_label_2
_ccdc_geom_bond_type
C18   I4    S    
C17   I3    S    
C24   H22   S    
C3    I2    S    
C31   H13   S    
C13   H21   S    
C12   C23   A    
C33   H19   S    
C1    O1    A    
C30   H9    S    
C34   C35   A    
C10   C15   A    
C5    C6    A    
O4    Zn2   S    
C28   H2    S    
C10   H1    S    
C18   C19   A    
C2    C38   A    
C27   H25   S    
C35   C36   A    
C3    C38   A    
C8    C9    A    
C13   C14   A    
C32   H16   S    
C16   C37   S    
C25   C32   S    
C33   H20   S    
C20   O8    A    
C7    C33   S    
O1    Zn1   S    
C2    C39   A    
C32   H15   S    
O8    Zn2   S    
C27   C34   S    
C18   N1    A    
C22   C31   S    
C20   O7    A    
C1    O2    A    
C30   H8    S    
C24   C25   A    
O7    Zn1   S    
C2    I1    S    
C11   N2    A    
O3    Zn1   S    
C4    C23   S    
C25   C26   A    
C12   C21   A    
C29   H6    S    
C5    C9    A    
C27   H26   S    
O5    Zn1   S    
C23   C34   A    
C7    C37   A    
C31   H14   S    
C1    C38   S    
C26   C36   A    
C30   H10   S    
C13   N2    A    
C29   H5    S    
C22   C24   A    
C8    C37   A    
C31   H11   S    
C19   C29   S    
C15   C17   A    
C8    I5    S    
C33   H18   S    
C14   C15   A    
C14   C19   A    
C3    C5    A    
C6    C7    A    
C39   H24   S    
C21   C30   S    
C28   H4    S    
C29   H7    S    
C16   O6    A    
C4    O4    A    
C27   H27   S    
O6    Zn2   S    
O2    Zn2   S    
C28   H3    S    
C32   H17   S    
C35   H23   S    
C16   O5    A    
C4    O3    A    
C11   H12   S    
C10   C11   A    
C20   C36   S    
C17   N1    A    
C12   C26   A    
C6    C39   A    
C21   C22   A    
N2    Zn2   S    
N1    Zn1   S    
C9    C28   S    
