data_mof_unit_65861.cif
_audit_creation_date              2012-12-10T16:48:08-0500
_audit_creation_method            fapswitch 2.2
_symmetry_space_group_name_H-M    P1
_symmetry_Int_Tables_number       1
_space_group_crystal_system       triclinic
_cell_length_a                    18.653527
_cell_length_b                    18.653533
_cell_length_c                    32.796718
_cell_angle_alpha                 89.999886
_cell_angle_beta                  90.000103
_cell_angle_gamma                 89.999983
_cell_volume                      11411.7551663

loop_
_atom_site_label
_atom_site_type_symbol
_atom_type_description
_atom_site_fract_x
_atom_site_fract_y
_atom_site_fract_z
_atom_type_partial_charge
C1    C     C_1   0.000000 0.500000 0.731205 -0.006041
C2    C     C_1   1.000000 0.500000 0.350813 -0.032512
C3    C     C_3   0.266291 0.460131 0.907565 -0.328730
C4    C     C_3   0.381135 0.736312 0.919085 0.021100
C5    C     C_3   0.460146 0.733684 0.907578 -0.328749
C6    C     C_3   0.736076 0.618725 0.919174 0.021044
C7    C     C_3   0.733490 0.539690 0.907718 -0.328682
C8    C     C_3   0.687154 0.799213 0.906612 -0.018779
C9    C     C_3   0.637864 0.803962 0.869772 -0.370993
C10   C     C_3   0.200642 0.687176 0.906609 -0.018736
C11   C     C_3   0.195900 0.637908 0.869759 -0.370955
C12   C     C_3   0.312825 0.200630 0.906609 -0.018735
C13   C     C_1   0.000000 0.500000 0.850813 -0.032506
C14   C     C_3   0.362091 0.195891 0.869758 -0.370955
C15   C     C_3   0.799339 0.312843 0.906610 -0.018742
C16   C     C_3   0.804067 0.362115 0.869761 -0.370976
C17   C     C_1   0.499999 0.000000 0.850813 -0.032509
C18   C     C_1   0.500000 0.000000 0.268806 -0.010479
C19   C     C_1   1.000000 0.500000 0.268806 -0.010478
C20   C     C_1   0.000000 0.500000 0.768806 -0.010477
C21   C     C_1   0.499999 0.000000 0.768806 -0.010478
C22   C     C_1   0.000000 0.500000 0.649184 -0.005749
C23   C     C_1   0.500000 1.000000 0.649184 -0.005749
C24   C     C_1   0.500000 0.000000 0.149184 -0.005749
C25   C     C_1   0.499999 0.000000 0.731205 -0.006042
C26   C     C_1   1.000000 0.500000 0.149184 -0.005749
C27   C     C_R   0.500000 1.000000 0.604000 0.493937
C28   C     C_R   0.000000 0.500000 0.604001 0.493938
C29   C     C_R   1.000000 0.500000 0.104000 0.493938
C30   C     C_R   0.500000 0.000000 0.104000 0.493937
C31   C     C_R   0.500000 0.000000 0.395977 0.473998
C32   C     C_R   1.000000 0.500000 0.395977 0.474004
C33   C     C_R   1.000000 0.500000 0.895977 0.474009
C34   C     C_R   0.500000 0.000000 0.895977 0.474003
C35   C     C_R   0.360772 0.139176 0.499828 0.543889
C36   C     C_1   0.500000 0.000000 0.231205 -0.006042
C37   C     C_R   0.139173 0.639230 0.499830 0.543941
C38   C     C_R   0.639227 0.860823 0.499827 0.543872
C39   C     C_R   0.860823 0.360773 0.499827 0.543875
C40   C     C_R   0.361026 0.860691 0.499752 0.533664
C41   C     C_R   0.139309 0.361027 0.499751 0.533645
C42   C     C_R   0.638973 0.139309 0.499751 0.533636
C43   C     C_R   0.860691 0.638973 0.499751 0.533638
C44   C     C_R   0.860770 0.639173 0.999830 0.543947
C45   C     C_R   0.639176 0.139228 0.999828 0.543894
C46   C     C_R   0.139227 0.360823 0.999828 0.543885
C47   C     C_1   1.000000 0.500000 0.231205 -0.006041
C48   C     C_R   0.360824 0.860773 0.999828 0.543888
C49   C     C_R   0.861027 0.360691 0.999751 0.533646
C50   C     C_R   0.639308 0.861026 0.999752 0.533667
C51   C     C_R   0.138973 0.639309 0.999751 0.533643
C52   C     C_R   0.360691 0.138973 0.999751 0.533639
C53   C     C_1   0.500000 0.000000 0.313216 -0.054743
C54   C     C_1   0.999999 0.500000 0.313216 -0.054741
C55   C     C_1   0.000000 0.500000 0.813216 -0.054738
C56   C     C_1   0.499999 0.000000 0.813216 -0.054740
C57   C     C_2   0.192411 0.752363 0.474928 0.243850
C58   C     C_1   0.000000 0.500000 0.686788 -0.037502
C59   C     C_2   0.752317 0.807539 0.474884 0.243860
C60   C     C_2   0.807540 0.247681 0.474885 0.243855
C61   C     C_2   0.247672 0.192450 0.474895 0.243850
C62   C     C_2   0.198941 0.254948 0.470664 0.244871
C63   C     C_2   0.745043 0.198949 0.470658 0.244877
C64   C     C_2   0.801051 0.745043 0.470657 0.244861
C65   C     C_2   0.254909 0.801091 0.470686 0.244851
C66   C     C_2   0.692445 0.252332 0.974897 0.243859
C67   C     C_2   0.252323 0.307546 0.974890 0.243856
C68   C     C_2   0.307549 0.747673 0.974894 0.243852
C69   C     C_1   0.500000 1.000000 0.686788 -0.037503
C70   C     C_2   0.747632 0.692406 0.974932 0.243847
C71   C     C_2   0.698904 0.754905 0.970689 0.244849
C72   C     C_2   0.245052 0.698942 0.970663 0.244868
C73   C     C_2   0.301056 0.245049 0.970661 0.244866
C74   C     C_2   0.754942 0.301064 0.970666 0.244850
C75   C     C_2   0.198502 0.689957 0.495628 -0.114338
C76   C     C_2   0.689947 0.801487 0.495623 -0.114422
C77   C     C_2   0.801487 0.310053 0.495623 -0.114421
C78   C     C_2   0.310051 0.198511 0.495624 -0.114404
C79   C     C_2   0.193300 0.304310 0.500693 -0.101491
C80   C     C_1   0.500000 0.000000 0.186788 -0.037503
C81   C     C_2   0.695687 0.193302 0.500690 -0.101503
C82   C     C_2   0.806697 0.695686 0.500689 -0.101504
C83   C     C_2   0.304300 0.806710 0.500701 -0.101458
C84   C     C_2   0.698510 0.189950 0.995625 -0.114394
C85   C     C_2   0.189948 0.301488 0.995624 -0.114408
C86   C     C_2   0.301489 0.810051 0.995624 -0.114403
C87   C     C_2   0.810041 0.698501 0.995628 -0.114330
C88   C     C_2   0.693289 0.804299 0.000703 -0.101453
C89   C     C_2   0.195689 0.693300 0.000692 -0.101491
C90   C     C_2   0.306699 0.195688 0.000691 -0.101496
C91   C     C_1   1.000000 0.500000 0.186788 -0.037502
C92   C     C_2   0.804310 0.306701 0.000693 -0.101491
C93   C     C_3   0.118741 0.763896 0.419163 0.021045
C94   C     C_3   0.039708 0.766485 0.407701 -0.328678
C95   C     C_3   0.763618 0.881100 0.419062 0.021080
C96   C     C_3   0.766258 0.960105 0.407541 -0.328726
C97   C     C_3   0.881106 0.236363 0.419066 0.021098
C98   C     C_3   0.960112 0.233732 0.407548 -0.328727
C99   C     C_3   0.236308 0.118862 0.419088 0.021098
C100  C     C_3   0.233678 0.039850 0.407582 -0.328739
C101  C     C_3   0.187177 0.299354 0.406609 -0.018737
C102  C     C_1   0.500000 0.000000 0.350813 -0.032515
C103  C     C_3   0.137907 0.304100 0.369759 -0.370953
C104  C     C_3   0.700614 0.187180 0.406608 -0.018727
C105  C     C_3   0.695870 0.137915 0.369756 -0.370946
C106  C     C_3   0.812833 0.700611 0.406608 -0.018728
C107  C     C_3   0.862099 0.695880 0.369757 -0.370960
C108  C     C_3   0.299229 0.812844 0.406612 -0.018775
C109  C     C_3   0.303977 0.862132 0.369771 -0.370989
C110  C     C_3   0.618852 0.263702 0.919093 0.021067
C111  C     C_3   0.539839 0.266325 0.907589 -0.328721
C112  C     C_3   0.263668 0.381122 0.919077 0.021091
H1    H     H_    0.249851 0.672803 0.507728 0.041417
H2    H     H_    0.172810 0.250158 0.007756 0.041458
H3    H     H_    0.250157 0.827191 0.007753 0.041455
H4    H     H_    0.827198 0.749852 0.007724 0.041413
H5    H     H_    0.727242 0.802107 0.027519 0.056369
H6    H     H_    0.197897 0.727240 0.027513 0.056365
H7    H     H_    0.272760 0.197897 0.027513 0.056364
H8    H     H_    0.802107 0.272756 0.027512 0.056366
H9    H     H_    0.140400 0.710666 0.409698 0.109536
H10   H     H_    0.146321 0.806902 0.401853 0.166086
H11   H     H_    0.016761 0.819624 0.415646 0.176145
H12   H     H_    0.672812 0.750160 0.507761 0.041467
H13   H     H_    0.033502 0.757590 0.374408 0.069706
H14   H     H_    0.009680 0.724193 0.424266 0.223208
H15   H     H_    0.710313 0.859492 0.409697 0.109576
H16   H     H_    0.806498 0.853422 0.401701 0.165901
H17   H     H_    0.819494 0.982975 0.415346 0.175865
H18   H     H_    0.757128 0.966259 0.374266 0.069737
H19   H     H_    0.724141 0.990241 0.424187 0.223233
H20   H     H_    0.859490 0.289661 0.409694 0.109554
H21   H     H_    0.853437 0.193471 0.401710 0.165934
H22   H     H_    0.990238 0.275867 0.424186 0.223222
H23   H     H_    0.750159 0.327189 0.507759 0.041463
H24   H     H_    0.982994 0.180506 0.415366 0.175899
H25   H     H_    0.966268 0.242839 0.374271 0.069726
H26   H     H_    0.289595 0.140481 0.409697 0.109557
H27   H     H_    0.193396 0.146517 0.401740 0.165964
H28   H     H_    0.180466 0.016962 0.415422 0.175913
H29   H     H_    0.242749 0.033683 0.374302 0.069705
H30   H     H_    0.275838 0.009740 0.424208 0.223241
H31   H     H_    0.238676 0.274529 0.396770 0.096437
H32   H     H_    0.197803 0.354902 0.417562 0.124901
H33   H     H_    0.087255 0.331546 0.378246 0.172959
H34   H     H_    0.327191 0.249843 0.507753 0.041454
H35   H     H_    0.164474 0.335153 0.345142 0.098618
H36   H     H_    0.125394 0.249510 0.358264 0.142108
H37   H     H_    0.725420 0.238688 0.396770 0.096426
H38   H     H_    0.645066 0.197788 0.417568 0.124900
H39   H     H_    0.668447 0.087251 0.378244 0.172963
H40   H     H_    0.664796 0.164474 0.345145 0.098611
H41   H     H_    0.750460 0.125425 0.358253 0.142110
H42   H     H_    0.761319 0.725405 0.396771 0.096433
H43   H     H_    0.802239 0.645060 0.417568 0.124922
H44   H     H_    0.912773 0.668477 0.378245 0.172968
H45   H     H_    0.227240 0.302103 0.527514 0.056364
H46   H     H_    0.835550 0.664794 0.345147 0.098622
H47   H     H_    0.874569 0.750473 0.358251 0.142093
H48   H     H_    0.274341 0.761377 0.396773 0.096486
H49   H     H_    0.354781 0.802158 0.417541 0.124896
H50   H     H_    0.331489 0.912749 0.378255 0.172948
H51   H     H_    0.334969 0.835548 0.345134 0.098634
H52   H     H_    0.249385 0.874710 0.358302 0.142091
H53   H     H_    0.640476 0.210420 0.909698 0.109568
H54   H     H_    0.646501 0.306621 0.901747 0.165951
H55   H     H_    0.516944 0.319531 0.915436 0.175935
H56   H     H_    0.697898 0.227240 0.527512 0.056363
H57   H     H_    0.533670 0.257265 0.874309 0.069725
H58   H     H_    0.509735 0.224155 0.924211 0.223230
H59   H     H_    0.210379 0.359498 0.909693 0.109552
H60   H     H_    0.306574 0.353463 0.901727 0.165951
H61   H     H_    0.319505 0.483022 0.915397 0.175919
H62   H     H_    0.257208 0.466290 0.874285 0.069724
H63   H     H_    0.224136 0.490244 0.924193 0.223219
H64   H     H_    0.359514 0.789599 0.909696 0.109556
H65   H     H_    0.353479 0.693401 0.901738 0.165961
H66   H     H_    0.490256 0.775844 0.924205 0.223242
H67   H     H_    0.772757 0.697895 0.527510 0.056365
H68   H     H_    0.483035 0.680472 0.915418 0.175902
H69   H     H_    0.466311 0.742757 0.874299 0.069703
H70   H     H_    0.789300 0.640387 0.909700 0.109536
H71   H     H_    0.693059 0.646297 0.901868 0.166101
H72   H     H_    0.680356 0.516739 0.915671 0.176140
H73   H     H_    0.742374 0.533476 0.874425 0.069697
H74   H     H_    0.775790 0.509669 0.924281 0.223226
H75   H     H_    0.738617 0.774315 0.896774 0.096492
H76   H     H_    0.697850 0.854765 0.917538 0.124896
H77   H     H_    0.587253 0.831485 0.878256 0.172946
H78   H     H_    0.302107 0.772758 0.527518 0.056368
H79   H     H_    0.664452 0.834944 0.845133 0.098636
H80   H     H_    0.625276 0.749370 0.858307 0.142088
H81   H     H_    0.225461 0.738678 0.896772 0.096438
H82   H     H_    0.145092 0.697796 0.917563 0.124907
H83   H     H_    0.168463 0.587251 0.878245 0.172959
H84   H     H_    0.164839 0.664471 0.845143 0.098620
H85   H     H_    0.250490 0.625405 0.858261 0.142101
H86   H     H_    0.261318 0.225441 0.896772 0.096436
H87   H     H_    0.302214 0.145081 0.917566 0.124909
H88   H     H_    0.412754 0.168465 0.878245 0.172962
H89   H     H_    0.749843 0.172809 0.007751 0.041453
H90   H     H_    0.335532 0.164822 0.845145 0.098618
H91   H     H_    0.374583 0.250482 0.858257 0.142099
H92   H     H_    0.774521 0.261340 0.896773 0.096451
H93   H     H_    0.854892 0.302227 0.917559 0.124926
H94   H     H_    0.831497 0.412777 0.878248 0.172962
H95   H     H_    0.835128 0.335560 0.845143 0.098630
H96   H     H_    0.749472 0.374610 0.858267 0.142083
O1    O     O_3   0.500000 0.000000 0.499990 -0.426799
O2    O     O_R   0.439860 0.000000 0.084000 -0.526741
O3    O     O_R   0.000000 0.560140 0.084000 -0.526741
O4    O     O_R   0.560140 0.000000 0.084000 -0.526743
O5    O     O_R   0.439920 0.000000 0.415980 -0.556443
O6    O     O_R   1.000000 0.560080 0.415980 -0.556439
O7    O     O_R   0.560080 0.000000 0.415980 -0.556456
O8    O     O_R   1.000000 0.439920 0.415980 -0.556457
O9    O     O_R   0.939920 0.500000 0.915980 -0.556432
O10   O     O_R   0.500000 0.060080 0.915980 -0.556451
O11   O     O_R   0.060080 0.500000 0.915980 -0.556456
O12   O     O_3   1.000000 0.500000 0.499990 -0.426794
O13   O     O_R   0.500000 0.939920 0.915980 -0.556444
O14   O     O_R   0.415460 0.144560 0.522020 -0.544644
O15   O     O_R   0.144560 0.584540 0.522020 -0.544640
O16   O     O_R   0.584540 0.855440 0.522020 -0.544643
O17   O     O_R   0.855440 0.415460 0.522020 -0.544646
O18   O     O_R   0.415460 0.855440 0.522020 -0.549607
O19   O     O_R   0.144560 0.415460 0.522020 -0.549607
O20   O     O_R   0.584540 0.144560 0.522020 -0.549606
O21   O     O_R   0.855440 0.584540 0.522020 -0.549597
O22   O     O_R   0.915460 0.644560 0.022020 -0.544640
O23   O     O_3   1.000000 0.500000 0.999990 -0.426794
O24   O     O_R   0.644560 0.084540 0.022020 -0.544642
O25   O     O_R   0.084540 0.355440 0.022020 -0.544646
O26   O     O_R   0.355440 0.915460 0.022020 -0.544645
O27   O     O_R   0.915460 0.355440 0.022020 -0.549596
O28   O     O_R   0.644560 0.915460 0.022020 -0.549608
O29   O     O_R   0.084540 0.644560 0.022020 -0.549605
O30   O     O_R   0.355440 0.084540 0.022020 -0.549604
O31   O     O_R   0.644640 0.915430 0.477970 -0.508271
O32   O     O_R   0.915430 0.355360 0.477970 -0.508271
O33   O     O_R   0.355360 0.084570 0.477970 -0.508280
O34   O     O_3   0.500000 1.000000 0.999990 -0.426799
O35   O     O_R   0.084570 0.644640 0.477970 -0.508308
O36   O     O_R   0.644640 0.084570 0.477970 -0.491963
O37   O     O_R   0.915430 0.644640 0.477970 -0.492023
O38   O     O_R   0.355360 0.915430 0.477970 -0.491950
O39   O     O_R   0.084570 0.355360 0.477970 -0.491955
O40   O     O_R   0.144640 0.415430 0.977970 -0.508273
O41   O     O_R   0.415430 0.855360 0.977970 -0.508278
O42   O     O_R   0.855360 0.584570 0.977970 -0.508315
O43   O     O_R   0.584570 0.144640 0.977970 -0.508282
O44   O     O_R   0.144640 0.584570 0.977970 -0.491963
O45   O     O_R   0.500000 0.939860 0.584000 -0.526743
O46   O     O_R   0.415430 0.144640 0.977970 -0.491979
O47   O     O_R   0.855360 0.415430 0.977970 -0.492024
O48   O     O_R   0.584570 0.855360 0.977970 -0.491945
O49   O     O_3   0.125688 0.775771 0.461556 -0.501838
O50   O     O_3   0.775691 0.874228 0.461441 -0.501735
O51   O     O_3   0.874232 0.224305 0.461446 -0.501723
O52   O     O_3   0.224287 0.125752 0.461470 -0.501744
O53   O     O_3   0.153778 0.257661 0.437158 -0.529670
O54   O     O_3   0.742326 0.153788 0.437152 -0.529644
O55   O     O_3   0.846216 0.742330 0.437152 -0.529718
O56   O     O_R   0.939860 0.500000 0.584000 -0.526740
O57   O     O_3   0.257607 0.846264 0.437185 -0.529777
O58   O     O_3   0.625746 0.275716 0.961476 -0.501773
O59   O     O_3   0.275703 0.374241 0.961458 -0.501743
O60   O     O_3   0.374246 0.724289 0.961468 -0.501745
O61   O     O_3   0.724220 0.625680 0.961568 -0.501851
O62   O     O_3   0.653730 0.757600 0.937189 -0.529787
O63   O     O_3   0.242338 0.653779 0.937158 -0.529679
O64   O     O_3   0.346218 0.242335 0.937156 -0.529687
O65   O     O_3   0.757648 0.346233 0.937164 -0.529767
O66   O     O_R   0.500000 0.060140 0.584000 -0.526742
O67   O     O_R   0.060140 0.500000 0.584000 -0.526742
O68   O     O_R   0.000000 0.439860 0.084000 -0.526742
Zn1   Zn    Zn3+2 0.414160 0.000000 0.468520 0.936993
Zn2   Zn    Zn3+2 0.085780 0.500000 0.531460 0.944819
Zn3   Zn    Zn3+2 0.500000 0.914220 0.531460 0.944812
Zn4   Zn    Zn3+2 0.914220 0.500000 0.531460 0.944806
Zn5   Zn    Zn3+2 1.000000 0.585780 0.031460 0.944821
Zn6   Zn    Zn3+2 0.585780 0.000000 0.031460 0.944817
Zn7   Zn    Zn3+2 0.000000 0.414220 0.031460 0.944810
Zn8   Zn    Zn3+2 0.414220 0.000000 0.031460 0.944807
Zn9   Zn    Zn3+2 0.000000 0.585840 0.468520 0.936952
Zn10  Zn    Zn3+2 0.585840 0.000000 0.468520 0.936991
Zn11  Zn    Zn3+2 0.000000 0.414160 0.468520 0.936995
Zn12  Zn    Zn3+2 0.914160 0.500000 0.968520 0.936951
Zn13  Zn    Zn3+2 0.500000 0.085840 0.968520 0.936981
Zn14  Zn    Zn3+2 0.085840 0.500000 0.968520 0.936992
Zn15  Zn    Zn3+2 0.500000 0.914160 0.968520 0.936998
Zn16  Zn    Zn3+2 0.500000 0.085780 0.531460 0.944806

loop_
_geom_bond_atom_site_label_1
_geom_bond_atom_site_label_2
_ccdc_geom_bond_type
C84   H89   S    
C95   O50   S    
C105  H41   S    
C41   O19   A    
O36   Zn10  S    
C93   C94   S    
C37   O35   A    
O32   Zn11  S    
C101  O53   S    
C68   C86   D    
C23   C69   T    
C7    H74   S    
C52   C90   S    
C95   C96   S    
C97   H21   S    
C4    H65   S    
C16   H95   S    
C65   O57   S    
C53   C102  T    
C15   H92   S    
C64   O55   S    
C103  H35   S    
O15   Zn2   S    
C38   C76   S    
C8    H76   S    
C42   C81   S    
O22   Zn5   S    
C97   O51   S    
C59   C64   S    
C96   H19   S    
C7    H72   S    
C6    H70   S    
C60   C63   S    
C39   C77   S    
C60   O51   S    
O23   Zn7   S    
C85   H2    S    
C11   H83   S    
C73   C90   D    
C93   O49   S    
C16   H94   S    
C100  H29   S    
C10   H82   S    
C30   O4    A    
C49   O47   A    
C101  H32   S    
C19   C47   T    
C65   C83   D    
C112  H59   S    
C31   O7    A    
C106  C107  S    
O13   Zn15  S    
C42   O36   A    
C104  H38   S    
C15   C16   S    
C66   C74   S    
C98   H24   S    
C108  C109  S    
C2    C32   S    
O8    Zn11  S    
C74   C92   D    
C48   O41   A    
C15   O65   S    
C50   O48   A    
C44   O22   A    
C110  C111  S    
C39   O32   A    
O23   Zn14  S    
C8    O62   S    
C100  H28   S    
C18   C53   S    
O56   Zn4   S    
C38   O31   A    
O4    Zn6   S    
C95   H16   S    
C24   C80   T    
C7    H73   S    
C8    C9    S    
C106  H42   S    
C82   H67   S    
O12   Zn4   S    
C72   O63   S    
C99   H26   S    
C29   O3    A    
C70   C71   S    
C75   H1    S    
C45   O24   A    
C23   C27   S    
C89   H6    S    
C9    H80   S    
O29   Zn5   S    
C108  H48   S    
C61   C78   D    
C107  H44   S    
C66   O58   S    
C34   O13   A    
C52   O30   A    
C70   O61   S    
C46   C85   S    
C32   O6    A    
C94   H11   S    
C29   O68   A    
C33   O11   A    
C37   C75   S    
C10   C11   S    
C101  C103  S    
C22   C28   S    
C41   O39   A    
C6    O61   S    
C40   O18   A    
C40   C83   S    
C99   H27   S    
C61   C62   S    
C83   H78   S    
C104  O54   S    
C20   C55   S    
C9    H77   S    
C70   C87   D    
C62   O53   S    
C5    H69   S    
C104  C105  S    
C3    H61   S    
C103  H36   S    
C97   C98   S    
C94   H14   S    
C8    H75   S    
C105  H39   S    
O6    Zn9   S    
O5    Zn1   S    
C60   C77   D    
C67   C85   D    
C68   O60   S    
O12   Zn2   S    
C98   H25   S    
O37   Zn9   S    
C76   H12   S    
C31   C102  S    
O33   Zn1   S    
C62   C79   D    
O67   Zn2   S    
O28   Zn6   S    
C93   H10   S    
C37   O15   A    
O21   Zn4   S    
O39   Zn11  S    
C30   O2    A    
C36   C80   S    
C35   O14   A    
C46   O25   A    
C28   O67   A    
C110  H54   S    
C16   H96   S    
C26   C91   T    
O1    Zn3   S    
O16   Zn3   S    
C14   H88   S    
O47   Zn12  S    
C109  H52   S    
O27   Zn7   S    
O12   Zn9   S    
C111  H57   S    
C104  H37   S    
O38   Zn1   S    
C11   H85   S    
C5    H68   S    
C13   C33   S    
C67   O59   S    
C3    H62   S    
C40   O38   A    
C99   C100  S    
C51   O29   A    
C3    C112  S    
C68   C72   S    
C14   H91   S    
C43   O21   A    
O20   Zn16  S    
O14   Zn16  S    
C11   H84   S    
C50   O28   A    
C51   O44   A    
C27   O45   A    
C17   C56   T    
C64   C82   D    
C87   H4    S    
C15   H93   S    
O35   Zn9   S    
C27   O66   A    
O3    Zn5   S    
C67   C73   S    
C19   C54   S    
C3    H63   S    
O25   Zn7   S    
O31   Zn10  S    
C63   C81   D    
C35   O33   A    
C38   O16   A    
C10   O63   S    
O12   Zn11  S    
C2    C54   T    
O43   Zn13  S    
O1    Zn16  S    
C48   C86   S    
O23   Zn12  S    
C10   H81   S    
C45   C84   S    
C25   C69   S    
C17   C34   S    
C49   C92   S    
C112  O59   S    
C44   C87   S    
C63   O54   S    
C48   O26   A    
C110  O58   S    
C107  H46   S    
C103  H33   S    
O9    Zn12  S    
C96   H18   S    
C41   C79   S    
C22   C58   T    
C94   H13   S    
C44   O42   A    
C105  H40   S    
C21   C25   T    
C93   H9    S    
C1    C20   T    
C12   H86   S    
O1    Zn10  S    
C74   O65   S    
C47   C91   S    
O23   Zn5   S    
C12   O64   S    
C97   H20   S    
C57   C65   S    
C4    C5    S    
O34   Zn13  S    
C73   O64   S    
C79   H45   S    
C21   C56   S    
C107  H47   S    
C34   O10   A    
O11   Zn14  S    
C6    C7    S    
C31   O5    A    
O68   Zn7   S    
C50   C88   S    
C4    O60   S    
C108  H49   S    
C98   H22   S    
C35   C78   S    
O26   Zn8   S    
O7    Zn10  S    
O40   Zn14  S    
C6    H71   S    
C109  H50   S    
C111  H58   S    
O2    Zn8   S    
C90   H7    S    
C57   C75   D    
O46   Zn13  S    
C12   C14   S    
C46   O40   A    
C49   O27   A    
C100  H30   S    
C1    C58   S    
C51   C89   S    
C109  H51   S    
C72   C89   D    
C101  H31   S    
O34   Zn8   S    
O45   Zn3   S    
O34   Zn15  S    
C112  H60   S    
C18   C36   T    
C99   O52   S    
C43   O37   A    
C71   O62   S    
C81   H56   S    
C14   H90   S    
C57   O49   S    
C106  O55   S    
C110  H53   S    
C12   H87   S    
C28   O56   A    
O44   Zn14  S    
O18   Zn3   S    
O1    Zn1   S    
C92   H8    S    
C108  O57   S    
O19   Zn2   S    
C24   C30   S    
C5    H66   S    
C39   O17   A    
C59   O50   S    
O30   Zn8   S    
C33   O9    A    
C78   H34   S    
O10   Zn13  S    
C66   C84   D    
C71   C88   D    
C32   O8    A    
C95   H15   S    
O17   Zn4   S    
C111  H55   S    
C42   O20   A    
C26   C29   S    
C106  H43   S    
C4    H64   S    
C43   C82   S    
O42   Zn12  S    
C86   H3    S    
C77   H23   S    
C61   O52   S    
O24   Zn6   S    
C88   H5    S    
C9    H79   S    
O66   Zn16  S    
C59   C76   D    
O34   Zn6   S    
O48   Zn15  S    
C45   O43   A    
C52   O46   A    
C96   H17   S    
C13   C55   T    
O41   Zn15  S    
