data_mof_unit_17709.cif
_audit_creation_date              2012-12-10T18:03:59-0500
_audit_creation_method            fapswitch 2.2
_symmetry_space_group_name_H-M    P1
_symmetry_Int_Tables_number       1
_space_group_crystal_system       triclinic
_cell_length_a                    10.95037
_cell_length_b                    9.535474
_cell_length_c                    10.932089
_cell_angle_alpha                 90.134357
_cell_angle_beta                  91.680121
_cell_angle_gamma                 88.695554
_cell_volume                      1140.70755135

loop_
_atom_site_label
_atom_site_type_symbol
_atom_type_description
_atom_site_fract_x
_atom_site_fract_y
_atom_site_fract_z
_atom_type_partial_charge
C1    C     C_R   0.262030 0.501531 0.504521 0.798880
C2    C     C_R   0.737115 0.498285 0.490426 0.803874
C3    C     C_R   0.419384 0.075268 0.426600 0.093055
C4    C     C_R   0.581063 0.071788 0.572925 0.085189
C5    C     C_R   0.417851 0.927139 0.429945 0.029043
C6    C     C_R   0.585039 0.923219 0.567345 -0.045184
C7    C     C_R   0.496841 0.499638 0.262592 0.799543
C8    C     C_R   0.501201 0.499942 0.737454 0.809803
C9    C     C_R   0.466511 0.616084 0.061146 0.033309
C10   C     C_R   0.474293 0.618065 0.937477 0.021518
C11   C     C_R   0.494918 0.497045 0.129971 -0.107852
C12   C     C_R   0.501845 0.498419 0.870156 -0.113036
C13   C     C_R   0.524524 0.373049 0.065179 -0.190895
C14   C     C_R   0.526246 0.373302 0.936459 -0.183513
C15   C     C_3   0.441239 0.771211 0.927281 0.004386
C16   C     C_3   0.418835 0.764367 0.068684 -0.005179
C17   C     C_R   0.065486 0.376597 0.523672 -0.071216
C18   C     C_R   0.940071 0.370502 0.499234 -0.072148
C19   C     C_R   0.870949 0.495466 0.478914 -0.146044
C20   C     C_R   0.127155 0.503531 0.505475 -0.134707
C21   C     C_R   0.931811 0.621214 0.456646 -0.082852
C22   C     C_R   0.058184 0.627399 0.476410 -0.082237
Cu1   Cu    Cu3+1 0.500000 0.640660 0.500000 0.977612
Cu2   Cu    Cu3+1 0.500000 0.359340 0.500000 0.991225
H1    H     H_    0.546405 0.276117 0.113309 0.177703
H2    H     H_    0.547407 0.276015 0.889669 0.173133
H3    H     H_    0.353584 0.871493 0.373800 0.113220
H4    H     H_    0.654053 0.864360 0.619609 0.130072
N1    N     N_R   0.500000 0.852070 0.500000 -0.171274
N2    N     N_R   0.500000 0.147940 0.500000 -0.208747
O1    O     O_R   0.319640 0.618740 0.499990 -0.580208
O2    O     O_R   0.680360 0.618740 0.500010 -0.579318
O3    O     O_R   0.319620 0.381170 0.499990 -0.578583
O4    O     O_R   0.680380 0.381170 0.500010 -0.575529
O5    O     O_R   0.499990 0.618810 0.319660 -0.580357
O6    O     O_R   0.500010 0.618810 0.680340 -0.586644
O7    O     O_R   0.499960 0.381240 0.319650 -0.585140
O8    O     O_R   0.500040 0.381240 0.680350 -0.582305
C23   C     C_3   0.549445 0.863281 0.888027 -0.391107
C24   C     C_3   0.678739 0.801137 0.917721 -0.346971
C25   C     C_3   0.778314 0.905553 0.892895 -0.790353
H5    H     H_    0.781847 0.926883 0.793541 0.250045
H6    H     H_    0.761798 0.004995 0.943537 0.268253
H7    H     H_    0.868344 0.860407 0.923327 0.242112
H8    H     H_    0.687958 0.769081 0.015045 0.237837
H9    H     H_    0.695159 0.706509 0.860457 0.221423
H10   H     H_    0.541227 0.879563 0.788747 0.197725
H11   H     H_    0.539249 0.969367 0.929407 0.194733
C26   C     C_3   0.283166 0.776158 0.108884 -0.417224
C27   C     C_3   0.201901 0.650424 0.075895 -0.330806
C28   C     C_3   0.069538 0.680371 0.109375 -0.808865
H12   H     H_    0.063587 0.700049 0.209120 0.252283
H13   H     H_    0.032644 0.773530 0.058774 0.256723
H14   H     H_    0.012938 0.588714 0.084976 0.245088
H15   H     H_    0.204204 0.625401 0.976966 0.231003
H16   H     H_    0.235156 0.556114 0.127500 0.222772
H17   H     H_    0.281394 0.785782 0.209282 0.195530
H18   H     H_    0.241294 0.874564 0.070670 0.212830
C29   C     C_1   0.331250 0.797019 0.848123 0.244696
N3    N     N_1   0.245522 0.817456 0.785689 -0.260206
C30   C     C_1   0.499848 0.854153 0.143835 0.235753
N4    N     N_1   0.564637 0.924842 0.200786 -0.274928
C31   C     C_1   0.127320 0.253059 0.576081 0.297256
N5    N     N_1   0.176126 0.155065 0.618629 -0.244787
C32   C     C_1   0.887892 0.233419 0.480879 0.313346
N6    N     N_1   0.848552 0.123280 0.464159 -0.258153
C33   C     C_1   0.866911 0.741744 0.402410 0.271513
N7    N     N_1   0.815363 0.836909 0.358166 -0.226032
C34   C     C_1   0.111498 0.765031 0.474562 0.294162
N8    N     N_1   0.150020 0.876853 0.474167 -0.276946
C35   C     C_1   0.335903 0.147083 0.342773 0.302249
N9    N     N_1   0.268537 0.203880 0.274877 -0.304229
C36   C     C_1   0.661487 0.141476 0.658439 0.280931
N10   N     N_1   0.726352 0.197513 0.727268 -0.316258

loop_
_geom_bond_atom_site_label_1
_geom_bond_atom_site_label_2
_ccdc_geom_bond_type
C17   C18   A    
C3    N2    A    
Cu2   O8    S    
Cu1   Cu2   S    
C6    N1    A    
C28   H12   S    
Cu2   O3    S    
C6    H4    S    
C25   H6    S    
C25   H5    S    
C23   H11   S    
C22   C34   S    
C3    C35   S    
C27   H15   S    
C15   C29   S    
C1    O1    A    
C8    C12   S    
C28   H14   S    
C24   H8    S    
Cu1   O2    S    
C14   H2    S    
Cu2   O7    S    
C7    O7    A    
C4    N2    A    
C29   N3    T    
C5    H3    S    
C13   C14   A    
C21   C33   S    
C18   C32   S    
C24   H9    S    
C9    C11   A    
C15   C23   S    
C4    C36   S    
C30   N4    T    
C8    O8    A    
C25   H7    S    
C10   C12   A    
C9    C10   A    
C4    C6    A    
C24   C25   S    
C19   C21   A    
C9    C16   S    
C12   C14   A    
C27   C28   S    
C5    N1    A    
C10   C15   S    
C36   N10   T    
C34   N8    T    
C2    O4    A    
Cu1   O5    S    
Cu2   N2    S    
C11   C13   A    
C16   C30   S    
C20   C22   A    
C28   H13   S    
C1    O3    A    
C33   N7    T    
Cu1   O6    S    
Cu1   N1    S    
C35   N9    T    
C17   C20   A    
C26   H17   S    
C16   C26   S    
C2    O2    A    
C32   N6    T    
C8    O6    A    
C23   C24   S    
C26   C27   S    
C18   C19   A    
C1    C20   S    
C27   H16   S    
C3    C5    A    
C2    C19   S    
C21   C22   A    
C23   H10   S    
C7    O5    A    
C17   C31   S    
C26   H18   S    
C15   C16   S    
C7    C11   S    
C31   N5    T    
C13   H1    S    
Cu1   O1    S    
Cu2   O4    S    
