data_mof_unit_5832.cif
_audit_creation_date              2012-10-26T20:09:47-0400
_audit_creation_method            fapswitch 2.2
_symmetry_space_group_name_H-M    P1
_symmetry_Int_Tables_number       1
_space_group_crystal_system       triclinic
_cell_length_a                    10.924444
_cell_length_b                    9.409814
_cell_length_c                    15.890183
_cell_angle_alpha                 89.820137
_cell_angle_beta                  90.675397
_cell_angle_gamma                 91.295991
_cell_volume                      1632.92487181

loop_
_atom_site_label
_atom_site_type_symbol
_atom_type_description
_atom_site_fract_x
_atom_site_fract_y
_atom_site_fract_z
_atom_type_partial_charge
C1    C     C_R   0.260471 0.498806 0.499131 0.546207
C2    C     C_3   0.934729 0.418316 0.582002 0.259451
C3    C     C_3   0.071390 0.405991 0.426895 -0.188830
C4    C     C_3   0.124368 0.497949 0.499209 -0.095345
C5    C     C_3   0.882150 0.502941 0.500463 0.125429
C6    C     C_R   0.494808 0.500127 0.340351 0.533224
C7    C     C_3   0.929611 0.425963 0.416615 0.460769
C8    C     C_3   0.595350 0.086572 0.445853 -0.103865
C9    C     C_3   0.596831 0.919870 0.447679 -0.116156
C10   C     C_3   0.522557 0.083903 0.587345 -0.104646
C11   C     C_3   0.518445 0.916628 0.587764 -0.099167
C12   C     C_3   0.633058 0.490026 0.954881 -0.020999
C13   C     C_3   0.381468 0.081403 0.471349 -0.105203
C14   C     C_3   0.382254 0.913860 0.469879 -0.100265
C15   C     C_R   0.741523 0.501479 0.501040 0.561590
C16   C     C_R   0.497393 0.499847 0.659862 0.539896
C17   C     C_3   0.437411 0.639035 0.048151 -0.185660
C18   C     C_3   0.417642 0.371798 0.048572 -0.185471
C19   C     C_3   0.418211 0.370305 0.950663 0.203446
C20   C     C_3   0.438468 0.640424 0.950222 0.203201
C21   C     C_1   0.495936 0.499732 0.749557 -0.053689
C22   C     C_3   0.492874 0.500631 0.083304 -0.009292
C23   C     C_3   0.626748 0.490778 0.053508 -0.210489
C24   C     C_3   0.496926 0.500177 0.917773 0.137919
C25   C     C_3   0.285850 0.797098 0.909728 -0.134185
C26   C     C_3   0.243828 0.238436 0.910433 -0.135811
C27   C     C_3   0.894995 0.771506 0.435154 -0.348899
C28   C     C_3   0.910943 0.252473 0.581382 -0.359311
C29   C     C_3   0.799092 0.499455 0.302366 -0.097277
C30   C     C_3   0.912534 0.209210 0.338554 -0.155157
C31   C     C_3   0.716170 0.617151 0.925817 -0.404671
C32   C     C_3   0.695934 0.351629 0.926397 -0.410087
C33   C     C_3   0.836487 0.785446 0.616003 -0.061322
C34   C     C_1   0.495949 0.499975 0.825120 -0.010104
C35   C     C_3   0.797694 0.414685 0.700390 -0.132260
C36   C     C_1   0.490794 0.500781 0.175356 -0.090569
C37   C     C_1   0.491748 0.500575 0.250811 -0.063181
C38   C     C_3   0.080190 0.650837 0.486102 -0.173620
C39   C     C_3   0.077231 0.439557 0.583738 -0.172406
C40   C     C_3   0.941750 0.663491 0.503541 0.268077
Cu1   Cu    Cu3+1 0.499860 0.642410 0.500040 0.866030
Cu2   Cu    Cu3+1 0.499860 0.357590 0.500040 0.875445
H1    H     H_    0.118222 0.434776 0.367097 0.127774
H2    H     H_    0.305601 0.874745 0.509478 0.113279
H3    H     H_    0.359942 0.122588 0.407284 0.110913
H4    H     H_    0.363258 0.874911 0.404880 0.112407
H5    H     H_    0.452110 0.121880 0.631396 0.120817
H6    H     H_    0.442872 0.879244 0.629281 0.121026
H7    H     H_    0.342099 0.648605 0.071195 0.152804
H8    H     H_    0.322012 0.376156 0.071749 0.151536
H9    H     H_    0.456601 0.271148 0.072876 0.064545
H10   H     H_    0.490613 0.732946 0.072275 0.064892
H11   H     H_    0.462201 0.271307 0.929164 0.071355
H12   H     H_    0.094253 0.293414 0.439353 0.099970
H13   H     H_    0.496854 0.731664 0.928539 0.071835
H14   H     H_    0.681460 0.581151 0.080776 0.116472
H15   H     H_    0.667744 0.393632 0.081213 0.113893
H16   H     H_    0.108277 0.683630 0.421646 0.101524
H17   H     H_    0.124776 0.339395 0.600007 0.095225
H18   H     H_    0.131262 0.726444 0.528215 0.164634
H19   H     H_    0.106099 0.515543 0.634257 0.192944
H20   H     H_    0.299544 0.855709 0.969944 0.080842
H21   H     H_    0.187482 0.802280 0.892156 0.148485
H22   H     H_    0.339322 0.849521 0.858726 0.097851
H23   H     H_    0.687146 0.127770 0.465090 0.161390
H24   H     H_    0.248630 0.178147 0.970694 0.082144
H25   H     H_    0.288893 0.178869 0.859470 0.097462
H26   H     H_    0.145796 0.248133 0.892860 0.146306
H27   H     H_    0.946965 0.770871 0.375651 0.124836
H28   H     H_    0.802226 0.747799 0.411700 0.143708
H29   H     H_    0.904460 0.882921 0.457242 0.102497
H30   H     H_    0.813842 0.221188 0.572873 0.139035
H31   H     H_    0.963310 0.197823 0.532482 0.131841
H32   H     H_    0.942846 0.205337 0.641709 0.100809
H33   H     H_    0.728102 0.443028 0.339187 0.181729
H34   H     H_    0.685866 0.889937 0.472813 0.106841
H35   H     H_    0.811727 0.441532 0.242503 0.113603
H36   H     H_    0.764667 0.606152 0.286100 0.105173
H37   H     H_    0.970470 0.123234 0.363850 0.098361
H38   H     H_    0.965593 0.271677 0.291300 0.140802
H39   H     H_    0.833156 0.158194 0.305480 0.114391
H40   H     H_    0.691643 0.718132 0.956506 0.099844
H41   H     H_    0.813465 0.599558 0.943306 0.145458
H42   H     H_    0.710874 0.632777 0.856764 0.123178
H43   H     H_    0.794995 0.354613 0.943196 0.136990
H44   H     H_    0.656913 0.255780 0.957875 0.100714
H45   H     H_    0.580072 0.123519 0.380112 0.121901
H46   H     H_    0.687240 0.336417 0.857510 0.112465
H47   H     H_    0.761446 0.707063 0.625923 0.178742
H48   H     H_    0.811155 0.878744 0.578216 0.076300
H49   H     H_    0.857420 0.828494 0.679569 0.116261
H50   H     H_    0.833193 0.327020 0.739929 0.110570
H51   H     H_    0.724284 0.375642 0.657699 0.141412
H52   H     H_    0.756650 0.492526 0.742922 0.124521
H53   H     H_    0.588656 0.877410 0.382620 0.115031
H54   H     H_    0.612741 0.123012 0.612101 0.091032
H55   H     H_    0.603673 0.876945 0.616597 0.088218
H56   H     H_    0.306245 0.115611 0.512725 0.114335
N1    N     N_3   0.500250 0.143650 0.501830 -0.227721
N2    N     N_3   0.500250 0.856350 0.501830 -0.221266
O1    O     O_R   0.317570 0.620260 0.500050 -0.517059
O2    O     O_3   0.296432 0.376256 0.918482 -0.499085
O3    O     O_3   0.913289 0.515566 0.344535 -0.611229
O4    O     O_3   0.868320 0.290756 0.406202 -0.593104
O5    O     O_3   0.943194 0.721716 0.587098 -0.545609
O6    O     O_3   0.894238 0.484205 0.657623 -0.538818
O7    O     O_R   0.317570 0.379740 0.500050 -0.510348
O8    O     O_R   0.499890 0.620310 0.379470 -0.507295
O9    O     O_R   0.499890 0.379690 0.379470 -0.508098
O10   O     O_R   0.682190 0.620260 0.500020 -0.534165
O11   O     O_R   0.682190 0.379740 0.500020 -0.497986
O12   O     O_R   0.499870 0.620210 0.620600 -0.507329
O13   O     O_R   0.499870 0.379790 0.620600 -0.518347
O14   O     O_3   0.317273 0.652907 0.917864 -0.498211

loop_
_geom_bond_atom_site_label_1
_geom_bond_atom_site_label_2
_ccdc_geom_bond_type
C38   C40   S    
C16   C21   S    
Cu1   O8    S    
Cu1   Cu2   S    
C18   H8    S    
C28   H32   S    
C16   O13   A    
C23   H14   S    
C14   H4    S    
C12   C23   S    
C3    H1    S    
C31   H40   S    
C26   H25   S    
C36   C37   T    
C8    N1    S    
C3    C7    S    
C33   H49   S    
C3    H12   S    
C32   H46   S    
C17   C20   S    
C31   H41   S    
C29   O3    S    
C18   C19   S    
C25   H21   S    
C13   H56   S    
C38   H16   S    
C2    C39   S    
C29   H36   S    
C20   C24   S    
C8    C9    S    
Cu1   O12   S    
C9    H34   S    
C13   H3    S    
Cu2   O7    S    
C9    H53   S    
C27   H27   S    
C30   H38   S    
C35   H50   S    
C19   H11   S    
C32   H44   S    
C8    H23   S    
C7    O3    S    
C13   C14   S    
C12   C32   S    
C15   O10   A    
C11   H6    S    
C28   H30   S    
C20   H13   S    
C28   H31   S    
C17   H10   S    
C18   H9    S    
C35   H51   S    
C39   H19   S    
C6    C37   S    
C26   H24   S    
C15   O11   A    
C33   O5    S    
C17   H7    S    
C5    C7    S    
C21   C34   T    
C2    O6    S    
C24   C34   S    
C31   H42   S    
C11   N2    S    
C25   H22   S    
C13   N1    S    
Cu2   O11   S    
C33   H47   S    
Cu2   O13   S    
C4    C39   S    
C10   H54   S    
C27   C40   S    
C39   H17   S    
Cu1   N2    S    
C27   H28   S    
C1    O7    A    
C38   H18   S    
C30   H37   S    
C4    C38   S    
C9    N2    S    
C7    O4    S    
C12   C31   S    
C6    O9    A    
C2    C5    S    
C3    C4    S    
C1    O1    A    
C27   H29   S    
C16   O12   A    
C14   H2    S    
C35   H52   S    
C23   H15   S    
C18   C22   S    
C33   H48   S    
Cu2   O9    S    
Cu1   O10   S    
C14   N2    S    
C29   H33   S    
C22   C36   S    
C12   C24   S    
C17   C22   S    
C11   H55   S    
C1    C4    S    
C26   H26   S    
C8    H45   S    
C30   H39   S    
C19   C24   S    
C35   O6    S    
Cu2   N1    S    
C26   O2    S    
C20   O14   S    
C32   H43   S    
C19   O2    S    
Cu1   O1    S    
C25   H20   S    
C10   N1    S    
C5    C15   S    
C10   C11   S    
C29   H35   S    
C5    C40   S    
C30   O4    S    
C10   H5    S    
C6    O8    A    
C22   C23   S    
C2    C28   S    
C25   O14   S    
C40   O5    S    
