data_mof_unit_26710.cif
_audit_creation_date              2013-03-05T16:15:03-0500
_audit_creation_method            fapswitch 2.2
_symmetry_space_group_name_H-M    P1
_symmetry_Int_Tables_number       1
_space_group_crystal_system       triclinic
_cell_length_a                    23.556762
_cell_length_b                    10.641641
_cell_length_c                    9.528053
_cell_angle_alpha                 89.746873
_cell_angle_beta                  89.859022
_cell_angle_gamma                 89.931802
_cell_volume                      2388.48493944

loop_
_atom_site_label
_atom_site_type_symbol
_atom_site_description
_atom_site_fract_x
_atom_site_fract_y
_atom_site_fract_z
_atom_type_partial_charge
O1    O     O_R   0.500030 0.316850 0.620870 -0.562861
O2    O     O_R   0.499970 0.683150 0.379130 -0.560307
O3    O     O_R   0.500000 0.316860 0.379090 -0.558781
O4    O     O_R   0.500000 0.683140 0.620910 -0.563333
C1    C     C_R   0.499790 0.260257 0.499930 0.801927
C2    C     C_R   0.499685 0.739766 0.499900 0.812778
O5    O     O_R   0.417890 0.499960 0.620920 -0.533921
O6    O     O_R   0.582110 0.500040 0.379080 -0.547172
O7    O     O_R   0.417870 0.499970 0.379140 -0.544562
O8    O     O_R   0.582130 0.500030 0.620860 -0.540889
C3    C     C_R   0.391095 0.502085 0.500088 0.830805
C4    C     C_R   0.608637 0.499344 0.499842 0.795661
Cu1   Cu    Cu3+1 0.500010 0.499990 0.643150 0.995642
Cu2   Cu    Cu3+1 0.499990 0.500010 0.356850 1.000253
C5    C     C_R   0.878701 0.589510 0.433014 0.685860
C6    C     C_R   0.120355 0.380864 0.487295 0.623080
N1    N     N_R   0.851596 0.483045 0.477620 -0.446631
N2    N     N_R   0.147258 0.494433 0.479774 -0.462352
C7    C     C_R   0.881264 0.378106 0.515951 0.572958
C8    C     C_R   0.117561 0.603782 0.462902 0.610670
C9    C     C_R   0.940460 0.372150 0.494975 -0.134156
C10   C     C_R   0.058450 0.601351 0.440952 -0.132562
C11   C     C_R   0.969531 0.484644 0.462244 -0.132285
C12   C     C_R   0.029453 0.486648 0.462501 -0.133259
C13   C     C_R   0.938555 0.595712 0.432612 -0.114054
C14   C     C_R   0.060452 0.374579 0.487041 -0.112943
C15   C     C_R   0.971333 0.258373 0.510193 0.315895
C16   C     C_R   0.027560 0.710802 0.402886 0.314542
C17   C     C_R   0.031263 0.259916 0.509463 0.423978
C18   C     C_R   0.967688 0.709025 0.402700 0.427054
O9    O     O_2   0.847445 0.688918 0.390509 -0.440392
O10   O     O_2   0.151825 0.275159 0.496624 -0.424503
O11   O     O_2   0.853588 0.281947 0.578454 -0.491606
O12   O     O_2   0.145285 0.714376 0.471615 -0.483354
C19   C     C_R   0.239571 0.541698 0.371891 0.143807
C20   C     C_R   0.757930 0.407184 0.398026 0.104351
C21   C     C_R   0.298701 0.552799 0.379567 0.299547
C22   C     C_R   0.698931 0.404987 0.411244 0.393296
C23   C     C_R   0.328091 0.506503 0.499157 -0.239957
C24   C     C_R   0.671172 0.493314 0.499050 -0.258749
C25   C     C_R   0.296511 0.460382 0.615039 0.068266
C26   C     C_R   0.703982 0.576222 0.582605 0.004068
C27   C     C_R   0.236878 0.462307 0.612563 0.380801
C28   C     C_R   0.763747 0.562852 0.584483 0.445725
C29   C     C_R   0.208314 0.499402 0.488530 0.133765
C30   C     C_R   0.790555 0.483192 0.487572 0.129304
C31   C     C_3   0.543652 0.041986 0.579197 -0.359534
C32   C     C_3   0.455005 0.957862 0.419623 -0.301256
C33   C     C_3   0.547746 0.958712 0.446984 0.069514
C34   C     C_3   0.450767 0.041409 0.551549 0.086361
H1    H     H_    0.579517 0.076474 0.643772 0.180675
H2    H     H_    0.419234 0.923138 0.354871 0.172632
C35   C     C_3   0.498903 0.875979 0.499618 -0.097550
C36   C     C_3   0.499758 0.124081 0.499334 -0.136275
C37   C     C_3   0.493532 0.959426 0.630085 0.459157
C38   C     C_3   0.504955 0.040626 0.368793 0.457640
C39   C     C_3   0.498823 0.612730 0.048398 0.143236
C40   C     C_3   0.501057 0.387369 0.951734 0.140287
C41   C     C_3   0.455350 0.554304 0.950585 0.203185
C42   C     C_3   0.544554 0.445891 0.049285 0.176414
N3    N     N_3   0.500040 0.499970 0.858290 -0.182781
N4    N     N_3   0.499960 0.500030 0.141710 -0.184862
C43   C     C_3   0.543426 0.558420 0.950043 0.169522
C44   C     C_3   0.456430 0.441746 0.050154 0.183919
O13   O     O_3   0.944235 0.143785 0.520155 -0.681158
H3    H     H_    0.913298 0.143344 0.449797 0.359019
O14   O     O_3   0.054606 0.819322 0.359983 -0.679022
H4    H     H_    0.084972 0.794663 0.293291 0.364424
N5    N     N_3   0.405258 0.615546 0.892935 -0.536352
H5    H     H_    0.380941 0.647272 0.977548 0.243939
H6    H     H_    0.418951 0.695247 0.838222 0.260915
N6    N     N_3   0.594620 0.384505 0.106296 -0.489402
H7    H     H_    0.619884 0.357247 0.021412 0.239341
H8    H     H_    0.580926 0.301966 0.155431 0.264722
N7    N     N_3   0.497439 0.740176 0.103030 -0.556677
H9    H     H_    0.489342 0.800533 0.018768 0.222640
H10   H     H_    0.538353 0.761320 0.137809 0.238297
N8    N     N_3   0.502752 0.259954 0.897357 -0.555440
H11   H     H_    0.512917 0.200144 0.980706 0.224097
H12   H     H_    0.461413 0.237147 0.867924 0.209388
N9    N     N_3   0.592127 0.624639 0.892174 -0.516743
H13   H     H_    0.617734 0.651111 0.976375 0.223061
H14   H     H_    0.576903 0.707630 0.846835 0.239604
N10   N     N_3   0.407480 0.376612 0.108876 -0.506716
H15   H     H_    0.382647 0.346457 0.024824 0.207288
H16   H     H_    0.422513 0.295824 0.159280 0.241365
O15   O     O_3   0.062200 0.150503 0.529497 -0.623858
H17   H     H_    0.036773 0.078935 0.550680 0.389487
O16   O     O_3   0.936771 0.816705 0.372988 -0.639131
H18   H     H_    0.962087 0.890536 0.365134 0.381639
N11   N     N_3   0.210390 0.576114 0.245448 -0.534852
H19   H     H_    0.226568 0.521704 0.163417 0.258568
H20   H     H_    0.219108 0.670459 0.223246 0.270512
N12   N     N_3   0.784022 0.331200 0.291814 -0.488970
H21   H     H_    0.810711 0.388099 0.231037 0.223358
H22   H     H_    0.808367 0.261085 0.339385 0.252549
O17   O     O_3   0.326156 0.610086 0.268387 -0.704934
H23   H     H_    0.356162 0.664925 0.307352 0.335464
O18   O     O_3   0.670020 0.314178 0.337050 -0.673840
H24   H     H_    0.634224 0.293969 0.386889 0.313980
N13   N     N_3   0.324969 0.409676 0.735678 -0.529508
H25   H     H_    0.312293 0.316184 0.748622 0.247216
H26   H     H_    0.311994 0.459969 0.824202 0.272392
N14   N     N_3   0.678467 0.678001 0.660074 -0.554553
H27   H     H_    0.636582 0.693554 0.629842 0.226857
H28   H     H_    0.699114 0.760857 0.630044 0.228977
O19   O     O_3   0.208212 0.425749 0.732773 -0.698812
H29   H     H_    0.168181 0.453501 0.727133 0.340544
O20   O     O_3   0.797705 0.630497 0.675039 -0.676164
H30   H     H_    0.774208 0.665406 0.751835 0.355232
N15   N     N_3   0.600074 0.911618 0.384860 -0.572404
H31   H     H_    0.624782 0.989636 0.358024 0.258884
H32   H     H_    0.622016 0.863341 0.463421 0.208985
N16   N     N_3   0.397411 0.087117 0.609746 -0.542588
H33   H     H_    0.378827 0.145454 0.534187 0.223687
H34   H     H_    0.406980 0.143849 0.695462 0.215517
O21   O     O_3   0.486106 0.914430 0.766891 -0.747005
H35   H     H_    0.486135 0.989969 0.827310 0.318060
O22   O     O_3   0.512302 0.085694 0.231986 -0.752023
H36   H     H_    0.513129 0.010058 0.171746 0.324452

loop_
_geom_bond_atom_site_label_1
_geom_bond_atom_site_label_2
_geom_bond_distance
_ccdc_geom_bond_type
O15   H17   0.989275 S    
N13   H25   1.045780 S    
C15   C17   1.411881 A    
N15   H31   1.044985 S    
C32   C38   1.546193 S    
O7    Cu2   1.945585 S    
C21   O17   1.379849 S    
O17   H23   0.991071 S    
C39   N4    1.490014 S    
C23   C25   1.416140 A    
O5    C3    1.314430 A    
C41   C44   1.524932 S    
C34   C36   1.532686 S    
C43   N9    1.453315 S    
C42   C43   1.522777 S    
O1    C1    1.302590 A    
C19   C21   1.400172 A    
N10   H16   1.044814 S    
N8    H12   1.043262 S    
C39   C41   1.521583 S    
C42   N6    1.452919 S    
C40   C42   1.520851 S    
Cu2   N4    2.049865 S    
C42   N4    1.486417 S    
O4    Cu1   1.959570 S    
N5    H6    1.044554 S    
C6    O10   1.349160 S    
C44   N10   1.455483 S    
N4    C44   1.485887 S    
O19   H29   0.989337 S    
C20   C30   1.408418 A    
C33   N15   1.455534 S    
C8    O12   1.349619 S    
C28   O20   1.383046 S    
C40   N3    1.489875 S    
C32   C34   1.545812 S    
C9    C15   1.418718 A    
N13   H26   1.045761 S    
C10   C16   1.418876 A    
Cu1   Cu2   2.727883 S    
C6    C14   1.412797 A    
C25   C27   1.405159 A    
O2    C2    1.301241 A    
C26   C28   1.415029 A    
C18   O16   1.385565 S    
N14   H28   1.045938 S    
N14   H27   1.041379 S    
N9    H14   1.044903 S    
C28   C30   1.404562 A    
C39   C43   1.521417 S    
C35   C37   1.535769 S    
C40   C44   1.522454 S    
C32   C35   1.550944 S    
C36   C38   1.536062 S    
C41   N3    1.488095 S    
O14   H4    0.991525 S    
C1    C36   1.449175 S    
C16   O14   1.379482 S    
N10   H15   1.044786 S    
N6    H8    1.044524 S    
C7    O11   1.349485 S    
N11   H19   1.045656 S    
N8    H11   1.043661 S    
N6    H7    1.044855 S    
C31   H1    1.110107 S    
C5    O9    1.349457 S    
N9    H13   1.044825 S    
C34   N16   1.456467 S    
C4    C24   1.474450 S    
N12   H22   1.043216 S    
N7    H9    1.043752 S    
C15   O13   1.379850 S    
N11   H20   1.045619 S    
C27   C29   1.415762 A    
O18   H24   0.990141 S    
C32   H2    1.110196 S    
O6    C4    1.310702 A    
N3    C43   1.485404 S    
N12   H21   1.045591 S    
N15   H32   1.043683 S    
C27   O19   1.382784 S    
N1    C30   1.440816 S    
C3    C23   1.484892 S    
N7    H10   1.045045 S    
O3    Cu2   1.959570 S    
O8    C4    1.309981 A    
C41   N5    1.455022 S    
C31   C36   1.551541 S    
O4    C2    1.298635 A    
C8    C10   1.408883 A    
O7    C3    1.312625 A    
C38   O22   1.397373 S    
C10   C12   1.413412 A    
O1    Cu1   1.961370 S    
C2    C35   1.449615 S    
C20   C22   1.395433 A    
C19   C29   1.404337 A    
N2    C29   1.441951 S    
C31   C37   1.548181 S    
C37   O21   1.397334 S    
C13   C18   1.415709 A    
C5    N1    1.366766 A    
O6    Cu2   1.946559 S    
C7    C9    1.409636 A    
C12   C14   1.416510 A    
C22   O18   1.381079 S    
O3    C1    1.297057 A    
O8    Cu1   1.945583 S    
C26   N14   1.443089 S    
N16   H34   1.043020 S    
O22   H36   0.990793 S    
N16   H33   1.045129 S    
C31   C33   1.546148 S    
C33   C38   1.525403 S    
C34   C37   1.527030 S    
C39   N7    1.455141 S    
C9    C11   1.413130 A    
C16   C18   1.410541 A    
C21   C23   1.420743 A    
O21   H35   0.990801 S    
C22   C24   1.419083 A    
C33   C35   1.531725 S    
C24   C26   1.421415 A    
N1    C7    1.365539 A    
C25   N13   1.435011 S    
N2    C8    1.366118 A    
C11   C13   1.416054 A    
N5    H5    1.044853 S    
O2    Cu2   1.961370 S    
C17   O15   1.385605 S    
C5    C13   1.411586 A    
C40   N8    1.454121 S    
C11   C12   1.411758 A    
C20   N12   1.434828 S    
O5    Cu1   1.946563 S    
Cu1   N3    2.049865 S    
C14   C17   1.416441 A    
C6    N2    1.366834 A    
O13   H3    0.991448 S    
O16   H18   0.989401 S    
O20   H30   0.989801 S    
C19   N11   1.434466 S    
