data_mof_unit_33427.cif
_audit_creation_date              2012-12-10T17:11:30-0500
_audit_creation_method            fapswitch 2.2
_symmetry_space_group_name_H-M    P1
_symmetry_Int_Tables_number       1
_space_group_crystal_system       triclinic
_cell_length_a                    15.156514
_cell_length_b                    13.031226
_cell_length_c                    11.655173
_cell_angle_alpha                 100.661505
_cell_angle_beta                  93.129929
_cell_angle_gamma                 90.945747
_cell_volume                      2258.04575395

loop_
_atom_site_label
_atom_site_type_symbol
_atom_type_description
_atom_site_fract_x
_atom_site_fract_y
_atom_site_fract_z
_atom_type_partial_charge
C1    C     C_R   0.499920 0.298633 0.477337 0.855490
C2    C     C_R   0.500081 0.701367 0.522663 0.855492
C3    C     C_R   0.046303 0.342291 0.583809 -0.206086
C4    C     C_R   0.953697 0.657703 0.416190 -0.206088
C5    C     C_R   0.499038 0.815599 0.537657 -0.123582
C6    C     C_R   0.500965 0.184401 0.462343 -0.123578
C7    C     C_R   0.507673 0.010518 0.344555 -0.270279
C8    C     C_R   0.492331 0.989483 0.655445 -0.270288
C9    C     C_R   0.507390 0.118320 0.351907 0.365004
C10   C     C_R   0.492614 0.881680 0.648093 0.364999
C11   C     C_R   0.496110 0.140134 0.562675 -0.271791
C12   C     C_R   0.503893 0.859866 0.437325 -0.271787
C13   C     C_R   0.497192 0.032571 0.554845 0.070866
C14   C     C_R   0.502812 0.967429 0.445155 0.070865
C15   C     C_R   0.418362 0.399173 0.020894 -0.319149
C16   C     C_R   0.581638 0.600826 0.979106 -0.319150
C17   C     C_R   0.425782 0.409222 0.143328 0.148726
C18   C     C_R   0.574219 0.590777 0.856672 0.148714
C19   C     C_R   0.534574 0.544270 0.157653 0.025765
C20   C     C_R   0.465427 0.455730 0.842347 0.025758
C21   C     C_R   0.529461 0.536836 0.034609 0.055880
C22   C     C_R   0.470539 0.463163 0.965391 0.055877
C23   C     C_R   0.328983 0.499510 0.500730 0.831070
C24   C     C_R   0.671017 0.500487 0.499270 0.831072
C25   C     C_R   0.813102 0.579299 0.456356 -0.081578
C26   C     C_R   0.186898 0.420695 0.543640 -0.081581
C27   C     C_R   0.767469 0.499942 0.498190 -0.144633
C28   C     C_R   0.232531 0.500054 0.501810 -0.144633
C29   C     C_R   0.814041 0.421261 0.541929 -0.080742
C30   C     C_R   0.185959 0.578737 0.458076 -0.080743
C31   C     C_R   0.907023 0.420736 0.541799 0.070136
C32   C     C_R   0.092977 0.579259 0.458202 0.070135
C33   C     C_R   0.953185 0.499794 0.499265 0.044383
C34   C     C_R   0.046815 0.500200 0.500733 0.044382
C35   C     C_R   0.906213 0.579077 0.456428 0.073148
C36   C     C_R   0.093787 0.420917 0.543569 0.073148
C37   C     C_R   0.955036 0.342618 0.583697 -0.210798
C38   C     C_R   0.044964 0.657378 0.416305 -0.210794
Cu1   Cu    Cu3+1 0.506660 0.507730 0.615930 0.980429
Cu2   Cu    Cu3+1 0.493340 0.492270 0.384070 0.980436
H1    H     H_    0.372233 0.341823 0.970281 0.134209
H2    H     H_    0.627768 0.658176 0.029719 0.134212
H3    H     H_    0.922733 0.280384 0.616890 0.164371
H4    H     H_    0.077268 0.719614 0.383116 0.164371
H5    H     H_    0.078876 0.279262 0.616231 0.168061
H6    H     H_    0.921124 0.720734 0.383769 0.168061
H7    H     H_    0.508686 0.810579 0.352161 0.179989
H8    H     H_    0.491315 0.189421 0.647839 0.179986
H9    H     H_    0.512536 0.960247 0.260021 0.180045
H10   H     H_    0.487468 0.039753 0.739979 0.180043
H11   H     H_    0.420592 0.399162 0.788191 0.132145
H12   H     H_    0.579408 0.600837 0.211809 0.132144
H13   H     H_    0.614610 0.640533 0.814783 0.140930
H14   H     H_    0.385391 0.359467 0.185217 0.140929
N1    N     N_R   0.516670 0.519360 0.790130 -0.183955
N2    N     N_R   0.483330 0.480640 0.209870 -0.183956
O1    O     O_R   0.504720 0.354460 0.582000 -0.595496
O2    O     O_R   0.495280 0.645540 0.418000 -0.595495
O3    O     O_R   0.493480 0.341410 0.386200 -0.539196
O4    O     O_R   0.506520 0.658590 0.613800 -0.539194
O5    O     O_R   0.375880 0.506510 0.597910 -0.573750
O6    O     O_R   0.624120 0.493490 0.402090 -0.573747
O7    O     O_R   0.364640 0.493450 0.402110 -0.599445
O8    O     O_R   0.635360 0.506550 0.597890 -0.599455
C39   C     C_R   0.764946 0.668522 0.423381 0.114867
C40   C     C_R   0.750681 0.675941 0.305221 -0.157002
C41   C     C_R   0.720568 0.768812 0.275089 -0.169470
C42   C     C_R   0.704648 0.854228 0.362478 -0.108302
C43   C     C_R   0.716276 0.846048 0.480252 -0.132044
C44   C     C_R   0.746078 0.753367 0.510757 -0.159817
H15   H     H_    0.766262 0.611513 0.236993 0.132960
H16   H     H_    0.711565 0.775543 0.184129 0.133763
H17   H     H_    0.682979 0.926577 0.338816 0.140787
H18   H     H_    0.702967 0.911672 0.548075 0.134763
H19   H     H_    0.757760 0.749005 0.602228 0.130869
C45   C     C_R   0.235055 0.331474 0.576618 0.114866
C46   C     C_R   0.253920 0.246624 0.489246 -0.159822
C47   C     C_R   0.283725 0.153947 0.519758 -0.132043
C48   C     C_R   0.295357 0.145774 0.637534 -0.108299
C49   C     C_R   0.279439 0.231195 0.724919 -0.169471
C50   C     C_R   0.249324 0.324063 0.694781 -0.156996
H20   H     H_    0.242235 0.250979 0.397774 0.130870
H21   H     H_    0.297033 0.088319 0.451939 0.134763
H22   H     H_    0.317029 0.073429 0.661201 0.140782
H23   H     H_    0.288445 0.224471 0.815881 0.133759
H24   H     H_    0.233745 0.388495 0.763006 0.132959
C51   C     C_R   0.765801 0.338741 0.587368 0.101279
C52   C     C_R   0.746552 0.241660 0.514828 -0.161613
C53   C     C_R   0.711196 0.159624 0.561246 -0.132160
C54   C     C_R   0.693867 0.174402 0.679723 -0.115360
C55   C     C_R   0.710849 0.271802 0.751706 -0.135546
C56   C     C_R   0.747455 0.353693 0.706002 -0.098619
H25   H     H_    0.761076 0.228922 0.423397 0.149194
H26   H     H_    0.696976 0.084788 0.505143 0.135610
H27   H     H_    0.666629 0.110612 0.715489 0.142914
H28   H     H_    0.696866 0.283387 0.843216 0.141892
H29   H     H_    0.762862 0.428047 0.763105 0.125242
C57   C     C_R   0.234199 0.661263 0.412649 0.101291
C58   C     C_R   0.252520 0.646338 0.294007 -0.098657
C59   C     C_R   0.289118 0.728242 0.248318 -0.135551
C60   C     C_R   0.306118 0.825629 0.320323 -0.115358
C61   C     C_R   0.288815 0.840380 0.438808 -0.132165
C62   C     C_R   0.253466 0.758331 0.485211 -0.161595
H30   H     H_    0.237098 0.571995 0.236888 0.125243
H31   H     H_    0.303080 0.716679 0.156800 0.141894
H32   H     H_    0.333349 0.889430 0.284569 0.142909
H33   H     H_    0.303049 0.915205 0.494929 0.135616
H34   H     H_    0.238961 0.771048 0.576649 0.149198
Cl1   Cl    Cl    0.482226 0.836055 0.780211 -0.634351
Cl2   Cl    Cl    0.517779 0.163946 0.219789 -0.634347

loop_
_geom_bond_atom_site_label_1
_geom_bond_atom_site_label_2
_ccdc_geom_bond_type
C19   N2    A    
C51   C52   A    
C8    C13   A    
C8    H10   S    
C27   C29   A    
C24   C27   S    
C6    C9    A    
C54   H27   S    
C4    H6    S    
C46   C47   A    
Cu1   O8    S    
C59   H31   S    
C16   C21   A    
Cu2   O7    S    
C3    C36   A    
C19   C21   A    
C20   H11   S    
C1    O3    A    
C48   H22   S    
C2    O4    A    
C57   C62   A    
Cu1   O1    S    
C60   H32   S    
Cu2   O6    S    
C10   Cl1   S    
C15   C17   A    
C41   H16   S    
C53   H26   S    
C18   H13   S    
C55   H28   S    
C19   H12   S    
C15   C22   A    
Cu1   N1    S    
C58   C59   A    
C42   C43   A    
Cu2   N2    S    
C26   C45   S    
C31   C33   A    
C62   H34   S    
C32   C38   A    
C50   H24   S    
C12   H7    S    
C23   O7    A    
C58   H30   S    
C4    C35   A    
C24   O8    A    
Cu2   O3    S    
C13   C14   A    
C11   H8    S    
C43   C44   A    
C20   N1    A    
C47   H21   S    
C56   H29   S    
C7    C14   A    
Cu1   O5    S    
Cu2   O2    S    
C41   C42   A    
C60   C61   A    
C43   H18   S    
C25   C39   S    
C45   C46   A    
C7    H9    S    
C5    C12   A    
C55   C56   A    
C47   C48   A    
C42   H17   S    
C3    H5    S    
C31   C37   A    
C32   C34   A    
C37   H3    S    
C38   H4    S    
C49   H23   S    
C1    O1    A    
C40   H15   S    
C33   C34   A    
C61   H33   S    
C16   C18   A    
C23   C28   S    
C17   N2    A    
C15   H1    S    
C18   N1    A    
C25   C35   A    
C26   C36   A    
C4    C38   A    
C57   C58   A    
C2    C5    S    
C16   H2    S    
C6    C11   A    
C51   C56   A    
C9    Cl2   S    
C7    C9    A    
C52   H25   S    
C24   O6    A    
C20   C22   A    
C49   C50   A    
C45   C50   A    
C2    O2    A    
C25   C27   A    
C30   C57   S    
C26   C28   A    
C28   C30   A    
C12   C14   A    
C5    C10   A    
C29   C31   A    
C30   C32   A    
C11   C13   A    
C54   C55   A    
C46   H20   S    
Cu1   O4    S    
C59   C60   A    
C33   C35   A    
C40   C41   A    
C34   C36   A    
C61   C62   A    
C29   C51   S    
C48   C49   A    
Cu1   Cu2   S    
C23   O5    A    
C52   C53   A    
C3    C37   A    
C8    C10   A    
C39   C40   A    
C1    C6    S    
C44   H19   S    
C53   C54   A    
C21   C22   A    
C17   H14   S    
C39   C44   A    
