data_mof_unit_48274.cif
_audit_creation_date              2012-12-11T15:29:35-0500
_audit_creation_method            fapswitch 2.2
_symmetry_space_group_name_H-M    P1
_symmetry_Int_Tables_number       1
_space_group_crystal_system       triclinic
_cell_length_a                    21.495228
_cell_length_b                    7.239812
_cell_length_c                    14.82721
_cell_angle_alpha                 89.999989
_cell_angle_beta                  73.725479
_cell_angle_gamma                 90.0
_cell_volume                      2214.97256501

loop_
_atom_site_label
_atom_site_type_symbol
_atom_type_description
_atom_site_fract_x
_atom_site_fract_y
_atom_site_fract_z
_atom_type_partial_charge
O1    O     O_R   0.464160 0.506670 0.130070 -0.528566
O2    O     O_R   0.535840 0.006670 0.869930 -0.528566
O3    O     O_R   0.589710 0.179080 0.006710 -0.541305
O4    O     O_R   0.410290 0.679080 0.993290 -0.541305
C1    C     C_R   0.616360 0.344452 0.001556 0.697169
C2    C     C_R   0.383640 0.844452 0.998444 0.697170
O5    O     O_R   0.467940 0.177220 0.138010 -0.539920
O6    O     O_R   0.532060 0.677220 0.861990 -0.539919
O7    O     O_R   0.413200 0.002810 0.002170 -0.544906
O8    O     O_R   0.586800 0.502810 0.997830 -0.544906
C3    C     C_R   0.456731 0.344807 0.174946 0.689109
C4    C     C_R   0.543269 0.844807 0.825054 0.689109
O9    O     O_3   0.482180 0.337850 0.955280 -0.376248
O10   O     O_3   0.517820 0.837850 0.044720 -0.376248
V1    V     V_3+5 0.503310 0.064600 0.008300 1.471113
V2    V     V_3+5 0.496690 0.564600 0.991700 1.471113
C5    C     C_R   0.569055 0.843687 0.721450 -0.114961
C6    C     C_R   0.430945 0.343687 0.278550 -0.114961
C7    C     C_R   0.929076 0.865627 0.276741 -0.047408
C8    C     C_R   0.070924 0.365628 0.723259 -0.047408
C9    C     C_R   0.562404 0.727794 0.570910 -0.185246
C10   C     C_R   0.437596 0.227794 0.429090 -0.185246
C11   C     C_R   0.534197 0.753722 0.666729 -0.035648
C12   C     C_R   0.465803 0.253722 0.333271 -0.035647
C13   C     C_R   0.633252 0.900595 0.678735 -0.111442
C14   C     C_R   0.366748 0.400595 0.321265 -0.111442
C15   C     C_R   0.666270 0.839631 0.586100 0.037029
C16   C     C_R   0.333730 0.339631 0.413900 0.037029
C17   C     C_R   0.628270 0.768323 0.529575 0.067833
C18   C     C_R   0.371729 0.268323 0.470425 0.067833
C19   C     C_R   0.735332 0.845348 0.547851 0.052405
C20   C     C_R   0.264667 0.345348 0.452149 0.052405
C21   C     C_R   0.763845 0.818531 0.449721 0.060984
C22   C     C_R   0.236155 0.318531 0.550279 0.060984
C23   C     C_R   0.722978 0.767565 0.394029 -0.175489
C24   C     C_R   0.277022 0.267566 0.605971 -0.175489
C25   C     C_R   0.656992 0.736532 0.433169 -0.047196
C26   C     C_R   0.343008 0.236532 0.566830 -0.047196
C27   C     C_R   0.776947 0.860476 0.606015 -0.155223
C28   C     C_R   0.223053 0.360477 0.393985 -0.155223
C29   C     C_R   0.843404 0.879668 0.568904 -0.171929
C30   C     C_R   0.156596 0.379669 0.431096 -0.171928
C31   C     C_R   0.871971 0.877396 0.471671 0.084797
C32   C     C_R   0.128029 0.377396 0.528329 0.084797
C33   C     C_R   0.832491 0.840203 0.411011 0.087867
C34   C     C_R   0.167509 0.340203 0.588989 0.087867
C35   C     C_R   0.939483 0.908183 0.433642 0.000495
C36   C     C_R   0.060516 0.408183 0.566358 0.000495
C37   C     C_R   0.967043 0.906322 0.336414 -0.172309
C38   C     C_R   0.032956 0.406321 0.663586 -0.172310
C39   C     C_R   0.863235 0.828454 0.313572 -0.162515
C40   C     C_R   0.136765 0.328454 0.686428 -0.162515
H1    H     H_    0.837376 0.796132 0.263412 0.137744
H2    H     H_    0.162624 0.296133 0.736588 0.137744
H3    H     H_    0.018306 0.934734 0.307000 0.112075
H4    H     H_    0.981694 0.434733 0.693000 0.112075
H5    H     H_    0.741191 0.742147 0.319762 0.143044
H6    H     H_    0.258809 0.242148 0.680238 0.143044
H7    H     H_    0.759274 0.849960 0.681488 0.139086
H8    H     H_    0.240726 0.349961 0.318512 0.139086
C41   C     C_3   0.211709 0.652105 0.007108 -0.040674
C42   C     C_3   0.788290 0.152105 0.992893 -0.040674
C43   C     C_3   0.284010 0.652610 0.007544 -0.363071
C44   C     C_3   0.715990 0.152610 0.992456 -0.363071
H9    H     H_    0.314038 0.567073 0.948718 0.156393
H10   H     H_    0.685962 0.067073 0.051282 0.156393
H11   H     H_    0.289964 0.587384 0.072655 0.161984
H12   H     H_    0.710036 0.087384 0.927345 0.161985
H13   H     H_    0.276727 0.911676 0.150707 0.181045
H14   H     H_    0.723273 0.411677 0.849293 0.181045
C45   C     C_3   0.198472 0.966161 0.086526 -0.359965
C46   C     C_3   0.801528 0.466160 0.913474 -0.359965
C47   C     C_3   0.231760 0.957536 0.911510 -0.179880
C48   C     C_3   0.768240 0.457537 0.088490 -0.179880
C49   C     C_3   0.187488 0.858227 0.001039 -0.000237
C50   C     C_3   0.812512 0.358227 0.998961 -0.000237
H15   H     H_    0.219710 0.107071 0.917300 0.144681
H16   H     H_    0.780290 0.607071 0.082700 0.144681
C51   C     C_3   0.312500 0.851279 0.999326 0.067356
C52   C     C_3   0.687500 0.351279 0.000674 0.067355
C53   C     C_3   0.271384 0.966738 0.083541 -0.319441
C54   C     C_3   0.728615 0.466738 0.916459 -0.319441
C55   C     C_3   0.304766 0.938309 0.907440 -0.355667
C56   C     C_3   0.695233 0.438309 0.092560 -0.355668
H17   H     H_    0.331024 0.851908 0.846789 0.182379
H18   H     H_    0.668976 0.351907 0.153210 0.182379
H19   H     H_    0.181726 0.111497 0.086149 0.172568
H20   H     H_    0.818274 0.611496 0.913850 0.172568
H21   H     H_    0.289292 0.111746 0.077554 0.146208
H22   H     H_    0.710708 0.611746 0.922446 0.146208
O11   O     O_R   0.913210 0.208550 0.002110 -0.535073
O12   O     O_R   0.086790 0.708550 0.997890 -0.535073
O13   O     O_R   0.032060 0.539960 0.861980 -0.533114
O14   O     O_R   0.967940 0.039960 0.138020 -0.533114
C57   C     C_R   0.043251 0.372516 0.825229 0.714414
C58   C     C_R   0.956749 0.872516 0.174771 0.714414
O15   O     O_R   0.910290 0.538020 0.993280 -0.544948
O16   O     O_R   0.089710 0.038020 0.006720 -0.544948
O17   O     O_R   0.964160 0.712340 0.130090 -0.534911
O18   O     O_R   0.035840 0.212340 0.869910 -0.534911
C59   C     C_R   0.884139 0.369195 0.997379 0.640875
C60   C     C_R   0.115861 0.869195 0.002620 0.640875
O19   O     O_3   0.017820 0.379210 0.044690 -0.372461
O20   O     O_3   0.982180 0.879210 0.955310 -0.372461
V3    V     V_3+5 0.996690 0.652500 0.991710 1.505883
V4    V     V_3+5 0.003310 0.152500 0.008290 1.505883
C61   C     C_1   0.619728 0.674238 0.371277 0.328329
N1    N     N_1   0.590039 0.624675 0.321689 -0.363158
C62   C     C_1   0.380272 0.174238 0.628723 0.328329
N2    N     N_1   0.409961 0.124676 0.678311 -0.363158
C63   C     C_1   0.981751 0.943010 0.492419 0.305458
N3    N     N_1   0.015635 0.970074 0.539434 -0.344847
C64   C     C_1   0.018249 0.443010 0.507581 0.305458
N4    N     N_1   0.984365 0.470075 0.460566 -0.344847
C65   C     C_1   0.172622 0.558615 0.093382 0.272330
N5    N     N_1   0.142133 0.485796 0.160825 -0.371259
C66   C     C_1   0.827378 0.058614 0.906619 0.272330
N6    N     N_1   0.857867 0.985795 0.839175 -0.371259
C67   C     C_1   0.205847 0.538443 0.927203 0.308977
N7    N     N_1   0.201585 0.449545 0.864476 -0.400940
C68   C     C_1   0.794153 0.038443 0.072798 0.308977
N8    N     N_1   0.798415 0.949546 0.135525 -0.400940
H23   H     H_    0.169212 0.905050 0.153863 0.155515
H24   H     H_    0.830787 0.405049 0.846137 0.155515
C69   C     C_1   0.220057 0.896794 0.822583 0.305655
N9    N     N_1   0.210871 0.849857 0.752794 -0.324532
C70   C     C_1   0.779943 0.396795 0.177417 0.305655
N10   N     N_1   0.789129 0.349859 0.247206 -0.324532
H25   H     H_    0.327867 0.077230 0.896628 0.158219
H26   H     H_    0.672133 0.577229 0.103372 0.158219
H27   H     H_    0.872318 0.895910 0.617589 0.154813
H28   H     H_    0.127681 0.395911 0.382411 0.154813
H29   H     H_    0.533243 0.666369 0.529842 0.133948
H30   H     H_    0.466757 0.166368 0.470158 0.133948
C71   C     C_1   0.469067 0.686016 0.707147 0.334172
N11   N     N_1   0.417114 0.630119 0.739057 -0.364890
C72   C     C_1   0.530933 0.186015 0.292853 0.334172
N12   N     N_1   0.582886 0.130118 0.260943 -0.364890
C73   C     C_1   0.660945 0.039518 0.725988 0.306704
N13   N     N_1   0.682912 0.151735 0.763302 -0.399279
C74   C     C_1   0.339055 0.539518 0.274012 0.306704
N14   N     N_1   0.317088 0.651736 0.236698 -0.399279

loop_
_geom_bond_atom_site_label_1
_geom_bond_atom_site_label_2
_ccdc_geom_bond_type
C45   C49   S    
C43   H9    S    
C3    C6    S    
C28   H8    S    
C41   C67   S    
C66   N6    T    
C21   C33   A    
C63   N3    T    
O1    C3    A    
C46   C50   S    
O2    C4    A    
C2    O7    A    
C71   N11   T    
C27   C29   A    
C43   C51   S    
C41   C49   S    
O5    C3    A    
C5    C11   A    
C48   C50   S    
C10   H30   S    
C6    C12   A    
C44   H12   S    
C45   H23   S    
C13   C73   S    
C56   H18   S    
C25   C61   S    
C24   H6    S    
C47   C69   S    
C15   C17   A    
C33   C39   A    
C65   N5    T    
C58   O17   A    
C34   C40   A    
C18   C26   A    
C41   C43   S    
C42   C66   S    
C8    C38   A    
O13   V3    S    
C44   C52   S    
C32   C34   A    
C16   C18   A    
C6    C14   A    
C4    C5    S    
C41   C65   S    
C49   C60   S    
C42   C44   S    
C61   N1    T    
C19   C21   A    
C22   C34   A    
C14   C74   S    
O12   C60   A    
C53   H21   S    
C36   C38   A    
O6    V2    S    
C46   H24   S    
C29   C31   A    
O11   V4    S    
C42   C50   S    
C30   C32   A    
O11   C59   A    
C9    H29   S    
O20   V3    S    
C46   H20   S    
C40   H2    S    
O17   V3    S    
C43   H11   S    
C15   C19   A    
C52   C56   S    
C16   C20   A    
C52   C54   S    
C51   C53   S    
C57   O18   A    
O5    V1    S    
O16   C60   A    
C9    C17   A    
C38   H4    S    
C26   C62   S    
C44   H10   S    
O4    V2    S    
C7    C37   A    
C48   C70   S    
O6    C4    A    
C27   H7    S    
O1    V2    S    
C1    C52   S    
O14   C58   A    
O2    V1    S    
C31   C33   A    
C68   N8    T    
C45   H19   S    
O4    C2    A    
C55   H17   S    
C8    C57   S    
C9    C11   A    
C69   N9    T    
C10   C12   A    
C13   C15   A    
C47   C49   S    
C70   N10   T    
O3    V1    S    
C29   H27   S    
C64   N4    T    
C50   C59   S    
O14   V4    S    
C10   C18   A    
C23   C25   A    
O18   V4    S    
C48   C56   S    
C28   C30   A    
O3    C1    A    
C54   H22   S    
C30   H28   S    
C73   N13   T    
C55   H25   S    
C12   C72   S    
C35   C37   A    
C72   N12   T    
C14   C16   A    
O16   V4    S    
C11   C71   S    
C23   H5    S    
C5    C13   A    
C24   C26   A    
O7    V1    S    
O15   V3    S    
C1    O8    A    
C8    C40   A    
C37   H3    S    
C62   N2    T    
C51   C55   S    
C2    C51   S    
C35   C63   S    
C56   H26   S    
C21   C23   A    
C19   C27   A    
O19   V4    S    
C22   C24   A    
C20   C28   A    
H14   C54   S    
C46   C54   S    
H13   C53   S    
C7    C39   A    
O12   V3    S    
O13   C57   A    
C67   N7    T    
C48   H16   S    
O9    V2    S    
C17   C25   A    
C47   H15   S    
O10   V1    S    
O8    V2    S    
C39   H1    S    
C74   N14   T    
C31   C35   A    
C47   C55   S    
C42   C68   S    
O15   C59   A    
C7    C58   S    
C32   C36   A    
C20   C22   A    
C36   C64   S    
C45   C53   S    
