data_mof_unit_68358.cif
_audit_creation_date              2012-12-11T17:07:07-0500
_audit_creation_method            fapswitch 2.2
_symmetry_space_group_name_H-M    P1
_symmetry_Int_Tables_number       1
_space_group_crystal_system       triclinic
_cell_length_a                    8.519139
_cell_length_b                    15.278876
_cell_length_c                    16.468668
_cell_angle_alpha                 98.953975
_cell_angle_beta                  93.358246
_cell_angle_gamma                 98.047658
_cell_volume                      2089.54336439

loop_
_atom_site_label
_atom_site_type_symbol
_atom_type_description
_atom_site_fract_x
_atom_site_fract_y
_atom_site_fract_z
_atom_type_partial_charge
Ba1   Ba    Ba6+2 0.163640 0.544330 0.462610 1.774245
Ba2   Ba    Ba6+2 0.646540 0.455660 0.537320 1.762894
C1    C     C_3   0.387060 0.804671 0.166528 0.245289
C2    C     C_R   0.096661 0.075684 0.539679 -0.068106
C3    C     C_R   0.951099 0.890081 0.531203 -0.123798
C4    C     C_3   0.961350 0.798052 0.248410 0.721500
C5    C     C_R   0.108759 0.920012 0.559042 -0.069444
C6    C     C_R   0.183402 0.007486 0.560451 0.290214
C7    C     C_R   0.882272 0.796935 0.526920 0.065275
C8    C     C_R   0.717903 0.776142 0.504945 0.105432
C9    C     C_R   0.914885 0.205070 0.482930 0.132865
C10   C     C_R   0.848946 0.110509 0.474128 0.033980
C11   C     C_R   0.935130 0.047767 0.507738 0.024387
C12   C     C_3   0.425706 0.762622 0.242340 0.611468
C13   C     C_R   0.697711 0.076163 0.434392 -0.010302
C14   C     C_R   0.626477 0.987319 0.433194 -0.003816
C15   C     C_R   0.704957 0.925771 0.469156 0.008894
C16   C     C_3   0.919822 0.846839 0.173756 0.463401
C17   C     C_R   0.861930 0.955121 0.505054 0.019570
C18   C     C_R   0.633747 0.834947 0.468107 0.095700
C19   C     C_R   0.068095 0.230959 0.522473 -0.255800
C20   C     C_R   0.592624 0.557108 0.271166 -0.201920
C21   C     C_R   0.459982 0.492034 0.241303 0.057675
C22   C     C_R   0.415602 0.473418 0.155977 -0.095221
C23   C     C_3   0.635271 0.722546 0.753025 0.343365
C24   C     C_R   0.508087 0.516717 0.100929 0.314527
C25   C     C_R   0.654507 0.568898 0.131613 -0.094777
C26   C     C_R   0.700455 0.586245 0.216259 -0.015615
C27   C     C_R   0.382529 0.508777 0.852584 -0.070410
C28   C     C_3   0.766282 0.265131 0.252485 0.593599
C29   C     C_R   0.337615 0.499542 0.768104 -0.007284
C30   C     C_R   0.280886 0.467697 0.905681 0.355064
C31   C     C_R   0.192812 0.446569 0.735642 -0.204620
C32   C     C_R   0.083147 0.413507 0.788400 -0.081786
C33   C     C_R   0.129322 0.422664 0.872949 -0.090028
C34   C     C_3   0.654733 0.825173 0.767043 -0.042581
C35   C     C_3   0.914193 0.282478 0.198952 0.361570
C36   C     C_3   0.111087 0.752744 0.738268 0.642050
C37   C     C_3   0.063368 0.798429 0.823844 -0.024616
C38   C     C_3   0.265137 0.271245 0.352067 0.362572
C39   C     C_3   0.230208 0.169625 0.323798 -0.020253
C40   C     C_3   0.812697 0.366456 0.090796 -0.149567
C41   C     C_3   0.279058 0.901950 0.736256 -0.293305
C42   C     C_3   0.998872 0.600616 0.752840 -0.155895
C43   C     C_3   0.185989 0.878108 0.958594 -0.122616
C44   C     C_3   0.334522 0.050481 0.232419 -0.216427
C45   C     C_3   0.840301 0.210432 0.759363 0.622486
C46   C     C_3   0.669322 0.854522 0.919176 -0.141581
C47   C     C_3   0.776988 0.969811 0.232064 -0.291787
C48   C     C_3   0.099729 0.936755 0.340101 -0.300674
C49   C     C_3   0.566231 0.199609 0.128927 -0.138262
C50   C     C_3   0.791884 0.424021 0.306915 -0.164541
C51   C     C_3   0.775058 0.136931 0.807056 0.321469
C52   C     C_3   0.328887 0.213076 0.745548 0.760351
C53   C     C_3   0.265512 0.127736 0.778541 0.234698
C54   C     C_R   0.161391 0.169121 0.548018 -0.038611
Cl1   Cl    Cl    0.300877 0.659275 0.232751 -0.602461
Cl2   Cl    Cl    0.805824 0.790650 0.316382 -0.908741
Cl3   Cl    Cl    0.904901 0.772196 0.076399 -0.698991
Cl4   Cl    Cl    0.954462 0.185779 0.131016 -0.661304
Cl5   Cl    Cl    0.440575 0.740862 0.074645 -0.680600
Cl6   Cl    Cl    0.792544 0.165936 0.654343 -0.708739
Cl7   Cl    Cl    0.801353 0.173848 0.915193 -0.592346
Cl8   Cl    Cl    0.440482 0.292941 0.826038 -0.585700
Cl9   Cl    Cl    0.179903 0.148967 0.874663 -0.603927
Cl10  Cl    Cl    0.390564 0.016523 0.579649 -0.718816
Cl11  Cl    Cl    0.609728 0.680521 0.533671 -0.668090
H1    H     H_    0.018974 0.295920 0.244173 0.080197
H2    H     H_    0.684137 0.698155 0.807721 -0.016816
H3    H     H_    0.702777 0.703334 0.699556 0.079717
H4    H     H_    0.781534 0.854101 0.768620 0.043100
H5    H     H_    0.595296 0.845752 0.712796 0.098508
H6    H     H_    0.451904 0.873662 0.173570 0.004006
H7    H     H_    0.971034 0.226809 0.773313 -0.024891
H8    H     H_    0.646034 0.115477 0.789666 0.091380
H9    H     H_    0.836895 0.077747 0.792114 0.040075
H10   H     H_    0.226524 0.243639 0.723622 -0.191668
H11   H     H_    0.363871 0.088993 0.787890 0.072689
H12   H     H_    0.952942 0.761165 0.841223 0.076611
H13   H     H_    0.173478 0.086156 0.732712 -0.023741
H14   H     H_    0.180295 0.874325 0.578940 0.162324
H15   H     H_    0.507088 0.968187 0.404415 0.106731
H16   H     H_    0.630533 0.118136 0.404766 0.088451
H17   H     H_    0.120410 0.300670 0.528790 0.030531
H18   H     H_    0.494549 0.549816 0.876718 0.101344
H19   H     H_    0.735663 0.592756 0.088933 0.156435
H20   H     H_    0.310937 0.425451 0.132971 0.095504
H21   H     H_    0.045458 0.397330 0.913826 0.112446
H22   H     H_    0.624659 0.574533 0.336781 0.091580
H23   H     H_    0.034607 0.866074 0.818473 0.072822
H24   H     H_    0.157044 0.440891 0.670650 0.041773
H25   H     H_    0.018732 0.900486 0.167782 0.007176
H26   H     H_    0.041603 0.380162 0.143663 0.242301
H27   H     H_    0.845360 0.430856 0.068267 0.118705
H28   H     H_    0.692547 0.366626 0.112319 0.052206
H29   H     H_    0.815166 0.312305 0.038448 0.221447
H30   H     H_    0.314622 0.777942 0.668829 0.250773
H31   H     H_    0.305874 0.924671 0.803199 0.131140
H32   H     H_    0.171184 0.928676 0.716977 0.114957
H33   H     H_    0.383040 0.930016 0.706523 0.169130
H34   H     H_    0.157075 0.295331 0.375968 -0.093386
H35   H     H_    0.227307 0.661590 0.790342 0.179673
H36   H     H_    0.012630 0.574152 0.811329 0.079709
H37   H     H_    0.979928 0.548135 0.697425 0.114962
H38   H     H_    0.889957 0.631239 0.756134 0.108413
H39   H     H_    0.298421 0.797328 0.874631 0.246886
H40   H     H_    0.234415 0.942800 0.940203 0.115512
H41   H     H_    0.261517 0.867909 0.012392 0.154715
H42   H     H_    0.063904 0.881773 0.977207 0.162532
H43   H     H_    0.467352 0.155430 0.314499 0.217146
H44   H     H_    0.425592 0.042626 0.188206 0.099539
H45   H     H_    0.362513 0.286127 0.402237 0.043299
H46   H     H_    0.217209 0.036269 0.196165 0.144189
H47   H     H_    0.349865 0.001107 0.273411 0.105126
H48   H     H_    0.570953 0.927788 0.840689 0.209233
H49   H     H_    0.796035 0.885235 0.922553 0.120144
H50   H     H_    0.660119 0.783425 0.927411 0.178871
H51   H     H_    0.612358 0.890234 0.970789 0.140194
H52   H     H_    0.714290 0.884750 0.122732 0.259342
H53   H     H_    0.657236 0.989630 0.229799 0.105888
H54   H     H_    0.863264 0.021781 0.211647 0.150120
H55   H     H_    0.806496 0.965136 0.296941 0.145636
H56   H     H_    0.258398 0.808950 0.159253 0.119920
H57   H     H_    0.133409 0.807590 0.340456 0.278659
H58   H     H_    0.213124 0.961746 0.378554 0.157610
H59   H     H_    0.004521 0.937763 0.380852 0.146047
H60   H     H_    0.080740 0.982135 0.296159 0.089036
H61   H     H_    0.683108 0.130223 0.205990 0.214668
H62   H     H_    0.478601 0.138877 0.106586 0.139255
H63   H     H_    0.649128 0.203024 0.080245 0.185927
H64   H     H_    0.497254 0.256085 0.134553 0.117950
H65   H     H_    0.593206 0.348932 0.240623 0.141265
H66   H     H_    0.799161 0.456967 0.254698 0.054800
H67   H     H_    0.117680 0.153093 0.283252 0.126635
H68   H     H_    0.914685 0.415143 0.322403 0.151676
H69   H     H_    0.745028 0.461675 0.360688 0.111717
H70   H     H_    0.215351 0.135341 0.378141 -0.017462
H71   H     H_    0.546339 0.747494 0.239874 0.092999
N1    N     N_2   0.464644 0.506247 0.014459 -0.182416
N2    N     N_2   0.101059 0.846438 0.298637 -0.423328
N3    N     N_2   0.648662 0.192088 0.207056 -0.423307
N4    N     N_2   0.689439 0.341847 0.277715 -0.448473
N5    N     N_2   0.322510 0.474466 0.992245 -0.180851
N6    N     N_2   0.926807 0.360378 0.157264 -0.434684
N7    N     N_2   0.255176 0.804947 0.716682 -0.417776
N8    N     N_2   0.138745 0.663151 0.745653 -0.449912
N9    N     N_2   0.185798 0.804994 0.891084 -0.408010
N10   N     N_2   0.360418 0.140136 0.279505 -0.374310
N11   N     N_2   0.588082 0.862453 0.841576 -0.430762
N12   N     N_2   0.771875 0.884293 0.179478 -0.402167
O1    O     O_2   0.162600 0.722340 0.548210 -0.471062
O2    O     O_2   0.777654 0.454532 0.788690 -0.455553
O3    O     O_3   0.763720 0.285507 0.779152 -0.497712
O4    O     O_3   0.890740 0.608910 0.545450 -0.429870
O5    O     O_3   0.431610 0.453580 0.401810 -0.475117
O6    O     O_2   0.628260 0.544210 0.698310 -0.463147
O7    O     O_3   0.474823 0.685502 0.734588 -0.640365
O8    O     O_2   0.485848 0.181348 0.530499 -0.382958
O9    O     O_3   0.432733 0.190598 0.684564 -0.528219
O10   O     O_3   0.394140 0.666560 0.400120 -0.370100
O11   O     O_2   0.312355 0.821052 0.459707 -0.471058
O12   O     O_3   0.310008 0.311744 0.284348 -0.622401
O13   O     O_3   0.979953 0.747612 0.679404 -0.691465
O14   O     O_3   0.407452 0.823249 0.314144 -0.660638
O15   O     O_2   0.182040 0.455730 0.301660 -0.468615
O16   O     O_3   0.971540 0.620730 0.357730 -0.448217
O17   O     O_2   0.002483 0.546392 0.205994 -0.419377
O18   O     O_3   0.003634 0.714137 0.214620 -0.511644
O19   O     O_2   0.647690 0.277600 0.451760 -0.459907
O20   O     O_3   0.919560 0.391080 0.454480 -0.519880
O21   O     O_3   0.416160 0.333430 0.599820 -0.467836
O22   O     O_3   0.825809 0.234855 0.323973 -0.695769
O23   O     O_3   0.378690 0.546410 0.598120 -0.399196
O24   O     O_3   0.838760 0.379260 0.642200 -0.444270
P1    P     P_3+3 0.987090 0.708160 0.571840 1.050021
P2    P     P_3+3 0.349530 0.428340 0.313070 1.001929
P3    P     P_3+3 0.915335 0.619214 0.251936 1.098296
P4    P     P_3+3 0.823210 0.291830 0.428100 0.980920
P5    P     P_3+3 0.869775 0.380651 0.749150 1.058479
P6    P     P_3+3 0.441031 0.784169 0.408526 1.074829
P7    P     P_3+3 0.454492 0.568765 0.702606 1.018527
P8    P     P_3+3 0.368722 0.218046 0.589964 1.090807

loop_
_geom_bond_atom_site_label_1
_geom_bond_atom_site_label_2
_ccdc_geom_bond_type
O5    P2    S    
O3    P5    S    
Ba1   P2    S    
C6    Cl10  S    
Ba2   O5    S    
C35   N6    S    
Ba2   O19   S    
C4    Cl2   S    
O21   P8    S    
C41   H31   S    
C2    C6    A    
O13   P1    S    
C45   Cl6   S    
C42   H37   S    
C5    C6    A    
C18   P6    S    
C8    Cl11  S    
O15   P2    D    
C3    C7    A    
Ba1   O23   S    
C24   C25   A    
C28   N3    S    
C54   P8    S    
C47   N12   S    
O20   P4    S    
C40   H29   S    
C41   H32   S    
C32   C33   A    
C27   C30   A    
C31   H24   S    
Ba2   O23   S    
C36   C37   S    
C48   N2    S    
C34   N11   S    
C47   H53   S    
O12   P2    S    
C34   H5    S    
O18   P3    S    
C35   H1    S    
Ba1   O20   S    
C15   C18   A    
Ba1   Ba2   S    
C2    C11   A    
Ba1   O5    S    
O10   P6    S    
C30   N5    S    
C38   H34   S    
N1    N5    D    
C42   H36   S    
C36   N8    S    
C12   H71   S    
C8    C18   A    
C14   C15   A    
C42   N8    S    
C21   C22   A    
C29   C31   A    
Ba1   O1    S    
C48   H59   S    
C44   H47   S    
C7    C8    A    
C37   H23   S    
C27   H18   S    
O14   P6    S    
C43   H41   S    
Ba2   O21   S    
C45   C51   S    
C52   H10   S    
H52   N12   S    
C49   N3    S    
C52   O9    S    
O23   P7    S    
Ba2   O4    S    
C20   C26   A    
C46   N11   S    
C2    C54   A    
C4    N2    S    
C50   H66   S    
C40   H27   S    
C32   P5    S    
C51   H8    S    
O7    P7    S    
H43   N10   S    
C39   H67   S    
C53   Cl9   S    
C49   H63   S    
C1    H56   S    
C1    Cl5   S    
H65   N4    S    
C4    C16   S    
C4    O18   S    
O1    P1    D    
C11   C17   A    
C40   H28   S    
C30   C33   A    
C41   H33   S    
C38   H45   S    
C24   N1    S    
C3    C5    A    
C53   H11   S    
C49   H64   S    
C46   H51   S    
C21   P2    S    
C45   O3    S    
C42   H38   S    
C49   H62   S    
C50   N4    S    
H39   N9    S    
C28   C35   S    
C37   H12   S    
C25   H19   S    
C36   N7    S    
C38   O12   S    
C41   N7    S    
C33   H21   S    
C19   H17   S    
Ba1   O15   S    
C9    C10   A    
C47   H54   S    
H48   N11   S    
C14   H15   S    
C31   C32   A    
O16   P3    S    
O11   P6    D    
O8    P8    D    
C28   O22   S    
H26   N6    S    
Ba2   O20   S    
O4    P1    S    
C36   O13   S    
O17   P3    D    
C10   C13   A    
C40   N6    S    
C50   H69   S    
H30   N7    S    
C51   H9    S    
C23   H2    S    
H35   N8    S    
O19   P4    D    
C48   H58   S    
H61   N3    S    
O22   P4    S    
C12   Cl1   S    
C52   C53   S    
C38   C39   S    
Ba2   O6    S    
C44   H46   S    
C5    H14   S    
C43   N9    S    
C39   H70   S    
H57   N2    S    
Ba1   O10   S    
C45   H7    S    
C22   C24   A    
C48   H60   S    
C19   C54   A    
C13   H16   S    
O6    P7    D    
C34   H4    S    
C46   H50   S    
C3    C17   A    
C26   P3    S    
C1    C12   S    
C28   N4    S    
C46   H49   S    
C16   H25   S    
O2    P5    D    
C27   C29   A    
C16   N12   S    
Ba2   O24   S    
C23   O7    S    
C53   H13   S    
C51   Cl7   S    
C39   N10   S    
C52   Cl8   S    
Ba1   O16   S    
C47   H55   S    
C44   N10   S    
C15   C17   A    
C20   H22   S    
C9    C19   A    
C7    P1    S    
C43   H42   S    
O9    P8    S    
C12   O14   S    
Ba1   O4    S    
C1    H6    S    
C22   H20   S    
C35   Cl4   S    
C23   C34   S    
C43   H40   S    
C16   Cl3   S    
C10   C11   A    
C37   N9    S    
C25   C26   A    
C50   H68   S    
C20   C21   A    
C23   H3    S    
Ba2   P4    S    
C44   H44   S    
C9    P4    S    
O24   P5    S    
C29   P7    S    
C13   C14   A    
Ba1   P1    S    
