data_mof_unit_12791.cif
_audit_creation_date              2012-12-11T17:41:45-0500
_audit_creation_method            fapswitch 2.2
_symmetry_space_group_name_H-M    P1
_symmetry_Int_Tables_number       1
_space_group_crystal_system       triclinic
_cell_length_a                    15.450603
_cell_length_b                    14.856453
_cell_length_c                    15.143587
_cell_angle_alpha                 109.664797
_cell_angle_beta                  121.23621
_cell_angle_gamma                 59.253546
_cell_volume                      2542.31101478

loop_
_atom_site_label
_atom_site_type_symbol
_atom_type_description
_atom_site_fract_x
_atom_site_fract_y
_atom_site_fract_z
_atom_type_partial_charge
C1    C     C_R   0.758467 0.991238 0.790135 -0.119973
C2    C     C_R   0.335586 0.387435 0.104344 -0.095235
C3    C     C_R   0.605571 0.720684 0.857672 -0.137382
C4    C     C_R   0.402887 0.280496 0.092107 -0.150454
C5    C     C_R   0.646174 0.783857 0.947372 0.123735
C6    C     C_R   0.356233 0.207073 0.045992 0.129229
C7    C     C_R   0.760898 0.744053 0.013790 -0.187921
C8    C     C_R   0.241332 0.242008 0.011618 -0.178074
C9    C     C_R   0.833443 0.643681 0.990218 -0.124244
C10   C     C_R   0.174758 0.348788 0.026485 -0.127547
C11   C     C_R   0.792330 0.582027 0.900452 -0.093474
C12   C     C_R   0.199818 0.058765 0.225094 -0.129424
C13   C     C_R   0.221829 0.421526 0.072625 -0.107134
C14   C     C_R   0.575544 0.922274 0.070514 -0.244900
C15   C     C_R   0.417061 0.065456 0.922559 -0.232590
C16   C     C_R   0.205000 0.279832 0.450611 -0.160463
C17   C     C_R   0.774316 0.711144 0.521976 -0.186585
C18   C     C_R   0.504465 0.023544 0.095097 0.065859
C19   C     C_R   0.489758 0.965387 0.898245 0.063239
C20   C     C_R   0.425053 0.096299 0.021441 0.004881
C21   C     C_R   0.569452 0.891662 0.971570 0.017023
C22   C     C_2   0.033552 0.360260 0.484908 0.593731
C23   C     C_R   0.145898 0.281668 0.496412 -0.060610
C24   C     C_2   0.869271 0.604474 0.400793 0.574251
C25   C     C_2   0.966493 0.415545 0.402110 -0.207337
C26   C     C_2   0.872341 0.514129 0.405452 -0.273141
C27   C     C_2   0.852786 0.115300 0.897259 -0.220685
C28   C     C_2   0.017766 0.044491 0.153539 -0.221258
C29   C     C_R   0.082187 0.727745 0.218722 -0.135044
C30   C     C_R   0.802976 0.114816 0.354098 -0.114916
C31   C     C_R   0.185559 0.661309 0.286813 -0.172364
C32   C     C_R   0.703511 0.202383 0.348344 -0.149834
C33   C     C_R   0.283772 0.635984 0.281078 0.101166
C34   C     C_R   0.806553 0.702330 0.447936 -0.024917
C35   C     C_R   0.704872 0.289178 0.423790 0.088343
C36   C     C_R   0.276531 0.679617 0.206976 -0.166946
C37   C     C_R   0.807716 0.286522 0.505019 -0.127697
C38   C     C_R   0.172860 0.745983 0.138984 -0.093893
C39   C     C_R   0.906928 0.198533 0.510649 -0.063598
C40   C     C_R   0.593408 0.217281 0.489177 -0.145191
C41   C     C_R   0.404098 0.769944 0.446028 -0.136354
C42   C     C_R   0.075744 0.769199 0.144239 -0.116718
C43   C     C_R   0.904608 0.112942 0.435100 -0.120522
C44   C     C_R   0.398201 0.461795 0.347284 -0.236394
C45   C     C_R   0.502148 0.299151 0.431549 0.059371
C46   C     C_R   0.594126 0.482115 0.421977 -0.247378
C47   C     C_R   0.501042 0.378742 0.393408 0.063179
C48   C     C_R   0.492447 0.571464 0.401237 0.060812
C49   C     C_R   0.599270 0.383581 0.414669 0.029010
C50   C     C_R   0.392577 0.557574 0.346029 0.020734
C51   C     C_2   0.866417 0.102626 0.987795 -0.108749
C52   C     C_2   0.961512 0.112019 0.082192 -0.113292
C53   C     C_R   0.404263 0.996546 0.716484 -0.151920
C54   C     C_R   0.593839 0.001635 0.280520 -0.165116
C55   C     C_R   0.409101 0.289535 0.412251 -0.108190
C56   C     C_R   0.494514 0.674264 0.451853 0.055286
C57   C     C_R   0.588890 0.692723 0.523080 -0.123201
C58   C     C_R   0.589817 0.923050 0.794059 -0.124394
C59   C     C_R   0.408074 0.071982 0.203386 -0.114788
C60   C     C_R   0.203852 0.188163 0.540801 -0.103209
C61   C     C_R   0.766751 0.802570 0.425322 -0.087264
C62   C     C_R   0.758661 0.084203 0.700143 -0.146572
C63   C     C_R   0.195554 0.970355 0.314930 -0.138626
C64   C     C_R   0.790361 0.067289 0.799649 0.146664
C65   C     C_R   0.134559 0.021716 0.225948 0.150784
C66   C     C_3   0.883942 0.608395 0.260718 -0.281348
C67   C     C_R   0.494791 0.952182 0.803676 0.055831
C68   C     C_3   0.065128 0.410267 0.655706 -0.289693
C69   C     C_R   0.502016 0.042126 0.191857 0.063115
C70   C     C_R   0.678526 0.620465 0.834279 -0.108965
H1    H     H_    0.773737 0.956202 0.851449 0.086666
H2    H     H_    0.490341 0.255385 0.114928 0.107332
H3    H     H_    0.794469 0.791279 0.082992 0.103071
H4    H     H_    0.203536 0.186627 0.973066 0.106658
H5    H     H_    0.921648 0.613864 0.041351 0.106866
H6    H     H_    0.086412 0.375367 0.000752 0.102809
H7    H     H_    0.632911 0.865332 0.127490 0.126079
H8    H     H_    0.359356 0.123392 0.866515 0.134254
H9    H     H_    0.819301 0.514832 0.432694 0.143894
H10   H     H_    0.992542 0.400255 0.342394 0.121529
H11   H     H_    0.995412 0.819121 0.090441 0.100038
H12   H     H_    0.175123 0.112765 0.174835 0.082221
H13   H     H_    0.981562 0.045158 0.439361 0.101427
H14   H     H_    0.178947 0.335101 0.400824 0.108454
H15   H     H_    0.804897 0.649478 0.566493 0.111560
H16   H     H_    0.006942 0.746217 0.223030 0.109391
H17   H     H_    0.801264 0.048475 0.295588 0.104071
H18   H     H_    0.188893 0.629024 0.343404 0.126784
H19   H     H_    0.625521 0.202538 0.285217 0.114653
H20   H     H_    0.350845 0.660469 0.200498 0.116324
H21   H     H_    0.811135 0.352070 0.564353 0.122929
H22   H     H_    0.167687 0.778654 0.081531 0.117217
H23   H     H_    0.981473 0.997366 0.151762 0.131513
H24   H     H_    0.985708 0.196787 0.573549 0.124830
H25   H     H_    0.321264 0.453587 0.313223 0.129790
H26   H     H_    0.669946 0.489302 0.446690 0.129298
H27   H     H_    0.680076 0.193188 0.511510 0.114827
H28   H     H_    0.316890 0.787440 0.404895 0.122504
H29   H     H_    0.317183 0.022475 0.695778 0.093092
H30   H     H_    0.679991 0.977405 0.299417 0.095349
H31   H     H_    0.323676 0.330823 0.359534 0.089462
H32   H     H_    0.672553 0.634043 0.555909 0.091941
H33   H     H_    0.675229 0.880301 0.846067 0.103422
H34   H     H_    0.898526 0.150605 0.895548 0.127830
H35   H     H_    0.321789 0.108441 0.149851 0.096808
H36   H     H_    0.174422 0.158605 0.571223 0.098279
H37   H     H_    0.781179 0.824703 0.374851 0.104240
H38   H     H_    0.772278 0.137523 0.679871 0.100299
H39   H     H_    0.162780 0.945535 0.346058 0.099394
H40   H     H_    0.996069 0.160376 0.083354 0.123819
H41   H     H_    0.821370 0.067253 0.990402 0.127283
H42   H     H_    0.804976 0.680892 0.237557 0.130708
H43   H     H_    0.867030 0.537482 0.219320 0.145956
H44   H     H_    0.938959 0.609846 0.235458 0.168503
H45   H     H_    0.848662 0.504455 0.882185 0.094371
H46   H     H_    0.076351 0.477068 0.652003 0.149110
H47   H     H_    0.147176 0.343848 0.690075 0.152783
H48   H     H_    0.024631 0.438325 0.708445 0.168888
H49   H     H_    0.169975 0.504334 0.082718 0.125365
H50   H     H_    0.646780 0.572565 0.764795 0.112324
H51   H     H_    0.371641 0.443903 0.137765 0.123438
H52   H     H_    0.517546 0.749012 0.805843 0.111789
N1    N     N_R   0.705410 0.966550 0.689210 -0.045526
N2    N     N_R   0.556610 0.796750 0.548620 -0.037161
N3    N     N_R   0.556610 0.951620 0.703500 -0.040686
N4    N     N_R   0.443390 0.048380 0.296500 -0.041117
N5    N     N_R   0.294590 0.131500 0.522480 -0.039390
N6    N     N_R   0.705410 0.868500 0.477520 -0.042756
N7    N     N_R   0.705410 0.023370 0.632390 -0.043397
N8    N     N_R   0.294590 0.976630 0.367610 -0.045236
N9    N     N_R   0.294590 0.033450 0.310790 -0.044497
N10   N     N_R   0.294590 0.188320 0.465660 -0.031746
N11   N     N_R   0.705410 0.811680 0.534340 -0.031486
N12   N     N_R   0.556610 0.157790 0.497330 -0.039722
N13   N     N_R   0.443390 0.842210 0.502670 -0.042988
N14   N     N_R   0.443390 0.997080 0.657540 -0.038214
N15   N     N_R   0.556610 0.002920 0.342460 -0.037361
N16   N     N_R   0.443390 0.203250 0.451380 -0.040071
Ni1   Ni    Ni4+2 0.629830 0.882720 0.617850 0.218767
Ni2   Ni    Ni4+2 0.370170 0.117280 0.382150 0.208778
Ni3   Ni    Ni4+2 0.629830 0.013030 0.487540 0.216422
Ni4   Ni    Ni4+2 0.370170 0.986970 0.512460 0.205184
O1    O     O_3   0.938837 0.604747 0.369224 -0.610135
O2    O     O_3   0.995900 0.377486 0.557474 -0.629823

loop_
_geom_bond_atom_site_label_1
_geom_bond_atom_site_label_2
_ccdc_geom_bond_type
C63   C65   A    
N4    N15   A    
C12   N9    A    
C38   H22   S    
C29   C42   A    
C25   H10   S    
C43   H13   S    
C14   C18   A    
N2    Ni1   S    
C41   N13   A    
C11   C70   A    
C47   C49   A    
N3    Ni1   S    
C59   N4    A    
C15   C19   A    
C57   H32   S    
C53   N14   A    
C46   C49   A    
N4    Ni2   S    
C1    H1    S    
C55   N16   A    
C17   H15   S    
C14   C21   A    
C19   C21   A    
C24   C26   D    
C38   C42   A    
C14   H7    S    
C54   N15   A    
C62   H38   S    
C24   O1    S    
C44   C50   A    
N1    Ni1   S    
C27   H34   S    
C16   H14   S    
C33   C36   A    
C56   C57   A    
C48   C56   S    
C63   N8    A    
C2    C13   A    
N5    N10   A    
N14   Ni4   S    
N9    Ni2   S    
C68   H48   S    
C10   H6    S    
N13   Ni4   S    
C70   H50   S    
C22   C25   D    
C35   C49   S    
C62   C64   A    
C31   C33   A    
C19   C67   S    
C11   H45   S    
N6    Ni3   S    
C44   C47   A    
C18   C69   S    
C48   C50   A    
N1    N7    A    
C62   N7    A    
C54   H30   S    
C40   C45   A    
C42   H11   S    
C53   C67   A    
C13   H49   S    
C27   C51   D    
C45   C47   S    
C23   C60   A    
C46   C48   A    
C37   H21   S    
C39   H24   S    
C51   C52   S    
C32   C35   A    
C3    C70   A    
C4    C6    A    
C40   H27   S    
C5    C7    A    
C39   C43   A    
C66   O1    S    
C25   C26   S    
C40   N12   A    
C34   C61   A    
C53   H29   S    
C28   H23   S    
N5    Ni4   S    
C63   H39   S    
C16   N10   A    
C2    C4    A    
C1    N1    A    
C41   C56   A    
C68   H47   S    
C66   H43   S    
C32   H19   S    
C52   H40   S    
C15   C20   A    
C7    H3    S    
C8    H4    S    
C12   H12   S    
C59   H35   S    
C9    C11   A    
C29   H16   S    
N16   Ni2   S    
C59   C69   A    
N3    N14   A    
C8    C10   A    
C46   H26   S    
C68   H46   S    
N11   Ni1   S    
C16   C23   A    
C17   N11   A    
C30   C43   A    
C17   C34   A    
C1    C64   A    
C4    H2    S    
C60   H36   S    
C2    H51   S    
C36   H20   S    
C7    C9    A    
N15   Ni3   S    
C51   H41   S    
C31   H18   S    
C66   H44   S    
N2    N13   A    
C35   C37   A    
C22   C23   S    
N8    Ni4   S    
C60   N5    A    
C3    C5    A    
C10   C13   A    
N12   N16   A    
C68   O2    S    
C6    C8    A    
C3    H52   S    
N10   Ni2   S    
C6    C20   S    
C12   C65   A    
C55   H31   S    
C26   H9    S    
C36   C38   A    
C28   C65   S    
C33   C50   S    
C29   C31   A    
C44   H25   S    
N6    N11   A    
N12   Ni3   S    
C30   C32   A    
C28   C52   D    
C54   C69   A    
N8    N9    A    
C61   N6    A    
C18   C20   A    
C61   H37   S    
C24   C34   S    
C27   C64   S    
C15   H8    S    
C58   C67   A    
N7    Ni3   S    
C45   C55   A    
C58   N3    A    
C37   C39   A    
C5    C21   S    
C22   O2    S    
C41   H28   S    
C58   H33   S    
C9    H5    S    
C66   H42   S    
C30   H17   S    
C57   N2    A    
