data_mof_unit_37162.cif
_audit_creation_date              2012-12-10T21:00:46-0500
_audit_creation_method            fapswitch 2.2
_symmetry_space_group_name_H-M    P1
_symmetry_Int_Tables_number       1
_space_group_crystal_system       triclinic
_cell_length_a                    18.149485
_cell_length_b                    18.21034
_cell_length_c                    18.288077
_cell_angle_alpha                 120.002493
_cell_angle_beta                  90.016173
_cell_angle_gamma                 120.005139
_cell_volume                      4272.91182773

loop_
_atom_site_label
_atom_site_type_symbol
_atom_type_description
_atom_site_fract_x
_atom_site_fract_y
_atom_site_fract_z
_atom_type_partial_charge
C1    C     C_R   0.109844 0.220022 0.609686 0.794089
C2    C     C_R   0.890145 0.779977 0.390312 0.794115
C3    C     C_3   0.927328 0.404184 0.443223 0.568484
C4    C     C_3   0.072674 0.595818 0.556777 0.568430
C5    C     C_3   0.444136 0.965028 0.924866 -0.188229
C6    C     C_3   0.555872 0.034966 0.075154 -0.188112
C7    C     C_3   0.548535 0.037413 0.956875 -0.157201
C8    C     C_3   0.451472 0.962580 0.043144 -0.157150
C9    C     C_3   0.549228 0.102487 0.052330 0.022775
C10   C     C_3   0.450778 0.897509 0.947689 0.022800
C11   C     C_3   0.445530 0.031582 0.021084 -0.101272
C12   C     C_3   0.554476 0.968411 0.978935 -0.101170
C13   C     C_3   0.412942 0.430649 0.447512 -0.131123
C14   C     C_3   0.587058 0.569351 0.552488 -0.131139
C15   C     C_3   0.482170 0.404824 0.447650 -0.167785
C16   C     C_3   0.517830 0.595176 0.552350 -0.167793
C17   C     C_3   0.551021 0.500349 0.449647 0.046730
C18   C     C_3   0.448979 0.499651 0.550354 0.046726
C19   C     C_3   0.482733 0.526240 0.448700 -0.178043
C20   C     C_3   0.517267 0.473760 0.551300 -0.178057
C21   C     C_R   0.087474 0.164691 0.839907 -0.107479
C22   C     C_R   0.912363 0.835142 0.160040 -0.107399
C23   C     C_R   0.392995 0.781162 0.888437 0.789976
C24   C     C_R   0.607006 0.218837 0.111569 0.789918
C25   C     C_R   0.082587 0.116875 0.749475 0.047335
C26   C     C_R   0.917256 0.882979 0.250474 0.047387
C27   C     C_R   0.018686 0.100301 0.687969 0.055229
C28   C     C_R   0.981248 0.899696 0.312014 0.055221
C29   C     C_R   0.961642 0.131491 0.718007 -0.120132
C30   C     C_R   0.038371 0.868622 0.282005 -0.120248
C31   C     C_R   0.967569 0.178837 0.807940 -0.105179
C32   C     C_R   0.032436 0.821255 0.192069 -0.105164
C33   C     C_R   0.030256 0.195271 0.868708 -0.158434
C34   C     C_R   0.969661 0.804681 0.131270 -0.158453
C35   C     C_R   0.958601 0.944110 0.536250 -0.253644
C36   C     C_R   0.041335 0.055889 0.463735 -0.253557
C37   C     C_R   0.947318 0.892276 0.444962 -0.045205
C38   C     C_R   0.052634 0.107723 0.555027 -0.045199
C39   C     C_R   0.989232 0.948730 0.408003 -0.037352
C40   C     C_R   0.010701 0.051268 0.591981 -0.037351
C41   C     C_R   0.694738 0.853662 0.046229 -0.062576
C42   C     C_R   0.305157 0.146047 0.953260 -0.062002
C43   C     C_R   0.655689 0.752550 0.021126 -0.097872
C44   C     C_R   0.344153 0.247156 0.978385 -0.098008
C45   C     C_R   0.110013 0.499853 0.888807 0.785392
C46   C     C_R   0.889988 0.500147 0.111194 0.785398
C47   C     C_R   0.571123 0.697856 0.028705 0.148350
C48   C     C_R   0.428898 0.302090 0.971214 0.147880
C49   C     C_R   0.526003 0.745550 0.061160 -0.115789
C50   C     C_R   0.474233 0.254615 0.939125 -0.115304
C51   C     C_R   0.565511 0.846886 0.086551 -0.130490
C52   C     C_R   0.434787 0.153291 0.913730 -0.130546
C53   C     C_R   0.650139 0.901161 0.079784 -0.093039
C54   C     C_R   0.349993 0.098790 0.920101 -0.093685
C55   C     C_R   0.584622 0.589352 0.061576 -0.237322
C56   C     C_R   0.415388 0.410623 0.938383 -0.237411
C57   C     C_R   0.550984 0.496092 0.051846 -0.050457
C58   C     C_R   0.449020 0.503887 0.948126 -0.050434
C59   C     C_R   0.465773 0.405107 0.989432 -0.015730
C60   C     C_R   0.534237 0.594858 0.010522 -0.015970
C61   C     C_R   0.093833 0.760354 0.919091 0.071002
C62   C     C_R   0.906158 0.239647 0.080909 0.071027
C63   C     C_R   0.085865 0.709934 0.960024 -0.120611
C64   C     C_R   0.914126 0.290073 0.039982 -0.120592
C65   C     C_R   0.016102 0.604329 0.916957 0.094945
C66   C     C_R   0.983901 0.395673 0.083044 0.094929
C67   C     C_R   0.392295 0.499910 0.607582 0.787346
C68   C     C_R   0.607705 0.500090 0.392418 0.787344
C69   C     C_R   0.953201 0.549490 0.833504 -0.152309
C70   C     C_R   0.046811 0.450501 0.166487 -0.152302
C71   C     C_R   0.960302 0.599619 0.793135 -0.136646
C72   C     C_R   0.039708 0.400367 0.206851 -0.136667
C73   C     C_R   0.030344 0.704419 0.835495 -0.159615
C74   C     C_R   0.969656 0.295572 0.164496 -0.159641
C75   C     C_R   0.956957 0.549124 0.013562 -0.269957
C76   C     C_R   0.043050 0.450884 0.986445 -0.269995
C77   C     C_R   0.946752 0.499177 0.054956 -0.045933
C78   C     C_R   0.053252 0.500828 0.945048 -0.045942
C79   C     C_R   0.990304 0.449174 0.041090 -0.000251
C80   C     C_R   0.009701 0.550832 0.958914 -0.000249
C81   C     C_R   0.393782 0.501939 0.890566 0.791634
C82   C     C_R   0.606218 0.498062 0.109434 0.791551
C83   C     C_R   0.109215 0.500189 0.607614 0.892163
C84   C     C_R   0.890785 0.499811 0.392386 0.892190
C85   C     C_3   0.024670 0.437820 0.447554 -0.270702
C86   C     C_3   0.975332 0.562182 0.552446 -0.270721
C87   C     C_3   0.046025 0.535290 0.454000 -0.315573
C88   C     C_3   0.953977 0.464711 0.546000 -0.315577
C89   C     C_3   0.948291 0.499988 0.449449 -0.141053
C90   C     C_3   0.051710 0.500014 0.550551 -0.141043
H1    H     H_    0.083624 0.565844 0.416961 0.177643
H2    H     H_    0.916377 0.434156 0.583038 0.177605
H3    H     H_    0.034699 0.232019 0.938403 0.135136
H4    H     H_    0.965213 0.767917 0.061573 0.135121
H5    H     H_    0.135806 0.178799 0.888570 0.154440
H6    H     H_    0.863962 0.820924 0.111352 0.154524
H7    H     H_    0.912797 0.119456 0.671599 0.125882
H8    H     H_    0.087282 0.880761 0.328437 0.125937
H9    H     H_    0.923589 0.203001 0.830605 0.133157
H10   H     H_    0.076477 0.797179 0.169427 0.133177
H11   H     H_    0.926018 0.901212 0.564750 0.178197
H12   H     H_    0.073917 0.098786 0.435234 0.178215
H13   H     H_    0.681519 0.980205 0.100897 0.141089
H14   H     H_    0.318662 0.019753 0.898981 0.141165
H15   H     H_    0.760228 0.895786 0.041009 0.125219
H16   H     H_    0.239531 0.103738 0.958154 0.125405
H17   H     H_    0.691843 0.717367 0.997030 0.114978
H18   H     H_    0.307819 0.282147 0.002176 0.115097
H19   H     H_    0.461428 0.705224 0.068740 0.101145
H20   H     H_    0.538948 0.295111 0.931848 0.100940
H21   H     H_    0.044357 0.385949 0.404608 0.186869
H22   H     H_    0.955644 0.614052 0.595391 0.186843
H23   H     H_    0.531029 0.883754 0.112674 0.126512
H24   H     H_    0.469455 0.116614 0.887912 0.126475
H25   H     H_    0.649497 0.659402 0.111438 0.189379
H26   H     H_    0.350519 0.340575 0.888507 0.189154
H27   H     H_    0.034967 0.741823 0.802954 0.151541
H28   H     H_    0.965032 0.258164 0.197032 0.151573
H29   H     H_    0.134345 0.751826 0.024477 0.153537
H30   H     H_    0.865640 0.248189 0.975536 0.153544
H31   H     H_    0.899067 0.468024 0.799726 0.129089
H32   H     H_    0.100954 0.531962 0.200259 0.129114
H33   H     H_    0.911513 0.557194 0.728825 0.138255
H34   H     H_    0.088503 0.442786 0.271154 0.138272
H35   H     H_    0.922929 0.586434 0.022932 0.174750
H36   H     H_    0.077079 0.413576 0.977076 0.174761
H37   H     H_    0.588964 0.069339 0.921865 0.153433
H38   H     H_    0.411045 0.930652 0.078154 0.153410
H39   H     H_    0.397778 0.934329 0.861900 0.173391
H40   H     H_    0.602237 0.065653 0.138112 0.173353
H41   H     H_    0.401321 0.058636 0.039784 0.179827
H42   H     H_    0.598683 0.941353 0.960232 0.179771
H43   H     H_    0.468613 0.326833 0.403693 0.147670
H44   H     H_    0.531388 0.673167 0.596307 0.147674
H45   H     H_    0.340612 0.373693 0.405237 0.152225
H46   H     H_    0.659388 0.626307 0.594763 0.152214
H47   H     H_    0.469631 0.547735 0.405606 0.140279
H48   H     H_    0.530369 0.452265 0.594395 0.140266
O1    O     O_3   0.251620 0.500000 0.748430 -0.494154
O2    O     O_3   0.748380 0.500000 0.251570 -0.494156
O3    O     O_R   0.134680 0.560740 0.864590 -0.638456
O4    O     O_R   0.865320 0.439260 0.135410 -0.638461
O5    O     O_R   0.306670 0.439270 0.571150 -0.646940
O6    O     O_R   0.693330 0.560730 0.428850 -0.646946
O7    O     O_R   0.135450 0.268370 0.694460 -0.641156
O8    O     O_R   0.864550 0.731630 0.305540 -0.641164
O9    O     O_R   0.429670 0.731610 0.863510 -0.642322
O10   O     O_R   0.570330 0.268390 0.136490 -0.642304
O11   O     O_R   0.134680 0.268390 0.572240 -0.645784
O12   O     O_R   0.865320 0.731610 0.427760 -0.645781
O13   O     O_R   0.306670 0.731630 0.863510 -0.610079
O14   O     O_R   0.693330 0.268370 0.136490 -0.610074
O15   O     O_R   0.135450 0.439270 0.865360 -0.644317
O16   O     O_R   0.864550 0.560730 0.134640 -0.644312
O17   O     O_R   0.429670 0.560710 0.692610 -0.637970
O18   O     O_R   0.570330 0.439290 0.307390 -0.637950
O19   O     O_R   0.308540 0.439240 0.865360 -0.649596
O20   O     O_R   0.691460 0.560760 0.134640 -0.649603
O21   O     O_R   0.133580 0.439310 0.571150 -0.644157
O22   O     O_R   0.866420 0.560690 0.428850 -0.644156
O23   O     O_R   0.430770 0.560690 0.864590 -0.640171
O24   O     O_R   0.569230 0.439310 0.135410 -0.640125
O25   O     O_R   0.133580 0.560760 0.692610 -0.598367
O26   O     O_R   0.866420 0.439240 0.307390 -0.598383
Zn1   Zn    Zn3+2 0.207400 0.586780 0.791530 1.024899
Zn2   Zn    Zn3+2 0.792600 0.413220 0.208470 1.024891
Zn3   Zn    Zn3+2 0.208510 0.413230 0.792630 0.962346
Zn4   Zn    Zn3+2 0.791490 0.586770 0.207370 0.962350
Zn5   Zn    Zn3+2 0.383150 0.586740 0.791530 0.978961
Zn6   Zn    Zn3+2 0.616850 0.413260 0.208470 0.978978
Zn7   Zn    Zn3+2 0.207400 0.413250 0.618010 0.983714
Zn8   Zn    Zn3+2 0.792600 0.586750 0.381990 0.983717
C91   C     C_2   0.144912 0.086303 0.720372 0.363598
H49   H     H_    0.143133 0.051310 0.651334 0.088435
O27   O     O_2   0.199415 0.099963 0.773324 -0.587171
C92   C     C_2   0.854844 0.913421 0.279542 0.363698
H50   H     H_    0.856666 0.948484 0.348594 0.088345
O28   O     O_2   0.800218 0.899567 0.226543 -0.586989
C93   C     C_2   0.168121 0.870775 0.962251 0.382001
H51   H     H_    0.173327 0.907987 0.929218 0.064683
O29   O     O_2   0.224376 0.921496 0.034950 -0.602966
C94   C     C_2   0.831863 0.129228 0.037749 0.381951
H52   H     H_    0.826666 0.092005 0.070769 0.064702
O30   O     O_2   0.775590 0.078521 0.965065 -0.602993
S1    S     S_3+6 0.829349 0.274877 0.366947 -0.003252
O31   O     O_2   0.746628 0.271672 0.381623 -0.329103
O32   O     O_2   0.825311 0.240555 0.272426 -0.337117
O33   O     O_3   0.834592 0.195477 0.385052 -0.556524
H53   H     H_    0.781749 0.124744 0.337193 0.388878
S2    S     S_3+6 0.170648 0.725127 0.633059 -0.003204
O34   O     O_2   0.174669 0.759433 0.727576 -0.337442
O35   O     O_2   0.253380 0.728351 0.618399 -0.328747
O36   O     O_3   0.165403 0.804527 0.614955 -0.556410
H54   H     H_    0.217927 0.875332 0.663167 0.388917

loop_
_geom_bond_atom_site_label_1
_geom_bond_atom_site_label_2
_ccdc_geom_bond_type
C2    O12   A    
C38   C40   A    
C63   C65   A    
O2    Zn4   S    
S2    O34   D    
C87   H1    S    
C3    C85   S    
C76   H36   S    
C1    O7    A    
C76   C79   A    
C35   H11   S    
C6    H40   S    
C16   H44   S    
O19   Zn3   S    
C6    C9    S    
C84   O22   A    
O20   Zn4   S    
O26   Zn2   S    
C47   C49   A    
C4    C87   S    
C91   H49   S    
C66   C79   S    
O1    Zn1   S    
C51   H23   S    
C41   H15   S    
C13   C18   S    
C54   H14   S    
O25   Zn1   S    
C76   C78   A    
C5    C11   S    
C16   C19   S    
C6    C12   S    
C82   O20   A    
C86   C88   S    
O6    Zn8   S    
S1    O32   D    
C27   C29   A    
C58   C60   A    
C57   C82   S    
C50   H20   S    
C36   H12   S    
C20   H48   S    
C2    O8    A    
C69   C71   A    
O17   Zn5   S    
C94   H52   S    
C62   C64   A    
C24   O14   A    
S2    O36   S    
C47   C60   S    
C8    H38   S    
O21   Zn7   S    
O12   Zn8   S    
C88   H2    S    
C28   C30   A    
C49   C51   A    
O10   Zn6   S    
C31   C33   A    
O1    Zn7   S    
C45   C78   S    
C26   C92   S    
C75   C80   A    
C18   C20   S    
C84   O26   A    
O23   Zn5   S    
C44   H18   S    
C67   O5    A    
O2    Zn8   S    
C65   C80   S    
C55   C60   A    
C72   H34   S    
C45   O3    A    
C41   C43   A    
C14   C17   S    
O16   Zn4   S    
C15   C20   S    
O1    Zn5   S    
C42   C44   A    
C74   H28   S    
C3    S1    S    
O2    Zn6   S    
C52   C54   A    
C4    C90   S    
C91   O27   D    
O2    Zn2   S    
C7    C12   S    
C22   C34   A    
C73   H27   S    
C13   C19   S    
C85   C87   S    
C4    S2    S    
C81   O19   A    
C46   O4    A    
C21   C25   A    
C13   H45   S    
C58   C81   S    
C5    C7    S    
S1    O33   S    
C6    C8    S    
C82   O24   A    
C28   C39   S    
C61   C73   A    
C18   C67   S    
O13   Zn1   S    
C23   O9    A    
C70   C72   A    
C32   H10   S    
C33   H3    S    
O33   H53   S    
C51   C53   A    
C64   C66   A    
C86   H22   S    
C14   C20   S    
O4    Zn2   S    
C63   H29   S    
C70   H32   S    
C50   C52   A    
O24   Zn6   S    
C69   H31   S    
C27   C40   S    
C19   H47   S    
C61   C63   A    
C56   H26   S    
C77   C79   A    
C83   O21   A    
C16   C18   S    
C43   H17   S    
C1    O11   A    
C9    C11   S    
C41   C53   A    
C10   C12   S    
O18   Zn6   S    
C1    C38   S    
C46   O16   A    
C72   C74   A    
C92   H50   S    
C88   C90   S    
C61   C93   S    
C31   H9    S    
C55   C57   A    
C24   O10   A    
C14   C16   S    
C5    H39   S    
O8    Zn4   S    
C45   O15   A    
C84   C89   S    
C36   C38   A    
C4    C86   S    
C48   C59   S    
C49   H19   S    
O7    Zn3   S    
C71   H33   S    
C7    C9    S    
C83   C90   S    
C83   O25   A    
C17   C68   S    
S2    O35   D    
C12   H42   S    
C35   C37   A    
C3    C88   S    
O11   Zn7   S    
C22   H6    S    
C62   C94   S    
C36   C39   A    
C34   H4    S    
C68   O18   A    
C86   C89   S    
C11   H41   S    
C46   C77   S    
O14   Zn2   S    
C85   C90   S    
C9    C24   S    
C15   C17   S    
C15   H43   S    
C67   O17   A    
C52   H24   S    
C10   C23   S    
C25   C27   A    
C21   H5    S    
C30   H8    S    
C26   C28   A    
C64   H30   S    
C56   C59   A    
C29   H7    S    
C3    C89   S    
C7    H37   S    
O3    Zn1   S    
C13   C15   S    
C35   C40   A    
O5    Zn7   S    
C5    C10   S    
C29   C31   A    
C44   C48   A    
C42   C54   A    
C30   C32   A    
C55   H25   S    
C2    C37   S    
S1    O31   D    
C66   C70   A    
C14   H46   S    
C53   H13   S    
C8    C11   S    
C65   C69   A    
C48   C50   A    
C17   C19   S    
C56   C58   A    
C68   O6    A    
C78   C80   A    
C94   O30   D    
C57   C59   A    
C23   O13   A    
C93   H51   S    
C42   H16   S    
C25   C91   S    
C37   C39   A    
C21   C33   A    
O1    Zn3   S    
C8    C10   S    
O36   H54   S    
C22   C26   A    
C75   C77   A    
C71   C73   A    
C87   C89   S    
O22   Zn8   S    
C62   C74   A    
C81   O23   A    
C75   H35   S    
C43   C47   A    
O15   Zn3   S    
O9    Zn5   S    
C85   H21   S    
C32   C34   A    
C92   O28   D    
C93   O29   D    
