data_mof_unit_43950.cif
_audit_creation_date              2012-12-10T16:52:59-0500
_audit_creation_method            fapswitch 2.2
_symmetry_space_group_name_H-M    P1
_symmetry_Int_Tables_number       1
_space_group_crystal_system       triclinic
_cell_length_a                    7.812095
_cell_length_b                    8.705654
_cell_length_c                    11.52277
_cell_angle_alpha                 92.142796
_cell_angle_beta                  84.6399
_cell_angle_gamma                 93.336588
_cell_volume                      778.504694005

loop_
_atom_site_label
_atom_site_type_symbol
_atom_type_description
_atom_site_fract_x
_atom_site_fract_y
_atom_site_fract_z
_atom_type_partial_charge
C1    C     C_R   0.545353 0.794498 0.500896 0.847526
C2    C     C_2   0.430474 0.045228 0.523217 0.202274
C3    C     C_3   0.855234 0.991506 0.435052 -0.161627
C4    C     C_3   0.187173 0.010752 0.646588 -0.250814
C5    C     C_3   0.958871 0.335570 0.296040 -0.187563
C6    C     C_3   0.020614 0.641819 0.710716 -0.143231
C7    C     C_R   0.455210 0.206731 0.509652 0.851951
C8    C     C_R   0.500265 0.500544 0.717937 0.868918
C9    C     C_R   0.499745 0.499499 0.282069 0.876691
C10   C     C_1   0.500515 0.500399 0.838384 -0.200912
C11   C     C_1   0.499509 0.499582 0.161605 -0.198928
C12   C     C_1   0.500281 0.500149 0.940634 -0.020784
C13   C     C_1   0.499767 0.499797 0.059348 -0.019218
C14   C     C_2   0.570649 0.958003 0.512186 0.177478
H1    H     H_    0.799118 0.992491 0.349657 0.084536
H2    H     H_    0.147699 0.703789 0.714076 0.167866
H3    H     H_    0.022541 0.521532 0.740155 0.146117
H4    H     H_    0.928293 0.702339 0.772899 0.129267
H5    H     H_    0.918147 0.882481 0.444668 0.224307
H6    H     H_    0.960787 0.081328 0.435261 0.242117
H7    H     H_    0.173558 0.135153 0.667765 0.170012
H8    H     H_    0.262457 0.960335 0.711739 0.118661
H9    H     H_    0.055222 0.955962 0.654639 0.225006
H10   H     H_    0.951239 0.447512 0.253838 0.163847
H11   H     H_    0.831579 0.272993 0.310565 0.178104
H12   H     H_    0.040221 0.263005 0.234809 0.130573
N1    N     N_2   0.950330 0.457960 0.469510 0.195678
N2    N     N_2   0.049670 0.542040 0.530490 0.197720
O1    O     O_R   0.389250 0.738570 0.507480 -0.577518
O2    O     O_3   0.261705 0.983793 0.531630 -0.599603
O3    O     O_3   0.037623 0.355629 0.400183 -0.527258
O4    O     O_3   0.964977 0.646861 0.598816 -0.521186
O5    O     O_R   0.610750 0.261430 0.492520 -0.598175
O6    O     O_R   0.678390 0.711630 0.487940 -0.590108
O7    O     O_R   0.321610 0.288370 0.512060 -0.572283
O8    O     O_R   0.355420 0.513450 0.675320 -0.666466
O9    O     O_R   0.644580 0.486550 0.324680 -0.664826
O10   O     O_R   0.644570 0.486510 0.655780 -0.577542
O11   O     O_R   0.355430 0.513490 0.344220 -0.574122
O12   O     O_3   0.734456 0.021485 0.531324 -0.610653
Zn1   Zn    Zn3+2 0.306940 0.517990 0.513050 1.037885
Zn2   Zn    Zn3+2 0.693060 0.482010 0.486950 1.026285

loop_
_geom_bond_atom_site_label_1
_geom_bond_atom_site_label_2
_ccdc_geom_bond_type
C3    O12   S    
C6    O4    S    
C3    H5    S    
C6    H2    S    
C11   C13   T    
C2    C7    S    
O6    Zn2   S    
N2    O4    S    
C2    O2    S    
N1    N2    D    
C9    O9    A    
C4    H8    S    
C3    H6    S    
O11   Zn1   S    
C4    H7    S    
C9    C11   S    
N1    Zn2   S    
O8    Zn1   S    
C5    H10   S    
C10   C12   T    
C2    C14   D    
O5    Zn2   S    
C1    O1    A    
C1    O6    A    
O10   Zn2   S    
C8    O10   A    
N1    O3    S    
C6    H4    S    
C5    H11   S    
C7    O5    A    
C14   O12   S    
C5    H12   S    
N2    Zn1   S    
C9    O11   A    
C3    H1    S    
C12   C13   S    
C8    C10   S    
C8    O8    A    
O9    Zn2   S    
C6    H3    S    
C4    H9    S    
C1    C14   S    
O1    Zn1   S    
O7    Zn1   S    
C7    O7    A    
C4    O2    S    
C5    O3    S    
