data_mof_unit_26037.cif
_audit_creation_date              2012-12-10T18:49:19-0500
_audit_creation_method            fapswitch 2.2
_symmetry_space_group_name_H-M    P1
_symmetry_Int_Tables_number       1
_space_group_crystal_system       triclinic
_cell_length_a                    9.905741
_cell_length_b                    10.708767
_cell_length_c                    13.6768
_cell_angle_alpha                 91.877915
_cell_angle_beta                  84.544406
_cell_angle_gamma                 90.843599
_cell_volume                      1443.36549795

loop_
_atom_site_label
_atom_site_type_symbol
_atom_type_description
_atom_site_fract_x
_atom_site_fract_y
_atom_site_fract_z
_atom_type_partial_charge
C1    C     C_R   0.500687 0.739917 0.499795 0.856280
C2    C     C_R   0.499308 0.260086 0.500225 0.856367
C3    C     C_R   0.498953 0.127558 0.500749 -0.006814
C4    C     C_R   0.501020 0.872450 0.499323 -0.006703
C5    C     C_R   0.477414 0.501803 0.685144 0.908946
C6    C     C_R   0.522433 0.497641 0.314846 0.909396
C7    C     C_R   0.933328 0.424533 0.436171 -0.127916
C8    C     C_R   0.066737 0.575759 0.563592 -0.126536
C9    C     C_R   0.076677 0.424140 0.434743 0.169232
C10   C     C_R   0.923367 0.576149 0.565068 0.169771
C11   C     C_1   0.534931 0.481737 0.212485 -0.220276
C12   C     C_1   0.462898 0.509146 0.787857 -0.220927
C13   C     C_2   0.535507 0.452148 0.023016 0.091921
C14   C     C_2   0.444809 0.519059 0.978870 0.093912
C15   C     C_1   0.452119 0.515125 0.874914 -0.041367
C16   C     C_1   0.538899 0.466451 0.126034 -0.047084
C17   C     C_R   0.616168 0.938701 0.523450 -0.204433
C18   C     C_R   0.383793 0.061310 0.476641 -0.204696
C19   C     C_R   0.615095 0.066667 0.524296 -0.191671
C20   C     C_R   0.384864 0.933344 0.475803 -0.191399
H1    H     H_    0.882376 0.363612 0.386297 0.143361
H2    H     H_    0.117844 0.637044 0.613112 0.142543
H3    H     H_    0.706001 0.892106 0.542450 0.146791
H4    H     H_    0.293958 0.107906 0.457633 0.146868
H5    H     H_    0.704543 0.117572 0.543817 0.156223
H6    H     H_    0.295411 0.882441 0.456291 0.156360
N1    N     N_R   0.142790 0.500030 0.500020 -0.105826
N2    N     N_R   0.857210 0.499970 0.499980 -0.106132
O1    O     O_R   0.385380 0.683250 0.500010 -0.623920
O2    O     O_R   0.614620 0.316750 0.499990 -0.623722
O3    O     O_R   0.614710 0.683220 0.500000 -0.645798
O4    O     O_R   0.385290 0.316780 0.500000 -0.645699
O5    O     O_R   0.368830 0.499990 0.640350 -0.608731
O6    O     O_R   0.631170 0.500010 0.359650 -0.607560
O7    O     O_R   0.598160 0.499960 0.640350 -0.623383
O8    O     O_R   0.401840 0.500040 0.359650 -0.624824
Zn1   Zn    Zn3+2 0.346870 0.500020 0.500000 0.928072
Zn2   Zn    Zn3+2 0.653130 0.499980 0.500000 0.928949
C21   C     C_3   0.150029 0.333769 0.361665 -0.413725
C22   C     C_3   0.142889 0.371574 0.254997 -0.356816
C23   C     C_3   0.216586 0.276761 0.183768 -0.872948
H7    H     H_    0.325172 0.271998 0.197224 0.263377
H8    H     H_    0.169217 0.182677 0.192819 0.256712
H9    H     H_    0.210401 0.304346 0.106981 0.247936
H10   H     H_    0.035669 0.376472 0.237970 0.215232
H11   H     H_    0.190797 0.465163 0.243958 0.242394
H12   H     H_    0.256533 0.324724 0.373485 0.264722
H13   H     H_    0.103762 0.239263 0.371983 0.168082
C24   C     C_3   0.850160 0.667307 0.637620 -0.410435
C25   C     C_3   0.860655 0.632646 0.744661 -0.362797
C26   C     C_3   0.787132 0.728142 0.815422 -0.883842
H14   H     H_    0.827819 0.823670 0.800937 0.260533
H15   H     H_    0.676687 0.725905 0.806944 0.264721
H16   H     H_    0.802351 0.706756 0.892366 0.243611
H17   H     H_    0.814672 0.538635 0.757663 0.246482
H18   H     H_    0.968548 0.630032 0.760381 0.215745
H19   H     H_    0.894937 0.762003 0.625248 0.167791
H20   H     H_    0.743007 0.674539 0.627123 0.265412
C27   C     C_3   0.340310 0.606532 0.032671 -0.410269
C28   C     C_3   0.196482 0.576548 0.004378 -0.338677
C29   C     C_3   0.090555 0.656881 0.064249 -0.892593
H21   H     H_    0.090024 0.638651 0.143761 0.258106
H22   H     H_    0.112349 0.757517 0.052107 0.264180
H23   H     H_    0.988453 0.633849 0.041007 0.247877
H24   H     H_    0.190823 0.593803 0.925159 0.227400
H25   H     H_    0.171357 0.476734 0.016861 0.221783
H26   H     H_    0.338985 0.602661 0.113681 0.210900
H27   H     H_    0.367828 0.704012 0.012534 0.197167
C30   C     C_3   0.635745 0.360709 0.969708 -0.405542
C31   C     C_3   0.782341 0.407550 0.973716 -0.340892
C32   C     C_3   0.882865 0.320845 0.914850 -0.895129
H28   H     H_    0.875521 0.225614 0.944898 0.264739
H29   H     H_    0.862234 0.315723 0.836375 0.260360
H30   H     H_    0.987627 0.357402 0.919461 0.248212
H31   H     H_    0.793351 0.502131 0.943263 0.227444
H32   H     H_    0.807749 0.413580 0.051204 0.228507
H33   H     H_    0.623352 0.269187 0.005868 0.196865
H34   H     H_    0.616165 0.342743 0.891920 0.207803

loop_
_geom_bond_atom_site_label_1
_geom_bond_atom_site_label_2
_ccdc_geom_bond_type
C32   H30   S    
C8    H2    S    
O3    Zn2   S    
C3    C19   A    
C31   C32   S    
C24   H20   S    
C13   C14   D    
C27   H27   S    
C29   H23   S    
C23   H7    S    
C26   H15   S    
C9    C21   S    
C30   H33   S    
C25   H17   S    
C12   C15   T    
N2    Zn2   S    
C2    O2    A    
C1    C4    S    
C26   H16   S    
C1    O1    A    
C25   C26   S    
C28   H25   S    
C27   C28   S    
C7    H1    S    
O4    Zn1   S    
C22   H11   S    
C14   C27   S    
C23   H8    S    
O2    Zn2   S    
C30   H34   S    
C17   H3    S    
C20   H6    S    
N1    Zn1   S    
C18   H4    S    
C4    C17   A    
C5    O7    A    
C8    C10   A    
C22   C23   S    
C17   C19   A    
C6    O8    A    
C28   H24   S    
C2    C3    S    
C18   C20   A    
C30   C31   S    
C31   H32   S    
C29   H21   S    
C19   H5    S    
C23   H9    S    
C25   H18   S    
C11   C16   T    
C5    C12   S    
C10   C24   S    
C21   C22   S    
O1    Zn1   S    
C26   H14   S    
C4    C20   A    
C32   H29   S    
C1    O3    A    
O7    Zn2   S    
C32   H28   S    
C22   H10   S    
C9    N1    A    
C3    C18   A    
C2    O4    A    
C24   C25   S    
C24   H19   S    
C13   C16   S    
C10   N2    A    
C6    C11   S    
C7    C9    A    
C13   C30   S    
C14   C15   S    
O8    Zn1   S    
C31   H31   S    
C27   H26   S    
C8    N1    A    
O6    Zn2   S    
C21   H12   S    
C29   H22   S    
O5    Zn1   S    
C7    N2    A    
C6    O6    A    
C28   C29   S    
C21   H13   S    
C5    O5    A    
