data_mof_unit_60890.cif
_audit_creation_date              2012-12-10T18:24:12-0500
_audit_creation_method            fapswitch 2.2
_symmetry_space_group_name_H-M    P1
_symmetry_Int_Tables_number       1
_space_group_crystal_system       triclinic
_cell_length_a                    16.088888
_cell_length_b                    16.108287
_cell_length_c                    16.0845
_cell_angle_alpha                 95.878438
_cell_angle_beta                  84.45266
_cell_angle_gamma                 90.147912
_cell_volume                      4127.0769706

loop_
_atom_site_label
_atom_site_type_symbol
_atom_type_description
_atom_site_fract_x
_atom_site_fract_y
_atom_site_fract_z
_atom_type_partial_charge
C1    C     C_R   0.510737 0.724244 0.510784 0.509105
C2    C     C_1   0.485096 0.186501 0.484586 -0.009361
C3    C     C_1   0.515639 0.482536 0.184578 -0.020604
C4    C     C_R   0.489295 0.275745 0.489239 0.512237
C5    C     C_2   0.526360 0.469546 0.017428 0.277869
C6    C     C_2   0.480689 0.522539 0.980963 -0.072011
C7    C     C_1   0.482921 0.519567 0.890751 0.012180
C8    C     C_1   0.520231 0.477046 0.108926 -0.081735
C9    C     C_1   0.485434 0.516407 0.815320 0.031292
C10   C     C_R   0.510636 0.488236 0.274542 0.510097
C11   C     C_R   0.489299 0.511797 0.725452 0.505482
C12   C     C_1   0.111136 0.520560 0.520452 -0.040726
C13   C     C_R   0.724313 0.488139 0.488187 0.505981
C14   C     C_R   0.275684 0.511840 0.511801 0.508316
C15   C     C_1   0.813728 0.483335 0.483427 0.019542
C16   C     C_2   0.978664 0.474318 0.474508 -0.118839
C17   C     C_2   0.021332 0.525489 0.525337 -0.118379
C18   C     C_3   0.381057 0.023769 0.373082 -0.000719
C19   C     C_3   0.328708 0.967630 0.317138 -0.362515
C20   C     C_1   0.576236 0.020457 0.580527 0.168282
C21   C     C_3   0.621121 0.358312 0.012048 -0.002783
C22   C     C_3   0.673695 0.296466 0.951103 -0.355301
C23   C     C_1   0.888860 0.479269 0.479405 -0.039747
C24   C     C_1   0.186269 0.516546 0.516472 0.017742
C25   C     C_1   0.515049 0.813490 0.515173 0.028617
C26   C     C_2   0.522161 0.978401 0.522997 0.016948
C27   C     C_2   0.476344 0.020405 0.474598 0.259990
C28   C     C_1   0.481265 0.111464 0.480236 -0.068079
C29   C     C_1   0.518457 0.888521 0.518839 0.010427
H1    H     H_    0.988981 0.571591 0.571118 0.140027
H2    H     H_    0.663833 0.395664 0.051475 0.138469
H3    H     H_    0.718826 0.330386 0.910397 0.170242
H4    H     H_    0.708811 0.254990 0.986566 0.099416
H5    H     H_    0.632836 0.257685 0.911095 0.174547
H6    H     H_    0.011011 0.428215 0.428725 0.138535
H7    H     H_    0.440769 0.569143 0.018915 0.079817
H8    H     H_    0.424644 0.059282 0.332054 0.139794
H9    H     H_    0.338122 0.067493 0.414838 0.142011
H10   H     H_    0.284003 0.931623 0.356208 0.166323
H11   H     H_    0.293122 0.006136 0.279139 0.101241
H12   H     H_    0.369776 0.923482 0.274151 0.165082
H13   H     H_    0.577112 0.322319 0.052185 0.137624
N1    N     N_1   0.619454 0.054085 0.626513 -0.279780
O1    O     O_3   0.500000 0.500000 0.500000 -0.440652
O2    O     O_R   0.689040 0.536050 0.444000 -0.536178
O3    O     O_R   0.315570 0.560650 0.560630 -0.532737
O4    O     O_R   0.679800 0.444450 0.536560 -0.532123
O5    O     O_R   0.315590 0.458850 0.458810 -0.536748
O6    O     O_3   0.425899 0.973926 0.420969 -0.553033
O7    O     O_3   0.576883 0.410561 0.966046 -0.538948
O8    O     O_R   0.458170 0.444480 0.314880 -0.536429
O9    O     O_R   0.445130 0.560630 0.690220 -0.539883
O10   O     O_R   0.559450 0.679320 0.457680 -0.533237
O11   O     O_R   0.537250 0.315570 0.537220 -0.523894
O12   O     O_R   0.458120 0.689530 0.559970 -0.533473
O13   O     O_R   0.445170 0.315580 0.445130 -0.543363
O14   O     O_R   0.559480 0.536070 0.314410 -0.532539
O15   O     O_R   0.537220 0.458810 0.680490 -0.524447
Zn1   Zn    Zn3+2 0.430930 0.430930 0.430910 0.944993
Zn2   Zn    Zn3+2 0.575680 0.561790 0.430230 0.954266
Zn3   Zn    Zn3+2 0.562480 0.430910 0.562480 0.965906
Zn4   Zn    Zn3+2 0.430910 0.576380 0.576380 0.955862

loop_
_geom_bond_atom_site_label_1
_geom_bond_atom_site_label_2
_ccdc_geom_bond_type
C12   C17   S    
O4    Zn3   S    
C5    C8    S    
C2    C4    S    
O2    Zn2   S    
C6    C7    S    
O11   Zn3   S    
O1    Zn3   S    
C11   O15   A    
C9    C11   S    
C12   C24   T    
O13   Zn1   S    
O1    Zn4   S    
C20   N1    T    
O15   Zn3   S    
C15   C23   T    
C1    O12   A    
C14   O3    A    
C3    C10   S    
O9    Zn4   S    
C21   C22   S    
C4    O13   A    
C2    C28   T    
C1    C25   S    
C17   H1    S    
C21   H2    S    
C26   C27   D    
C22   H3    S    
O3    Zn4   S    
C10   O8    A    
C19   H10   S    
C21   O7    S    
C18   H8    S    
C6    H7    S    
C3    C8    T    
C16   C23   S    
C13   C15   S    
C16   H6    S    
C25   C29   T    
C5    C6    D    
C22   H5    S    
C5    O7    S    
O1    Zn2   S    
O8    Zn1   S    
C19   H11   S    
O1    Zn1   S    
C21   H13   S    
O12   Zn4   S    
C19   H12   S    
C10   O14   A    
C13   O2    A    
O5    Zn1   S    
C7    C9    T    
C18   C19   S    
C14   C24   S    
C27   C28   S    
C13   O4    A    
C22   H4    S    
C1    O10   A    
C26   C29   S    
O14   Zn2   S    
C14   O5    A    
C11   O9    A    
C4    O11   A    
C18   H9    S    
O10   Zn2   S    
C27   O6    S    
C18   O6    S    
C16   C17   D    
C20   C26   S    
