data_mof_unit_21276.cif
_audit_creation_date              2013-03-05T16:01:10-0500
_audit_creation_method            fapswitch 2.2
_symmetry_space_group_name_H-M    P1
_symmetry_Int_Tables_number       1
_space_group_crystal_system       triclinic
_cell_length_a                    7.203158
_cell_length_b                    36.483209
_cell_length_c                    41.731263
_cell_angle_alpha                 89.905772
_cell_angle_beta                  89.331857
_cell_angle_gamma                 90.75524
_cell_volume                      10965.0227879

loop_
_atom_site_label
_atom_site_type_symbol
_atom_site_description
_atom_site_fract_x
_atom_site_fract_y
_atom_site_fract_z
_atom_type_partial_charge
O1    O     O_R   0.564240 0.782760 0.216890 -0.566974
O2    O     O_R   0.435760 0.217240 0.783110 -0.570581
O3    O     O_R   0.435760 0.217240 0.716890 -0.568363
O4    O     O_R   0.564240 0.782760 0.283110 -0.542619
O5    O     O_R   0.064240 0.717240 0.283110 -0.581888
O6    O     O_R   0.935760 0.282760 0.716890 -0.595651
O7    O     O_R   0.935760 0.282760 0.783110 -0.590654
O8    O     O_R   0.064240 0.717240 0.216890 -0.608079
O9    O     O_R   0.234510 0.787070 0.282870 -0.558178
O10   O     O_R   0.765490 0.212930 0.717130 -0.558149
O11   O     O_R   0.765490 0.212930 0.782870 -0.575110
O12   O     O_R   0.234510 0.787070 0.217130 -0.581814
O13   O     O_R   0.734510 0.712930 0.217130 -0.549758
O14   O     O_R   0.265490 0.287070 0.782870 -0.585401
O15   O     O_R   0.265490 0.287070 0.717130 -0.552726
O16   O     O_R   0.734510 0.712930 0.282870 -0.578945
C1    C     C_R   0.403628 0.795134 0.294331 1.034838
C2    C     C_R   0.597134 0.203721 0.706753 1.052953
C3    C     C_R   0.595131 0.203711 0.793075 1.042479
C4    C     C_R   0.403527 0.794915 0.205774 1.058302
C5    C     C_R   0.902582 0.704224 0.206328 1.070175
C6    C     C_R   0.096852 0.296051 0.793168 1.058332
C7    C     C_R   0.098803 0.295812 0.706381 1.061117
C8    C     C_R   0.902025 0.703947 0.293209 1.084934
O17   O     O_3   0.397750 0.727090 0.250000 -0.282488
O18   O     O_3   0.602250 0.272910 0.750000 -0.280912
O19   O     O_3   0.897750 0.772910 0.250000 -0.226486
O20   O     O_3   0.102250 0.227090 0.750000 -0.223713
V1    V     V_3+5 0.122890 0.754250 0.250000 1.313349
V2    V     V_3+5 0.877110 0.245750 0.750000 1.306663
V3    V     V_3+5 0.622890 0.745750 0.250000 1.341063
V4    V     V_3+5 0.377110 0.254250 0.750000 1.314458
C9    C     C_R   0.788515 0.599399 0.420498 0.667567
C10   C     C_R   0.161931 0.396342 0.576207 0.617858
C11   C     C_R   0.213820 0.398890 0.921075 0.664671
C12   C     C_R   0.863467 0.605379 0.075648 0.635727
C13   C     C_R   0.555536 0.881675 0.069634 0.630786
C14   C     C_R   0.387936 0.098339 0.916026 0.630757
C15   C     C_R   0.563694 0.109362 0.573015 0.647049
C16   C     C_R   0.441799 0.879919 0.434588 0.660715
O21   O     O_2   0.626953 0.615817 0.413792 -0.436737
O22   O     O_2   0.305960 0.373331 0.578144 -0.424318
O23   O     O_2   0.376291 0.383088 0.913367 -0.434786
O24   O     O_2   0.738118 0.632422 0.075429 -0.435854
O25   O     O_2   0.694933 0.858420 0.075543 -0.428812
O26   O     O_2   0.246180 0.120647 0.909196 -0.435291
O27   O     O_2   0.630227 0.143492 0.567298 -0.425813
O28   O     O_2   0.490539 0.844726 0.438954 -0.420321
N1    N     N_R   0.938111 0.605045 0.400523 -0.174996
N2    N     N_R   0.029152 0.395361 0.599823 -0.175176
N3    N     N_R   0.063666 0.393219 0.901807 -0.175119
N4    N     N_R   0.983958 0.603533 0.100605 -0.172737
N5    N     N_R   0.406591 0.882048 0.090181 -0.174586
N6    N     N_R   0.544841 0.100105 0.897363 -0.174374
N7    N     N_R   0.528795 0.098827 0.603960 -0.174244
N8    N     N_R   0.399642 0.891548 0.404430 -0.172821
C17   C     C_R   0.096159 0.585169 0.404089 0.620129
C18   C     C_R   0.883288 0.418932 0.599642 0.648594
C19   C     C_R   0.905976 0.413218 0.906196 0.616639
C20   C     C_R   0.117104 0.577241 0.101676 0.642828
C21   C     C_R   0.267027 0.906632 0.086471 0.639214
C22   C     C_R   0.685502 0.075835 0.901501 0.645507
C23   C     C_R   0.483681 0.063273 0.611370 0.601398
C24   C     C_R   0.371002 0.927776 0.398060 0.599432
C25   C     C_R   0.948355 0.616849 0.342664 -0.150498
C26   C     C_R   0.189416 0.375944 0.648470 -0.145008
C27   C     C_R   0.043843 0.382031 0.843883 -0.166223
C28   C     C_R   0.815378 0.624073 0.148645 -0.157354
C29   C     C_R   0.497610 0.872612 0.145772 -0.186539
C30   C     C_R   0.463705 0.119321 0.843047 -0.209302
C31   C     C_R   0.696183 0.123159 0.650344 -0.148418
C32   C     C_R   0.557192 0.865760 0.357744 -0.159507
C33   C     C_R   0.948554 0.640032 0.315905 0.518154
C34   C     C_R   0.214640 0.352244 0.674614 0.544981
C35   C     C_R   0.042323 0.359256 0.816890 0.418744
C36   C     C_R   0.787558 0.648023 0.174578 0.553543
C37   C     C_R   0.499173 0.852506 0.174400 0.525911
C38   C     C_R   0.471081 0.143887 0.817103 0.432203
C39   C     C_R   0.716725 0.147421 0.676189 0.480181
C40   C     C_R   0.567760 0.842458 0.331132 0.507828
C41   C     C_R   0.887422 0.691380 0.351354 -0.332223
C42   C     C_R   0.952921 0.315586 0.656009 -0.335884
C43   C     C_R   0.120747 0.307978 0.851123 -0.327275
C44   C     C_R   0.059971 0.682901 0.156739 -0.299327
C45   C     C_R   0.319126 0.804450 0.148766 -0.303413
C46   C     C_R   0.675134 0.183561 0.847941 -0.333513
C47   C     C_R   0.436080 0.178102 0.659218 -0.243942
C48   C     C_R   0.261355 0.818478 0.345253 -0.228315
C49   C     C_R   0.902917 0.668511 0.378300 0.602942
C50   C     C_R   0.931931 0.338695 0.629562 0.526207
C51   C     C_R   0.107773 0.330267 0.878455 0.604168
C52   C     C_R   0.086050 0.659012 0.130896 0.611380
C53   C     C_R   0.317843 0.824659 0.120005 0.596342
C54   C     C_R   0.659324 0.159878 0.874430 0.598979
C55   C     C_R   0.412128 0.152764 0.634354 0.562805
C56   C     C_R   0.253700 0.841438 0.372284 0.573002
C57   C     C_R   0.926528 0.630411 0.373888 -0.075665
C58   C     C_R   0.048390 0.369859 0.626123 -0.047319
C59   C     C_R   0.074770 0.368246 0.874795 -0.066322
C60   C     C_R   0.963700 0.628955 0.126969 -0.081621
C61   C     C_R   0.407505 0.859276 0.118600 -0.067441
C62   C     C_R   0.557428 0.126683 0.871609 -0.044065
C63   C     C_R   0.545802 0.125379 0.629480 -0.031377
C64   C     C_R   0.402153 0.865921 0.378069 -0.039093
C65   C     C_R   0.957145 0.552579 0.449521 -0.041123
C66   C     C_R   0.002369 0.446599 0.549985 -0.035175
C67   C     C_R   0.046634 0.445681 0.950876 -0.042966
C68   C     C_R   0.008527 0.552222 0.050820 -0.038604
C69   C     C_R   0.430947 0.933811 0.040446 -0.039012
C70   C     C_R   0.509899 0.045758 0.944824 -0.040156
C71   C     C_R   0.496178 0.047243 0.554722 -0.082493
C72   C     C_R   0.424630 0.942705 0.454122 -0.082700
C73   C     C_R   0.801549 0.575771 0.447363 -0.178857
C74   C     C_R   0.150039 0.421278 0.550322 -0.179209
C75   C     C_R   0.200892 0.422177 0.948169 -0.177101
C76   C     C_R   0.869643 0.579401 0.050489 -0.187329
C77   C     C_R   0.566725 0.906219 0.043249 -0.180180
C78   C     C_R   0.372761 0.073010 0.941734 -0.170867
C79   C     C_R   0.533578 0.084608 0.547430 -0.222066
C80   C     C_R   0.439820 0.904734 0.460668 -0.226122
C81   C     C_R   0.661199 0.573510 0.471251 0.395320
C82   C     C_R   0.283485 0.422296 0.525230 0.399086
C83   C     C_R   0.340632 0.423960 0.971646 0.399617
C84   C     C_R   0.739792 0.579309 0.025353 0.408522
C85   C     C_R   0.713062 0.905071 0.020404 0.406947
C86   C     C_R   0.222724 0.073433 0.963845 0.403938
C87   C     C_R   0.545078 0.095637 0.514929 0.399330
C88   C     C_R   0.460260 0.893102 0.492786 0.400927
C89   C     C_R   0.102281 0.556134 0.426505 -0.183430
C90   C     C_R   0.867708 0.445625 0.575080 -0.194241
C91   C     C_R   0.901538 0.442425 0.928438 -0.179416
C92   C     C_R   0.136185 0.551492 0.076436 -0.198909
C93   C     C_R   0.278731 0.934039 0.062335 -0.204000
C94   C     C_R   0.666667 0.046649 0.923925 -0.196325
C95   C     C_R   0.478702 0.036085 0.587175 -0.222088
C96   C     C_R   0.395246 0.954554 0.422234 -0.223486
C97   C     C_R   0.909250 0.677669 0.320114 -0.369962
C98   C     C_R   0.091267 0.321846 0.678935 -0.358536
C99   C     C_R   0.087977 0.321862 0.820352 -0.348284
C100  C     C_R   0.913860 0.677856 0.179083 -0.383923
C101  C     C_R   0.409547 0.817844 0.176164 -0.370024
C102  C     C_R   0.581562 0.176227 0.819283 -0.332788
C103  C     C_R   0.586181 0.176030 0.680498 -0.332446
C104  C     C_R   0.412388 0.819529 0.323388 -0.362919
H1    H     H_    0.865203 0.720457 0.354756 0.184131
H2    H     H_    0.860832 0.291989 0.658501 0.204999
H3    H     H_    0.150401 0.279100 0.853911 0.192996
H4    H     H_    0.155098 0.705890 0.159449 0.214474
H5    H     H_    0.251251 0.777798 0.149814 0.200722
H6    H     H_    0.754940 0.208820 0.850155 0.195056
H7    H     H_    0.335652 0.199688 0.662099 0.183381
H8    H     H_    0.151244 0.798694 0.341733 0.201083
C105  C     C_R   0.837537 0.497218 0.523651 0.046843
C106  C     C_R   0.121929 0.502130 0.475883 0.051300
C107  C     C_R   0.166593 0.500250 0.024762 0.042153
C108  C     C_R   0.886651 0.496997 0.977337 0.046754
C109  C     C_R   0.627371 0.990351 0.971590 0.031688
C110  C     C_R   0.311037 0.988652 0.013111 0.030981
C111  C     C_R   0.443678 0.006842 0.472332 0.029836
C112  C     C_R   0.457012 0.983213 0.536892 0.030140
C113  C     C_R   0.130532 0.474937 0.500524 0.034126
C114  C     C_R   0.823304 0.523018 0.497921 0.037193
C115  C     C_R   0.882003 0.524773 0.001463 0.034407
C116  C     C_R   0.180651 0.474655 0.998898 0.039596
C117  C     C_R   0.331863 0.016902 0.989400 0.055330
C118  C     C_R   0.605087 0.961780 0.994988 0.051934
C119  C     C_R   0.455496 0.956898 0.511581 0.032215
C120  C     C_R   0.479510 0.032696 0.497184 0.032546
C121  C     C_R   0.989990 0.472974 0.524639 0.114284
C122  C     C_R   0.967466 0.525837 0.474524 0.123122
C123  C     C_R   0.019170 0.525689 0.025608 0.109714
C124  C     C_R   0.037940 0.472504 0.975786 0.123082
C125  C     C_R   0.489592 0.017566 0.968647 0.121314
C126  C     C_R   0.448955 0.961467 0.016091 0.119989
C127  C     C_R   0.440893 0.968854 0.479401 0.097721
C128  C     C_R   0.477397 0.021004 0.529561 0.096402
C129  C     C_R   0.706060 0.495461 0.549022 -0.263915
C130  C     C_R   0.261839 0.505919 0.451999 -0.274598
C131  C     C_R   0.293799 0.500837 0.050276 -0.268389
C132  C     C_R   0.745777 0.493332 0.954206 -0.275867
C133  C     C_R   0.783516 0.992519 0.950787 -0.280020
C134  C     C_R   0.156862 0.986929 0.034355 -0.281174
C135  C     C_R   0.410018 0.017846 0.440553 -0.264529
C136  C     C_R   0.439068 0.972928 0.569383 -0.265853
C137  C     C_R   0.721239 0.471036 0.574559 0.415225
C138  C     C_R   0.250818 0.531288 0.427099 0.414726
C139  C     C_R   0.278504 0.525177 0.075859 0.421163
C140  C     C_R   0.754591 0.467688 0.929480 0.414643
C141  C     C_R   0.801087 0.018947 0.926665 0.407609
C142  C     C_R   0.142920 0.961408 0.059198 0.414392
C143  C     C_R   0.387825 0.992607 0.415767 0.401653
C144  C     C_R   0.451276 0.998415 0.594216 0.399116
O29   O     O_2   0.753667 0.416126 0.623107 -0.441197
O30   O     O_2   0.247810 0.594102 0.386337 -0.438610
O31   O     O_2   0.229430 0.576132 0.127249 -0.437016
O32   O     O_2   0.753142 0.404334 0.889386 -0.447011
O33   O     O_2   0.843237 0.080366 0.884161 -0.464310
O34   O     O_2   0.117813 0.904302 0.106208 -0.453045
O35   O     O_2   0.318786 0.937554 0.368358 -0.454640
O36   O     O_2   0.440875 0.054640 0.642026 -0.442384
C145  C     C_R   0.670657 0.546778 0.495157 -0.279482
C146  C     C_R   0.274420 0.449050 0.501528 -0.279449
C147  C     C_R   0.331664 0.450500 0.995708 -0.281583
C148  C     C_R   0.745513 0.552200 0.001944 -0.276208
C149  C     C_R   0.731778 0.932698 0.997382 -0.270268
C150  C     C_R   0.202780 0.045511 0.986539 -0.272982
C151  C     C_R   0.519505 0.069911 0.490612 -0.263498
C152  C     C_R   0.469217 0.918930 0.517409 -0.264217
H9    H     H_    0.280947 0.399443 0.645075 0.217265
H10   H     H_    0.972258 0.587828 0.339336 0.208479
H11   H     H_    0.720728 0.601208 0.144962 0.222972
H12   H     H_    0.014875 0.410916 0.841002 0.213286
H13   H     H_    0.381742 0.094314 0.841423 0.206513
H14   H     H_    0.565896 0.899192 0.144401 0.216886
H15   H     H_    0.672203 0.883894 0.363397 0.206009
H16   H     H_    0.796162 0.101677 0.646492 0.200948
H17   H     H_    0.591689 0.513981 0.550851 0.171376
H18   H     H_    0.382157 0.488891 0.451245 0.172561
H19   H     H_    0.404703 0.481536 0.052111 0.169300
H20   H     H_    0.625992 0.510551 0.954125 0.173646
H21   H     H_    0.895255 0.973366 0.951918 0.175846
H22   H     H_    0.044528 0.005938 0.033266 0.173360
H23   H     H_    0.398141 0.046325 0.434082 0.182023
H24   H     H_    0.413296 0.944901 0.576477 0.181643
H25   H     H_    0.555752 0.546101 0.511783 0.176596
H26   H     H_    0.380959 0.447490 0.483383 0.174023
H27   H     H_    0.445972 0.450927 0.012015 0.176156
H28   H     H_    0.642995 0.554638 0.983575 0.172127
H29   H     H_    0.845145 0.929426 0.980722 0.173448
H30   H     H_    0.086128 0.048210 0.002564 0.172434
H31   H     H_    0.534787 0.080014 0.466429 0.181397
H32   H     H_    0.489737 0.908189 0.541144 0.181204
S1    S     S_3+6 0.904448 0.689190 0.416632 0.055994
O37   O     O_2   0.707533 0.694654 0.427714 -0.170934
O38   O     O_2   0.004056 0.665919 0.440521 -0.226005
O39   O     O_3   0.012649 0.730205 0.414055 -0.521441
H33   H     H_    0.996161 0.741411 0.435487 0.424505
S2    S     S_3+6 0.757904 0.327070 0.601705 0.073322
O40   O     O_2   0.574914 0.339760 0.614849 -0.166914
O41   O     O_2   0.793348 0.344512 0.569522 -0.218791
O42   O     O_3   0.747001 0.281274 0.597361 -0.463748
H34   H     H_    0.873007 0.274274 0.590075 0.360083
S3    S     S_3+6 0.122165 0.308718 0.916336 0.052021
O43   O     O_2   0.322327 0.307176 0.925923 -0.176004
O44   O     O_2   0.012951 0.329196 0.941279 -0.234993
O45   O     O_3   0.037565 0.265667 0.913709 -0.487776
H35   H     H_    0.068175 0.254008 0.934406 0.408283
S4    S     S_3+6 0.275807 0.667014 0.104529 0.049207
O46   O     O_2   0.428707 0.641559 0.113497 -0.218054
O47   O     O_2   0.219894 0.659819 0.070505 -0.222000
O48   O     O_3   0.353416 0.710507 0.107827 -0.502216
H36   H     H_    0.465497 0.711923 0.093878 0.411255
S5    S     S_3+6 0.210190 0.805418 0.086033 0.058621
O49   O     O_2   0.089060 0.833237 0.070382 -0.183700
O50   O     O_2   0.358311 0.793861 0.062634 -0.208963
O51   O     O_3   0.079409 0.768728 0.096639 -0.498038
H37   H     H_    0.037846 0.757882 0.076151 0.414905
S6    S     S_3+6 0.757726 0.174730 0.910845 0.054873
O52   O     O_2   0.700085 0.150650 0.938537 -0.236236
O53   O     O_2   0.965492 0.175051 0.907431 -0.187116
O54   O     O_3   0.686777 0.217702 0.918016 -0.469573
H38   H     H_    0.728658 0.223266 0.940023 0.407476
S7    S     S_3+6 0.211025 0.155317 0.610445 0.034553
O55   O     O_2   0.261722 0.171494 0.578335 -0.191934
O56   O     O_2   0.130534 0.117567 0.605498 -0.266787
O57   O     O_3   0.049090 0.181590 0.628070 -0.503814
H39   H     H_    0.081901 0.207092 0.621826 0.351314
S8    S     S_3+6 0.058490 0.839232 0.398514 0.041330
O58   O     O_2   0.112562 0.821439 0.429466 -0.201809
O59   O     O_2   0.992780 0.877336 0.405547 -0.268865
O60   O     O_3   0.882576 0.815021 0.382507 -0.472403
H40   H     H_    0.919981 0.789088 0.383897 0.368018
N9    N     N_R   0.516054 0.600111 0.473561 0.267308
O61   O     O_R   0.349043 0.589905 0.482179 -0.379573
O62   O     O_R   0.559432 0.634830 0.474475 -0.222168
N10   N     N_R   0.427034 0.395562 0.522348 0.276298
O63   O     O_R   0.599124 0.406264 0.518880 -0.362843
O64   O     O_R   0.382658 0.361695 0.515924 -0.234014
N11   N     N_R   0.484091 0.397002 0.973438 0.266511
O65   O     O_R   0.650511 0.406629 0.982177 -0.384158
O66   O     O_R   0.438703 0.362368 0.973896 -0.232602
N12   N     N_R   0.599195 0.606554 0.022774 0.276185
O67   O     O_R   0.425096 0.596589 0.023083 -0.355519
O68   O     O_R   0.644787 0.639353 0.012944 -0.248072
N13   N     N_R   0.839886 0.875071 0.018808 0.277056
O69   O     O_R   0.775846 0.841919 0.014636 -0.240711
O70   O     O_R   0.016402 0.881539 0.014315 -0.353685
N14   N     N_R   0.095047 0.103312 0.965432 0.276933
O71   O     O_R   0.919125 0.096627 0.970326 -0.354251
O72   O     O_R   0.158237 0.136509 0.969704 -0.247421
N15   N     N_R   0.572154 0.133240 0.505748 0.275079
O73   O     O_R   0.701331 0.141962 0.484950 -0.291770
O74   O     O_R   0.444412 0.156979 0.512546 -0.231653
N16   N     N_R   0.461200 0.855035 0.501456 0.275029
O75   O     O_R   0.588137 0.842898 0.520542 -0.286329
O76   O     O_R   0.315703 0.834597 0.495917 -0.241790
S9    S     S_3+6 0.403575 0.361672 0.700381 0.069142
O77   O     O_2   0.478777 0.399786 0.694608 -0.179846
O78   O     O_2   0.344285 0.358099 0.734866 -0.237506
O79   O     O_3   0.572026 0.331418 0.692672 -0.515489
H41   H     H_    0.675406 0.338867 0.706782 0.395075
S10   S     S_3+6 0.010041 0.619897 0.278767 0.030047
O80   O     O_2   0.862879 0.592280 0.269899 -0.185575
O81   O     O_2   0.033047 0.647618 0.252408 -0.342149
O82   O     O_3   0.211847 0.597940 0.283363 -0.457441
H42   H     H_    0.242266 0.588039 0.261871 0.414152
S11   S     S_3+6 0.592487 0.639406 0.199975 0.055317
O83   O     O_2   0.512333 0.601836 0.193857 -0.208255
O84   O     O_2   0.645786 0.642206 0.234561 -0.226223
O85   O     O_3   0.430464 0.670758 0.192277 -0.522498
H43   H     H_    0.326256 0.664471 0.207049 0.390881
S12   S     S_3+6 0.974970 0.379600 0.780325 0.051931
O86   O     O_2   0.117515 0.408169 0.770878 -0.139719
O87   O     O_2   0.954858 0.352440 0.753606 -0.329352
O88   O     O_3   0.770781 0.400537 0.786123 -0.413873
H44   H     H_    0.682055 0.380574 0.791955 0.360500
S13   S     S_3+6 0.335753 0.133381 0.783054 0.070923
O89   O     O_2   0.440528 0.142928 0.752819 -0.244344
O90   O     O_2   0.285313 0.093271 0.782426 -0.194405
O91   O     O_3   0.139943 0.157885 0.784650 -0.440223
H45   H     H_    0.076588 0.150084 0.804776 0.343615
S14   S     S_3+6 0.609657 0.872190 0.207546 0.035848
O92   O     O_2   0.485457 0.867895 0.236538 -0.276365
O93   O     O_2   0.789281 0.852574 0.212429 -0.228523
O94   O     O_3   0.654539 0.916997 0.201209 -0.472458
H46   H     H_    0.720944 0.925316 0.220592 0.406421
S15   S     S_3+6 0.783760 0.841691 0.310540 0.034744
O95   O     O_2   0.863877 0.804128 0.313644 -0.287703
O96   O     O_2   0.758040 0.849891 0.275817 -0.195641
O97   O     O_3   0.934823 0.872517 0.325627 -0.485490
H47   H     H_    0.895777 0.896489 0.317007 0.373841
S16   S     S_3+6 0.900973 0.139082 0.703054 0.086792
O98   O     O_2   0.050116 0.167810 0.698430 -0.210145
O99   O     O_2   0.831492 0.140484 0.737119 -0.231598
O100  O     O_3   0.994384 0.097759 0.696234 -0.429921
H48   H     H_    0.899020 0.079822 0.703767 0.376316
N17   N     N_R   0.589287 0.473949 0.600413 0.267262
O101  O     O_R   0.644249 0.485948 0.628123 -0.255044
O102  O     O_R   0.412477 0.473018 0.594403 -0.395348
N18   N     N_R   0.383398 0.528919 0.401157 0.268161
O103  O     O_R   0.324758 0.524862 0.371976 -0.279772
O104  O     O_R   0.556815 0.522421 0.407095 -0.394683
N19   N     N_R   0.410397 0.522209 0.101133 0.268759
O105  O     O_R   0.360633 0.506456 0.127933 -0.262024
O106  O     O_R   0.586198 0.527254 0.094849 -0.392419
N20   N     N_R   0.622066 0.470254 0.904066 0.267208
O107  O     O_R   0.680846 0.473526 0.874575 -0.278705
O108  O     O_R   0.449787 0.477833 0.910629 -0.394416
N21   N     N_R   0.950118 0.015180 0.903774 0.264246
O109  O     O_R   0.911524 0.009885 0.873733 -0.272697
O110  O     O_R   0.116724 0.008159 0.913579 -0.398220
N22   N     N_R   0.994921 0.965671 0.082171 0.265588
O111  O     O_R   0.034413 0.975043 0.111410 -0.273781
O112  O     O_R   0.825450 0.969358 0.072350 -0.401124
N23   N     N_R   0.369236 0.006675 0.383880 0.273740
O113  O     O_R   0.503218 0.002160 0.363131 -0.277188
O114  O     O_R   0.241375 0.030504 0.377871 -0.298889
N24   N     N_R   0.446367 0.984781 0.626475 0.275128
O115  O     O_R   0.593898 0.987710 0.644043 -0.275027
O116  O     O_R   0.312194 0.962836 0.635690 -0.290070

loop_
_geom_bond_atom_site_label_1
_geom_bond_atom_site_label_2
_geom_bond_distance
_ccdc_geom_bond_type
S14   O93   1.502603 D    
C140  N20   1.438878 S    
C48   H8    1.076857 S    
C106  C113  1.430108 A    
N15   O73   1.301067 A    
C10   O22   1.346233 S    
C20   C92   1.419206 A    
C147  H27   1.074267 S    
N17   O101  1.301275 A    
C21   C93   1.419086 A    
O15   V4    2.001858 S    
O16   V3    2.001856 S    
C88   N16   1.434701 S    
C19   C91   1.414712 A    
N12   O67   1.301001 A    
C83   N11   1.438412 S    
C112  C136  1.410256 A    
S14   O94   1.682073 S    
C31   H16   1.082281 S    
C106  C122  1.419828 A    
C66   C90   1.419215 A    
C87   C151  1.395528 A    
S2    O40   1.500889 D    
C110  C126  1.419334 A    
C11   C75   1.418310 A    
C55   S7    1.771862 S    
C70   C78   1.417528 A    
S4    O47   1.502981 D    
C105  C129  1.413083 A    
S2    O41   1.502914 D    
C118  C126  1.420239 A    
C75   C83   1.413778 A    
O97   H47   0.990541 S    
C50   S2    1.767544 S    
C69   C93   1.419016 A    
O48   H36   0.990526 S    
N18   O103  1.301614 A    
C53   C61   1.411728 A    
C72   C80   1.417457 A    
C143  N23   1.433802 S    
C6    C99   1.476868 S    
S13   O91   1.680544 S    
C145  H25   1.073816 S    
C13   N5    1.365814 A    
O10   V2    1.991854 S    
N23   O113  1.301338 A    
N22   O111  1.301372 A    
O12   C4    1.328761 A    
C30   C62   1.401319 A    
O13   C5    1.329522 A    
C152  H32   1.077131 S    
O6    V2    1.968754 S    
S8    O59   1.502730 D    
C84   N12   1.433181 S    
C56   C64   1.407520 A    
C11   N3    1.368989 A    
C12   O24   1.346258 S    
C13   O25   1.347720 S    
O79   H41   0.990221 S    
C15   O27   1.348216 S    
C16   O28   1.348171 S    
O1    C4    1.333175 A    
C131  H19   1.075173 S    
O2    C3    1.326564 A    
C40   S15   1.769197 S    
C29   H14   1.082674 S    
C129  H17   1.074458 S    
C65   C89   1.415938 A    
C29   C61   1.398018 A    
O7    C6    1.324751 A    
C43   C51   1.404818 A    
C18   O29   1.347941 S    
C83   C147  1.397631 A    
C81   C145  1.396823 A    
N13   O70   1.301489 A    
C108  C132  1.413885 A    
C82   C146  1.391155 A    
C33   C97   1.416471 A    
O10   C2    1.331553 A    
C85   C149  1.395455 A    
C108  C124  1.419315 A    
N11   O66   1.301060 A    
C37   C101  1.413675 A    
C95   C144  1.415756 A    
N1    C57   1.448986 S    
O100  H48   0.990639 S    
C130  C138  1.394032 A    
C32   H15   1.081814 S    
C13   C77   1.418962 A    
C54   C62   1.413620 A    
C42   C98   1.406239 A    
C134  C142  1.394184 A    
O60   H40   0.988951 S    
C110  C117  1.432802 A    
O17   V3    1.750521 S    
C24   C96   1.416156 A    
O18   V4    1.750521 S    
N21   O109  1.301436 A    
C86   N14   1.436559 S    
O12   V1    1.976167 S    
O19   V1    1.767069 S    
C29   C37   1.401074 A    
C149  H29   1.074262 S    
C71   C95   1.417263 A    
C31   C39   1.404261 A    
C52   S4    1.765665 S    
C1    C104  1.506743 S    
O8    V1    1.978761 S    
C65   C73   1.416792 A    
C2    C103  1.493592 S    
N15   O74   1.301136 A    
C86   C150  1.394653 A    
C46   H6    1.084334 S    
S5    O49   1.500806 D    
C139  N19   1.432609 S    
C26   C34   1.405899 A    
O1    V3    1.983254 S    
N1    C17   1.367256 A    
O39   H33   0.990550 S    
O2    V4    1.983251 S    
C39   S16   1.776240 S    
C49   S1    1.769841 S    
N4    C20   1.366392 A    
C45   C53   1.407749 A    
C39   C103  1.424280 A    
C40   C104  1.428781 A    
N7    C23   1.367088 A    
N8    C24   1.366541 A    
C118  C149  1.412747 A    
C142  N22   1.435540 S    
C11   O23   1.347256 S    
S1    O37   1.502659 D    
C12   N4    1.365589 A    
C113  C121  1.420135 A    
C144  N24   1.434283 S    
S9    O78   1.501351 D    
O94   H46   0.990592 S    
C72   C96   1.417606 A    
C55   C63   1.410026 A    
O8    C5    1.331838 A    
C141  N21   1.436740 S    
N2    C58   1.446695 S    
C71   C128  1.428402 A    
C113  C146  1.412317 A    
S16   O98   1.501553 D    
O11   V2    1.976164 S    
C45   C101  1.407480 A    
S15   O96   1.493242 D    
N4    C60   1.447488 S    
C47   C55   1.401431 A    
N14   O72   1.301517 A    
C28   C60   1.401189 A    
C110  C134  1.413597 A    
N20   O108  1.301078 A    
S3    O45   1.681421 S    
N24   O116  1.301101 A    
C25   H10   1.083830 S    
N23   O114  1.301042 A    
N19   O106  1.300834 A    
C116  C124  1.419288 A    
C27   C35   1.400933 A    
C12   C76   1.416294 A    
C119  C127  1.416764 A    
C120  C128  1.416031 A    
C31   C63   1.400752 A    
O45   H35   0.990574 S    
C4    C101  1.490964 S    
C22   O33   1.348090 S    
C51   S3    1.769104 S    
S5    O51   1.682306 S    
C8    C97   1.477011 S    
C28   C36   1.406248 A    
C88   C152  1.396801 A    
C9    C73   1.417812 A    
S12   O88   1.681427 S    
C17   O30   1.348785 S    
S11   O85   1.678186 S    
N6    C62   1.447575 S    
C119  C152  1.410928 A    
O14   C6    1.329058 A    
S6    O52   1.501846 D    
C32   C40   1.401661 A    
S10   O81   1.499344 D    
C35   C99   1.415070 A    
C54   S6    1.767197 S    
C15   C79   1.416355 A    
N9    O62   1.301331 A    
S1    O39   1.680736 S    
C14   O26   1.346897 S    
C70   C94   1.418731 A    
C73   C81   1.413046 A    
N10   O63   1.301090 A    
C135  H23   1.077829 S    
C44   C52   1.400223 A    
C51   C59   1.417218 A    
C77   C85   1.414078 A    
C20   O31   1.347596 S    
C79   C87   1.415305 A    
C48   C56   1.407154 A    
C56   S8    1.772761 S    
C137  N17   1.434531 S    
C7    C98   1.488670 S    
S16   O100  1.682361 S    
C43   C99   1.403337 A    
C90   C137  1.413988 A    
C69   C77   1.418364 A    
S7    O55   1.502528 D    
C146  H26   1.073902 S    
C41   C97   1.404967 A    
C34   C98   1.421903 A    
S2    O42   1.681819 S    
O11   C3    1.332952 A    
C38   S13   1.772127 S    
C94   C141  1.414231 A    
C30   C38   1.404418 A    
N18   O104  1.301078 A    
C38   C102  1.418089 A    
N16   O75   1.301142 A    
C53   S5    1.765946 S    
C131  C139  1.394090 A    
C9    N1    1.367882 A    
S3    O43   1.502507 D    
C129  C137  1.394226 A    
C23   O36   1.348272 S    
S13   O90   1.503452 D    
O13   V3    1.991682 S    
C132  C140  1.395440 A    
N17   O102  1.300936 A    
C133  C141  1.396266 A    
C15   N7    1.366317 A    
C108  C115  1.430079 A    
N5    C61   1.446987 S    
C16   N8    1.366274 A    
N22   O112  1.300793 A    
N11   O65   1.301095 A    
C136  C144  1.396221 A    
C115  C123  1.419497 A    
C27   C59   1.405046 A    
C41   C49   1.405468 A    
S14   O92   1.503046 D    
O88   H44   0.990772 S    
O7    V2    1.978758 S    
C89   C138  1.411805 A    
C109  C133  1.414066 A    
C92   C139  1.413743 A    
C42   H2    1.083989 S    
C107  C131  1.412773 A    
C93   C142  1.414022 A    
C85   N13   1.435991 S    
C67   C124  1.430282 A    
C44   H4    1.082923 S    
C115  C148  1.412024 A    
C134  H22   1.073908 S    
C65   C122  1.430552 A    
C96   C143  1.415657 A    
S11   O83   1.503671 D    
N2    C18   1.366581 A    
N8    C64   1.444980 S    
C69   C126  1.434564 A    
C32   C64   1.394539 A    
C133  H21   1.074216 S    
N13   O69   1.301476 A    
C116  C147  1.414145 A    
C114  C122  1.419667 A    
C120  C151  1.410071 A    
C27   H12   1.083730 S    
O4    C1    1.327914 A    
C16   C80   1.416880 A    
C84   C148  1.391926 A    
C3    C102  1.484069 S    
C106  C130  1.414447 A    
S4    O46   1.500337 D    
C46   C102  1.404011 A    
O85   H43   0.990103 S    
C76   C84   1.413512 A    
C30   H13   1.082809 S    
N12   O68   1.301102 A    
C130  H18   1.073140 S    
O14   V4    1.991680 S    
C21   O34   1.348188 S    
C80   C88   1.415146 A    
C19   O32   1.348500 S    
N6    C22   1.366610 A    
C42   C50   1.398560 A    
C105  C114  1.432180 A    
C9    O21   1.347892 S    
C68   C76   1.417961 A    
S15   O95   1.499948 D    
N14   O71   1.301008 A    
C26   C58   1.402777 A    
O54   H38   0.990530 S    
C18   C90   1.419075 A    
S12   O87   1.499900 D    
O3    V4    1.979480 S    
C81   N9    1.438393 S    
O4    V3    1.979477 S    
C14   C78   1.417118 A    
S8    O58   1.502367 D    
O82   H42   0.990703 S    
C24   O35   1.348320 S    
C105  C121  1.420035 A    
C5    C100  1.492714 S    
C109  C125  1.419277 A    
S7    O57   1.682901 S    
N19   O105  1.301044 A    
C150  H30   1.073426 S    
S9    O77   1.503677 D    
S12   O86   1.502327 D    
S10   O82   1.681737 S    
C66   C74   1.418175 A    
C17   C89   1.413517 A    
S16   O99   1.502756 D    
O42   H34   0.990653 S    
C117  C125  1.420453 A    
N7    C63   1.445991 S    
C25   C33   1.399689 A    
C111  C120  1.426511 A    
O3    C2    1.333313 A    
C112  C119  1.428611 A    
C46   C54   1.404558 A    
S3    O44   1.503149 D    
C14   N6    1.365835 A    
C37   S14   1.753929 S    
C148  H28   1.074968 S    
C117  C150  1.412797 A    
S4    O48   1.681774 S    
O9    V1    1.991851 S    
C36   S11   1.774542 S    
C91   C140  1.413004 A    
O15   C7    1.329185 A    
N21   O110  1.300956 A    
C47   H7    1.082252 S    
C112  C128  1.417136 A    
N24   O115  1.301383 A    
N5    C21   1.366021 A    
O5    V1    1.968751 S    
C36   C100  1.423453 A    
N3    C59   1.452733 S    
C10   N2    1.365415 A    
C68   C92   1.418586 A    
C114  C145  1.414732 A    
C67   C91   1.415316 A    
S5    O50   1.502847 D    
C87   N15   1.434013 S    
S9    O79   1.679731 S    
C49   C57   1.414686 A    
S11   O84   1.501147 D    
C23   C95   1.416960 A    
S6    O53   1.501571 D    
C82   N10   1.434937 S    
S8    O60   1.680551 S    
O51   H37   0.990537 S    
N9    O61   1.301103 A    
C26   H9    1.082740 S    
S1    O38   1.503122 D    
C67   C75   1.416052 A    
C43   H3    1.084088 S    
C35   S12   1.771359 S    
C71   C79   1.417919 A    
O9    C1    1.343096 A    
N10   O64   1.301302 A    
C41   H1    1.084223 S    
C66   C121  1.433118 A    
C132  H20   1.073992 S    
S6    O54   1.681592 S    
N3    C19   1.368769 A    
C52   C60   1.408714 A    
C70   C125  1.434179 A    
C136  H24   1.077233 S    
S10   O80   1.502661 D    
C135  C143  1.395132 A    
C109  C118  1.433261 A    
S15   O97   1.682659 S    
C138  N18   1.438697 S    
C107  C116  1.431959 A    
C10   C74   1.415179 A    
C47   C103  1.409848 A    
O91   H45   0.990695 S    
C22   C94   1.420506 A    
O20   V2    1.767069 S    
C25   C57   1.402413 A    
S7    O56   1.502734 D    
N16   O76   1.301310 A    
C151  H31   1.077749 S    
N20   O107  1.301623 A    
O5    C8    1.323267 A    
O6    C7    1.330752 A    
C48   C104  1.411837 A    
S13   O89   1.500760 D    
C45   H5    1.083184 S    
O57   H39   0.990610 S    
C74   C82   1.413247 A    
C107  C123  1.419664 A    
C72   C127  1.428269 A    
C44   C100  1.408008 A    
O16   C8    1.331033 A    
C68   C123  1.432978 A    
C33   S10   1.770319 S    
C34   S9    1.774746 S    
C111  C127  1.416364 A    
C78   C86   1.413101 A    
C111  C135  1.409633 A    
C28   H11   1.082653 S    
C50   C58   1.410125 A    
