data_mof_unit_37210.cif
_audit_creation_date              2012-12-10T19:00:12-0500
_audit_creation_method            fapswitch 2.2
_symmetry_space_group_name_H-M    P1
_symmetry_Int_Tables_number       1
_space_group_crystal_system       triclinic
_cell_length_a                    9.544473
_cell_length_b                    10.817599
_cell_length_c                    13.421626
_cell_angle_alpha                 90.082403
_cell_angle_beta                  72.473071
_cell_angle_gamma                 89.994013
_cell_volume                      1321.42505617

loop_
_atom_site_label
_atom_site_type_symbol
_atom_type_description
_atom_site_fract_x
_atom_site_fract_y
_atom_site_fract_z
_atom_type_partial_charge
C1    C     C_R   0.499157 0.737673 0.502082 0.827723
C2    C     C_R   0.437428 0.498362 0.978400 0.017611
C3    C     C_R   0.462980 0.541290 0.874447 -0.102565
C4    C     C_R   0.542296 0.525775 0.031482 0.097437
C5    C     C_R   0.664710 0.602205 0.983004 0.068636
C6    C     C_R   0.678465 0.654502 0.885761 -0.282786
C7    C     C_R   0.576885 0.627871 0.833388 0.600099
C8    C     C_R   0.528260 0.481276 0.132225 -0.210618
C9    C     C_R   0.747585 0.590157 0.136681 -0.189696
C10   C     C_R   0.372096 0.497732 0.815350 -0.215814
C11   C     C_R   0.369217 0.936387 0.512069 0.113396
C12   C     C_R   0.420922 0.502825 0.700334 0.914428
C13   C     C_R   0.494819 0.870753 0.512679 -0.089898
C14   C     C_R   0.614407 0.935558 0.528011 -0.162310
C15   C     C_R   0.614589 0.064451 0.527664 -0.175881
C16   C     C_R   0.495109 0.129199 0.512110 -0.100375
C17   C     C_R   0.369421 0.063589 0.511679 0.137446
C18   C     C_3   0.280499 0.069664 0.437288 -0.437993
C19   C     C_3   0.279897 0.929304 0.437988 -0.457078
C20   C     C_R   0.947322 0.408611 0.449672 0.217948
C21   C     C_R   0.901431 0.583445 0.557305 -0.077177
C22   C     C_R   0.050114 0.583199 0.557612 -0.043571
C23   C     C_R   0.499312 0.262303 0.501779 0.818229
C24   C     C_R   0.095155 0.409165 0.449042 0.199779
C25   C     C_3   0.147885 0.382365 0.334781 -0.587228
C26   C     C_3   0.988701 0.379664 0.336013 0.407679
C27   C     C_R   0.578823 0.501684 0.299970 0.796225
C28   C     C_R   0.768622 0.630475 0.034690 -0.131101
C29   C     C_R   0.623927 0.519348 0.186814 -0.045347
C30   C     C_R   0.242337 0.432686 0.865699 0.588769
C31   C     C_R   0.208799 0.403223 0.970694 -0.189752
C32   C     C_R   0.306370 0.431920 0.025828 -0.258079
Cu1   Cu    Cu3+1 0.359330 0.500020 0.500010 0.986509
Cu2   Cu    Cu3+1 0.640670 0.499980 0.499990 0.994690
H1    H     H_    0.823059 0.620044 0.178112 0.143890
H2    H     H_    0.710729 0.112644 0.534558 0.186946
H3    H     H_    0.342844 0.109589 0.360404 0.194458
H4    H     H_    0.341393 0.887711 0.361464 0.202481
H5    H     H_    0.827150 0.652933 0.601677 0.195719
H6    H     H_    0.086863 0.652053 0.602669 0.143141
H7    H     H_    0.208483 0.461715 0.289390 0.171622
H8    H     H_    0.204153 0.291497 0.316995 0.219611
H9    H     H_    0.766379 0.719154 0.851095 0.164943
H10   H     H_    0.862501 0.688498 0.997955 0.143408
H11   H     H_    0.273906 0.402418 0.105941 0.161126
H12   H     H_    0.108906 0.352979 0.008834 0.186351
H13   H     H_    0.710397 0.887360 0.535167 0.174204
N1    N     N_R   0.852320 0.499070 0.499340 -0.229428
N2    N     N_R   0.148230 0.499110 0.499340 -0.176579
O1    O     O_R   0.381190 0.680360 0.500000 -0.597102
O2    O     O_R   0.618780 0.680320 0.499990 -0.573913
O3    O     O_R   0.323230 0.500000 0.650990 -0.531163
O4    O     O_R   0.560820 0.499960 0.650980 -0.546603
O5    O     O_R   0.381220 0.319680 0.500010 -0.572245
O6    O     O_R   0.618810 0.319640 0.500000 -0.564345
O7    O     O_R   0.439180 0.500040 0.349020 -0.588292
O8    O     O_R   0.676770 0.500000 0.349010 -0.587256
H14   H     H_    0.170063 0.110684 0.473804 0.216719
H15   H     H_    0.169186 0.889308 0.475252 0.200504
H16   H     H_    0.959441 0.452983 0.287854 0.094229
F1    F     F_    0.943043 0.262384 0.318504 -0.646326
H17   H     H_    0.441664 0.419177 0.171990 0.133135
F2    F     F_    0.150650 0.392015 0.812504 -0.654197
F3    F     F_    0.583691 0.695540 0.746962 -0.694373

loop_
_geom_bond_atom_site_label_1
_geom_bond_atom_site_label_2
_ccdc_geom_bond_type
C25   H8    S    
Cu2   O8    S    
C2    C4    A    
C23   O6    A    
C6    C7    A    
C19   H4    S    
C27   C29   S    
C5    C28   A    
C11   C13   A    
C32   H11   S    
C10   C30   A    
C31   C32   A    
C21   H5    S    
C9    C29   A    
C30   C31   A    
C4    C8    A    
C21   N1    A    
C22   H6    S    
C27   O7    A    
Cu1   O7    S    
C2    C3    A    
Cu1   O1    S    
Cu2   O6    S    
C3    C10   A    
C13   C14   A    
Cu1   O3    S    
C1    O2    A    
C11   C19   S    
Cu2   O2    S    
C20   N1    A    
C20   C26   S    
C23   O5    A    
C22   N2    A    
C8    C29   A    
C10   C12   S    
C30   F2    S    
C12   O3    A    
C26   F1    S    
Cu1   Cu2   S    
C17   C18   S    
C16   C23   S    
C3    C7    A    
C6    H9    S    
C27   O8    A    
C5    C6    A    
C7    F3    S    
Cu2   N1    S    
Cu1   N2    S    
C15   C16   A    
C16   C17   A    
C20   C24   A    
C15   H2    S    
Cu1   O5    S    
C1    C13   S    
C24   C25   S    
Cu2   O4    S    
C2    C32   A    
C18   C19   S    
C1    O1    A    
C25   H7    S    
C24   N2    A    
C9    H1    S    
C14   C15   A    
C11   C17   A    
C8    H17   S    
C19   H15   S    
C25   C26   S    
C21   C22   A    
C14   H13   S    
C26   H16   S    
C28   H10   S    
C18   H14   S    
C12   O4    A    
C9    C28   A    
C18   H3    S    
C4    C5    A    
C31   H12   S    
