data_mof_unit_60012.cif
_audit_creation_date              2012-12-11T16:12:46-0500
_audit_creation_method            fapswitch 2.2
_symmetry_space_group_name_H-M    P1
_symmetry_Int_Tables_number       1
_space_group_crystal_system       triclinic
_cell_length_a                    23.462589
_cell_length_b                    13.584076
_cell_length_c                    28.462938
_cell_angle_alpha                 89.994197
_cell_angle_beta                  90.449998
_cell_angle_gamma                 90.010377
_cell_volume                      9071.35908215

loop_
_atom_site_label
_atom_site_type_symbol
_atom_type_description
_atom_site_fract_x
_atom_site_fract_y
_atom_site_fract_z
_atom_type_partial_charge
C1    C     C_R   0.284753 0.005233 0.816150 0.551183
C2    C     C_R   0.715235 0.005238 0.183884 0.544319
C3    C     C_R   0.784753 0.505233 0.816150 0.551206
C4    C     C_R   0.215235 0.505238 0.183884 0.544239
C5    C     C_3   0.492646 0.837005 0.954085 0.022150
C6    C     C_3   0.506953 0.836804 0.045846 0.019013
C7    C     C_3   0.992647 0.337005 0.954084 0.022150
C8    C     C_3   0.006954 0.336804 0.045846 0.019003
C9    C     C_3   0.454199 0.773130 0.032315 0.010674
C10   C     C_3   0.446713 0.770854 0.978020 0.003797
C11   C     C_3   0.954200 0.273129 0.032315 0.010681
C12   C     C_3   0.946714 0.270853 0.978020 0.003792
C13   C     C_1   0.516596 0.835708 0.096782 0.021939
C14   C     C_1   0.483594 0.835833 0.903091 0.025566
C15   C     C_1   0.016597 0.335708 0.096781 0.021957
C16   C     C_1   0.983595 0.335834 0.903090 0.025564
C17   C     C_1   0.265791 0.632341 0.860494 0.072317
C18   C     C_1   0.734332 0.631239 0.139704 0.059408
C19   C     C_1   0.765791 0.132341 0.860494 0.072316
C20   C     C_1   0.234332 0.131239 0.139704 0.059341
C21   C     C_R   0.294124 0.529005 0.974064 0.174345
C22   C     C_R   0.696510 0.555998 0.023780 0.153018
C23   C     C_R   0.794125 0.029008 0.974064 0.174345
C24   C     C_R   0.196510 0.055998 0.023780 0.153018
C25   C     C_R   0.290766 0.518254 0.023196 0.214616
C26   C     C_R   0.700125 0.548090 0.974525 0.188485
C27   C     C_R   0.790767 0.018256 0.023196 0.214612
C28   C     C_R   0.200125 0.048091 0.974525 0.188488
C29   C     C_R   0.209680 0.629596 0.024226 -0.094274
C30   C     C_R   0.799994 0.595241 0.978824 -0.090747
C31   C     C_R   0.709678 0.129592 0.024226 -0.094265
C32   C     C_R   0.299994 0.095240 0.978824 -0.090741
C33   C     C_R   0.212309 0.639635 0.975607 0.168939
C34   C     C_R   0.796614 0.603852 0.027486 0.160181
C35   C     C_R   0.712307 0.139631 0.975607 0.168937
C36   C     C_R   0.296614 0.103851 0.027486 0.160181
C37   C     C_R   0.254585 0.589603 0.950316 0.023472
C38   C     C_R   0.744803 0.584921 0.050160 0.018903
C39   C     C_R   0.754585 0.089603 0.950316 0.023472
C40   C     C_R   0.244803 0.084920 0.050161 0.018902
C41   C     C_R   0.248677 0.569816 0.048107 -0.019532
C42   C     C_R   0.752083 0.568632 0.952245 -0.018377
C43   C     C_R   0.748677 0.069816 0.048106 -0.019530
C44   C     C_R   0.252083 0.068632 0.952245 -0.018377
C45   C     C_R   0.446121 0.824188 0.816552 0.554616
C46   C     C_R   0.554022 0.824173 0.183362 0.543738
C47   C     C_R   0.946122 0.324188 0.816552 0.554630
C48   C     C_R   0.054022 0.324173 0.183362 0.543834
C49   C     C_1   0.241177 0.555091 0.097625 0.015253
C50   C     C_1   0.759016 0.554630 0.902580 0.024532
C51   C     C_1   0.741176 0.055090 0.097625 0.015276
C52   C     C_1   0.259016 0.054630 0.902580 0.024534
C53   C     C_1   0.260140 0.608184 0.900824 0.071672
C54   C     C_1   0.739768 0.605568 0.099544 0.057524
C55   C     C_1   0.760139 0.108183 0.900824 0.071672
C56   C     C_1   0.239768 0.105568 0.099544 0.057500
C57   C     C_1   0.231514 0.536995 0.138117 0.039287
C58   C     C_1   0.768500 0.536819 0.862002 0.048222
C59   C     C_1   0.731513 0.036995 0.138117 0.039340
C60   C     C_1   0.268500 0.036819 0.862002 0.048228
C61   C     C_1   0.470521 0.833492 0.639027 0.027327
C62   C     C_1   0.530440 0.833799 0.361332 0.044308
C63   C     C_1   0.970484 0.333518 0.639016 0.027262
C64   C     C_1   0.030443 0.333794 0.361331 0.044908
C65   C     C_R   0.458903 0.784661 0.519883 -0.140265
C66   C     C_R   0.465663 0.786675 0.471404 -0.149378
C67   C     C_R   0.958814 0.284795 0.519863 -0.140693
C68   C     C_R   0.965619 0.286728 0.471390 -0.149974
C69   C     C_R   0.544415 0.901972 0.480497 0.224468
C70   C     C_R   0.537640 0.899767 0.529602 0.188217
C71   C     C_R   0.044361 0.402051 0.480489 0.222549
C72   C     C_R   0.037549 0.399906 0.529590 0.186581
C73   C     C_R   0.494762 0.840430 0.549026 0.004899
C74   C     C_R   0.508084 0.845131 0.451593 0.024104
C75   C     C_R   0.994669 0.340566 0.549009 0.003557
C76   C     C_R   0.008068 0.345141 0.451586 0.021882
C77   C     C_1   0.517408 0.839812 0.401936 0.017260
C78   C     C_1   0.484496 0.837978 0.598596 -0.002691
C79   C     C_1   0.017407 0.339806 0.401933 0.017800
C80   C     C_1   0.984427 0.338057 0.598579 -0.002839
C81   C     C_1   0.266201 0.633518 0.637448 0.058743
C82   C     C_1   0.733596 0.634610 0.362857 0.043313
C83   C     C_1   0.766196 0.133483 0.637458 0.058628
C84   C     C_1   0.233581 0.134613 0.362870 0.042354
C85   C     C_R   0.257043 0.679452 0.517926 0.247573
C86   C     C_R   0.794541 0.576921 0.473664 0.236966
C87   C     C_R   0.757075 0.179372 0.517939 0.246965
C88   C     C_R   0.294330 0.077013 0.473779 0.235980
C89   C     C_R   0.274510 0.673847 0.815031 0.554058
C90   C     C_R   0.725492 0.673782 0.184972 0.544324
C91   C     C_R   0.774510 0.173847 0.815031 0.554063
C92   C     C_R   0.225492 0.173781 0.184972 0.544203
C93   C     C_R   0.255602 0.666576 0.469044 -0.152174
C94   C     C_R   0.798985 0.573232 0.522725 -0.124552
C95   C     C_R   0.755605 0.166524 0.469065 -0.151792
C96   C     C_R   0.298857 0.073450 0.522756 -0.121930
C97   C     C_R   0.258689 0.488595 0.479208 0.325283
C98   C     C_R   0.697169 0.603409 0.530053 0.287161
C99   C     C_R   0.758663 0.988538 0.479216 0.325245
C100  C     C_R   0.197066 0.103837 0.530107 0.287210
C101  C     C_R   0.260474 0.500784 0.528093 0.173578
C102  C     C_R   0.692453 0.608655 0.480941 0.164645
C103  C     C_R   0.760445 0.000711 0.528104 0.173735
C104  C     C_R   0.192326 0.108973 0.480976 0.165639
C105  C     C_R   0.259873 0.596050 0.547175 0.031934
C106  C     C_R   0.741271 0.596480 0.453046 0.008336
C107  C     C_R   0.759874 0.095975 0.547190 0.031771
C108  C     C_R   0.241121 0.096564 0.453075 0.005719
C109  C     C_R   0.254994 0.572088 0.450010 -0.016552
C110  C     C_R   0.750711 0.584840 0.550603 -0.020907
C111  C     C_R   0.754979 0.072043 0.450023 -0.016703
C112  C     C_R   0.250620 0.085202 0.550660 -0.021876
C113  C     C_1   0.244822 0.559940 0.400850 0.012878
C114  C     C_1   0.756936 0.567312 0.599843 0.005509
C115  C     C_1   0.744810 0.059912 0.400860 0.013258
C116  C     C_1   0.256868 0.067547 0.599887 0.005424
C117  C     C_1   0.262346 0.611002 0.596885 0.077858
C118  C     C_1   0.737734 0.612341 0.403438 0.052191
C119  C     C_1   0.762343 0.110939 0.596899 0.077656
C120  C     C_1   0.237672 0.112360 0.403459 0.049259
C121  C     C_1   0.233082 0.541686 0.360809 0.033686
C122  C     C_1   0.766847 0.544766 0.639738 0.025198
C123  C     C_1   0.733076 0.041671 0.360816 0.034063
C124  C     C_1   0.266810 0.044880 0.639764 0.025414
C125  C     C_R   0.284257 0.007743 0.684246 0.545483
C126  C     C_R   0.715648 0.007251 0.315905 0.552892
C127  C     C_R   0.784260 0.507733 0.684244 0.545446
C128  C     C_R   0.215649 0.507255 0.315903 0.552818
C129  C     C_R   0.445898 0.825247 0.684478 0.545671
C130  C     C_R   0.554230 0.825250 0.315601 0.552618
C131  C     C_R   0.945893 0.325250 0.684476 0.545670
C132  C     C_R   0.054232 0.325249 0.315601 0.552784
C133  C     C_R   0.274260 0.674050 0.682976 0.545430
C134  C     C_R   0.725639 0.674414 0.317170 0.547763
C135  C     C_R   0.774259 0.174044 0.682979 0.545425
C136  C     C_R   0.225639 0.174411 0.317174 0.547734
C137  C     C_3   0.487825 0.943314 0.973765 -0.155978
C138  C     C_3   0.560569 0.795187 0.020968 -0.163867
C139  C     C_3   0.987825 0.443314 0.973765 -0.155979
C140  C     C_3   0.060570 0.295188 0.020968 -0.163873
C141  C     C_3   0.552632 0.795287 0.966672 0.143591
C142  C     C_3   0.496578 0.943955 0.028115 0.138902
C143  C     C_3   0.052633 0.295288 0.966671 0.143593
C144  C     C_3   0.996579 0.443956 0.028114 0.138902
C145  C     C_1   0.529940 0.831674 0.137489 0.045525
C146  C     C_1   0.470387 0.831711 0.862357 0.046554
C147  C     C_1   0.029941 0.331674 0.137488 0.045582
C148  C     C_1   0.970387 0.331711 0.862356 0.046550
Cr1   Cr    Cr6+3 0.250680 0.837130 0.748990 1.092306
Cr2   Cr    Cr6+3 0.749320 0.837130 0.251010 1.077810
Cr3   Cr    Cr6+3 0.750680 0.337130 0.748990 1.092237
Cr4   Cr    Cr6+3 0.249320 0.337130 0.251010 1.077681
Cr5   Cr    Cr6+3 0.378160 0.960100 0.750430 1.074868
Cr6   Cr    Cr6+3 0.621840 0.960100 0.249570 1.069679
Cr7   Cr    Cr6+3 0.878160 0.460100 0.750430 1.074717
Cr8   Cr    Cr6+3 0.121840 0.460100 0.249570 1.069622
Cr9   Cr    Cr6+3 0.376090 0.707720 0.749670 1.080790
Cr10  Cr    Cr6+3 0.623910 0.707720 0.250330 1.086693
Cr11  Cr    Cr6+3 0.876090 0.207720 0.749670 1.080792
Cr12  Cr    Cr6+3 0.123910 0.207720 0.250330 1.086617
H1    H     H_    0.425500 0.739432 0.534734 0.143214
H2    H     H_    0.438046 0.742041 0.449365 0.127194
H3    H     H_    0.925401 0.239582 0.534712 0.143755
H4    H     H_    0.938017 0.242071 0.449350 0.128202
H5    H     H_    0.253887 0.729856 0.445913 0.119126
H6    H     H_    0.840063 0.560475 0.539280 0.142876
H7    H     H_    0.753888 0.229837 0.445953 0.121255
H8    H     H_    0.340024 0.060264 0.539119 0.146807
H9    H     H_    0.519880 0.991511 0.956600 0.208989
H10   H     H_    0.598695 0.839378 0.031096 0.191492
H11   H     H_    0.019880 0.491512 0.956599 0.208988
H12   H     H_    0.098696 0.339380 0.031096 0.191495
H13   H     H_    0.554067 0.717542 0.953732 0.149040
H14   H     H_    0.456523 0.970669 0.044947 0.139856
H15   H     H_    0.054068 0.217543 0.953732 0.149041
H16   H     H_    0.956523 0.470668 0.044946 0.139866
H17   H     H_    0.569252 0.718889 0.033022 0.167368
H18   H     H_    0.445377 0.975142 0.965026 0.129463
H19   H     H_    0.069254 0.218890 0.033022 0.167368
H20   H     H_    0.945377 0.475141 0.965025 0.129461
H21   H     H_    0.452121 0.694178 0.965053 0.208069
H22   H     H_    0.415902 0.806474 0.048721 0.180814
H23   H     H_    0.952123 0.194178 0.965052 0.208068
H24   H     H_    0.915903 0.306473 0.048721 0.180835
H25   H     H_    0.176664 0.667827 0.043410 0.161742
H26   H     H_    0.840314 0.609039 0.961675 0.167277
H27   H     H_    0.676661 0.167821 0.043409 0.161751
H28   H     H_    0.340314 0.109038 0.961675 0.167280
O1    O     O_R   0.237900 0.735050 0.799950 -0.482087
O2    O     O_R   0.762100 0.735050 0.200050 -0.483460
O3    O     O_R   0.737900 0.235050 0.799950 -0.482077
O4    O     O_R   0.262100 0.235050 0.200050 -0.483500
O5    O     O_R   0.425240 0.902610 0.703070 -0.488458
O6    O     O_R   0.574760 0.902610 0.296930 -0.485945
O7    O     O_R   0.925240 0.402610 0.703070 -0.488590
O8    O     O_R   0.074760 0.402610 0.296930 -0.485986
O9    O     O_R   0.433420 0.739640 0.698910 -0.502974
O10   O     O_R   0.566580 0.739640 0.301090 -0.491428
O11   O     O_R   0.933420 0.239640 0.698910 -0.502906
O12   O     O_R   0.066580 0.239640 0.301090 -0.491398
O13   O     O_R   0.323550 0.666510 0.701520 -0.498000
O14   O     O_R   0.676450 0.666510 0.298480 -0.484397
O15   O     O_R   0.823550 0.166510 0.701520 -0.497977
O16   O     O_R   0.176450 0.166510 0.298480 -0.484364
O17   O     O_3   0.334980 0.834990 0.749700 -0.273013
O18   O     O_3   0.665020 0.834990 0.250300 -0.270412
O19   O     O_3   0.834980 0.334990 0.749700 -0.272985
O20   O     O_3   0.165020 0.334990 0.250300 -0.270334
O21   O     O_R   0.256160 0.936210 0.796950 -0.478462
O22   O     O_R   0.743840 0.936210 0.203050 -0.481944
O23   O     O_R   0.756160 0.436210 0.796950 -0.478445
O24   O     O_R   0.243840 0.436210 0.203050 -0.481947
O25   O     O_R   0.333710 0.029860 0.801630 -0.501275
O26   O     O_R   0.666290 0.029860 0.198370 -0.505925
O27   O     O_R   0.833710 0.529860 0.801630 -0.501265
O28   O     O_R   0.166290 0.529860 0.198370 -0.505973
O29   O     O_R   0.425340 0.901920 0.798280 -0.492141
O30   O     O_R   0.574660 0.901920 0.201720 -0.499822
O31   O     O_R   0.925340 0.401920 0.798280 -0.492129
O32   O     O_R   0.074660 0.401920 0.201720 -0.499792
O33   O     O_R   0.433530 0.738890 0.801610 -0.487536
O34   O     O_R   0.566470 0.738890 0.198390 -0.483107
O35   O     O_R   0.933530 0.238890 0.801610 -0.487532
O36   O     O_R   0.066470 0.238890 0.198390 -0.483093
O37   O     O_R   0.323650 0.665810 0.796720 -0.485571
O38   O     O_R   0.676350 0.665810 0.203280 -0.491009
O39   O     O_R   0.823650 0.165810 0.796720 -0.485575
O40   O     O_R   0.176350 0.165810 0.203280 -0.491060
O41   O     O_R   0.237790 0.735800 0.697250 -0.493131
O42   O     O_R   0.762210 0.735800 0.302750 -0.504104
O43   O     O_R   0.737790 0.235800 0.697250 -0.493230
O44   O     O_R   0.262210 0.235800 0.302750 -0.504156
O45   O     O_R   0.256050 0.936910 0.701750 -0.492134
O46   O     O_R   0.743950 0.936910 0.298250 -0.498084
O47   O     O_R   0.756050 0.436910 0.701750 -0.492162
O48   O     O_R   0.243950 0.436910 0.298250 -0.498022
O49   O     O_R   0.333600 0.030610 0.698930 -0.497832
O50   O     O_R   0.666400 0.030610 0.301070 -0.488003
O51   O     O_R   0.833600 0.530610 0.698930 -0.497950
O52   O     O_R   0.166400 0.530610 0.301070 -0.488117
O53   O     O_3   0.544148 0.003763 0.040279 -0.567814
C149  C     C_3   0.527126 0.102430 0.046654 -0.064305
H29   H     H_    0.500888 0.109818 0.078820 0.166378
H30   H     H_    0.503494 0.131125 0.015490 0.165226
H31   H     H_    0.565781 0.148439 0.051487 0.174267
O54   O     O_3   0.595319 0.854131 0.945362 -0.551281
C150  C     C_3   0.645187 0.798438 0.937725 -0.098919
H32   H     H_    0.637752 0.742110 0.910012 0.152239
H33   H     H_    0.660867 0.762981 0.970609 0.122591
H34   H     H_    0.679187 0.848592 0.925252 0.164483
O55   O     O_3   0.044148 0.503763 0.040279 -0.567813
C151  C     C_3   0.027126 0.602430 0.046655 -0.064307
H35   H     H_    0.000887 0.609816 0.078820 0.166385
H36   H     H_    0.003494 0.631125 0.015491 0.165224
H37   H     H_    0.065780 0.648439 0.051489 0.174260
O56   O     O_3   0.095320 0.354133 0.945362 -0.551282
C152  C     C_3   0.145188 0.298440 0.937725 -0.098917
H38   H     H_    0.137753 0.242112 0.910012 0.152238
H39   H     H_    0.160868 0.262983 0.970608 0.122595
H40   H     H_    0.179188 0.348595 0.925251 0.164484
Br1   Br    Br    0.157411 0.723366 0.945180 -0.382219
Br2   Br    Br    0.863821 0.642547 0.061643 -0.489377
Br3   Br    Br    0.657407 0.223358 0.945179 -0.382214
Br4   Br    Br    0.363822 0.142544 0.061644 -0.489434
Br5   Br    Br    0.603545 0.981052 0.452885 -0.414339
Br6   Br    Br    0.586729 0.976501 0.570010 -0.448892
Br7   Br    Br    0.103490 0.481142 0.452883 -0.415245
Br8   Br    Br    0.086593 0.476721 0.569999 -0.449719
O57   O     O_3   0.258768 0.772580 0.538070 -0.580243
C153  C     C_3   0.212453 0.830244 0.522060 -0.088055
H41   H     H_    0.172282 0.787016 0.518077 0.160510
H42   H     H_    0.223310 0.867519 0.488559 0.112561
H43   H     H_    0.204095 0.888145 0.548540 0.170238
O58   O     O_3   0.842272 0.569568 0.445395 -0.560442
C154  C     C_3   0.869536 0.478187 0.452806 -0.102124
H44   H     H_    0.838736 0.415724 0.453943 0.115069
H45   H     H_    0.896056 0.479956 0.485283 0.138134
H46   H     H_    0.898633 0.464367 0.422998 0.152056
O59   O     O_3   0.758845 0.272513 0.538046 -0.580739
C155  C     C_3   0.712074 0.329629 0.522496 -0.088009
H47   H     H_    0.671956 0.286018 0.519155 0.160850
H48   H     H_    0.722167 0.366629 0.488752 0.114547
H49   H     H_    0.704068 0.387756 0.548941 0.170107
O60   O     O_3   0.342239 0.068989 0.445902 -0.558451
C156  C     C_3   0.363819 0.972227 0.449014 -0.101614
H50   H     H_    0.330047 0.916021 0.442438 0.110687
H51   H     H_    0.384816 0.959187 0.483594 0.135188
H52   H     H_    0.396706 0.962635 0.421605 0.152836
O61   O     O_3   0.255244 0.394942 0.460284 -0.508069
C157  C     C_3   0.310582 0.364377 0.447987 -0.075871
H53   H     H_    0.339055 0.360283 0.479387 0.155296
H54   H     H_    0.329451 0.413445 0.420931 0.105876
H55   H     H_    0.307903 0.289482 0.432666 0.178670
O62   O     O_3   0.648759 0.608320 0.557362 -0.545906
C158  C     C_3   0.642016 0.706032 0.573050 -0.032575
H56   H     H_    0.640971 0.759259 0.543277 0.202392
H57   H     H_    0.676151 0.726306 0.598568 0.163021
H58   H     H_    0.600681 0.711887 0.591488 0.156364
O63   O     O_3   0.755218 0.894893 0.460284 -0.508223
C159  C     C_3   0.810559 0.864321 0.448000 -0.076290
H59   H     H_    0.839011 0.860166 0.479411 0.155010
H60   H     H_    0.829454 0.913421 0.420969 0.105986
H61   H     H_    0.807878 0.789453 0.432651 0.178602
O64   O     O_3   0.148667 0.108835 0.557422 -0.545878
C160  C     C_3   0.142000 0.206549 0.573125 -0.032286
H62   H     H_    0.140998 0.259796 0.543360 0.202742
H63   H     H_    0.176148 0.226723 0.598648 0.163005
H64   H     H_    0.100669 0.212487 0.591562 0.156551
Br9   Br    Br    0.262926 0.386686 0.568096 -0.501813
Br10  Br    Br    0.618984 0.633238 0.452666 -0.459499
Br11  Br    Br    0.762851 0.886603 0.568102 -0.501976
Br12  Br    Br    0.118877 0.133652 0.452699 -0.458839
Br13  Br    Br    0.368497 0.807412 0.960674 -0.530117
Br14  Br    Br    0.458471 0.639028 0.057253 -0.375667
Br15  Br    Br    0.868498 0.307411 0.960674 -0.530102
Br16  Br    Br    0.958472 0.139027 0.057253 -0.375618
Br17  Br    Br    0.352783 0.462027 0.939442 -0.382127
Br18  Br    Br    0.625917 0.527158 0.055139 -0.399337
Br19  Br    Br    0.852787 0.962034 0.939442 -0.382132
Br20  Br    Br    0.125917 0.027159 0.055139 -0.399375
Br21  Br    Br    0.342615 0.432212 0.056244 -0.299974
Br22  Br    Br    0.634493 0.510070 0.937678 -0.386680
Br23  Br    Br    0.842617 0.932218 0.056245 -0.299963
Br24  Br    Br    0.134493 0.010073 0.937678 -0.386684

loop_
_geom_bond_atom_site_label_1
_geom_bond_atom_site_label_2
_ccdc_geom_bond_type
C128  O48   A    
C99   C103  A    
C17   C53   T    
C157  H55   S    
C108  C120  S    
C62   C77   T    
C76   C79   S    
C143  H15   S    
Cr5   O25   S    
C20   C92   S    
C98   C110  A    
O60   C156  S    
Cr7   O19   S    
C69   Br5   S    
C88   C108  A    
C3    O27   A    
C22   C38   A    
C29   C33   A    
C100  C104  A    
O58   C154  S    
C83   C119  T    
C9    H22   S    
Cr8   O28   S    
C149  H30   S    
C96   H8    S    
C139  H11   S    
Cr10  O38   S    
C106  C118  S    
C41   C49   S    
C68   H4    S    
C133  O13   A    
C149  H31   S    
C115  C123  T    
C17   C89   S    
C121  C128  S    
C1    C60   S    
C25   C41   A    
C32   H28   S    
C2    C59   S    
C123  C126  S    
C135  O15   A    
C98   C102  A    
C91   O3    A    
C28   C44   A    
C82   C134  S    
Cr2   O2    S    
C69   C74   A    
Cr8   O32   S    
C5    C137  S    
Cr12  O36   S    
C2    O26   A    
C64   C79   T    
C153  H42   S    
Cr1   O1    S    
C82   C118  T    
C126  O50   A    
C159  H59   S    
C150  H34   S    
C47   O35   A    
C12   Br15  S    
C21   Br17  S    
C90   O38   A    
C131  O7    A    
C138  C141  S    
Cr2   O42   S    
Cr11  O19   S    
Cr4   O48   S    
C127  O47   A    
C46   O34   A    
C8    C140  S    
C23   Br19  S    
Cr4   O4    S    
C71   C76   A    
C103  Br11  S    
Cr10  O10   S    
C97   O61   S    
C69   C70   A    
Cr8   O20   S    
C99   O63   S    
C10   Br13  S    
C87   C107  A    
C156  H51   S    
C65   H1    S    
C103  C107  A    
Cr3   O19   S    
C129  O9    A    
C151  H35   S    
C137  C142  S    
C4    O28   A    
C81   C117  T    
C62   C130  S    
C140  C143  S    
C13   C145  T    
C20   C56   T    
C6    C9    S    
C7    C143  S    
Cr10  O18   S    
C158  H57   S    
C31   C43   A    
Cr2   O22   S    
C12   H23   S    
C85   O57   S    
C66   C74   A    
C72   Br8   S    
C49   C57   T    
O53   C149  S    
C122  C127  S    
C52   C60   T    
C85   C93   A    
Cr3   O43   S    
C160  H63   S    
C74   C77   S    
C87   C95   A    
C9    C10   S    
C110  C114  S    
Cr5   O29   S    
C159  H61   S    
C61   C129  S    
C37   C53   S    
C44   C52   S    
Cr3   O47   S    
Cr9   O33   S    
C86   C106  A    
C72   C75   A    
C88   O60   S    
C70   Br6   S    
C63   C80   T    
C3    O23   A    
C7    C12   S    
C30   C34   A    
C1    O21   A    
C154  H46   S    
Cr7   O7    S    
C155  H47   S    
Cr2   O18   S    
C48   O36   A    
Cr1   O45   S    
Cr12  O20   S    
C97   C109  A    
C99   C111  A    
C144  H16   S    
O61   C157  S    
C25   Br21  S    
C42   C50   S    
C151  H37   S    
Cr5   O17   S    
C144  O55   S    
Cr9   O13   S    
C31   H27   S    
C112  C116  S    
C26   C42   A    
C90   O2    A    
C21   C25   A    
O54   C150  S    
C29   C41   A    
Cr4   O20   S    
C11   H24   S    
C24   C28   A    
C95   H7    S    
C32   C36   A    
C81   C133  S    
C68   C76   A    
Cr6   O50   S    
C152  H40   S    
Cr1   O41   S    
C71   C72   A    
C104  Br12  S    
C29   H25   S    
C134  O42   A    
C126  O46   A    
C67   H3    S    
C67   C75   A    
C30   H26   S    
C138  H17   S    
C93   C109  A    
Cr4   O44   S    
C88   C96   A    
C127  O51   A    
C46   O30   A    
C22   Br18  S    
C154  H44   S    
C155  H49   S    
Cr6   O26   S    
C94   H6    S    
O55   C151  S    
Cr8   O8    S    
Cr1   O21   S    
O62   C158  S    
C11   Br16  S    
C48   C147  S    
C33   Br1   S    
C66   H2    S    
C157  H53   S    
C35   Br3   S    
C39   C55   S    
C137  H18   S    
C64   C132  S    
C40   C56   S    
O59   C155  S    
Cr7   O31   S    
C63   C131  S    
C6    C142  S    
Cr9   O37   S    
Cr11  O11   S    
Cr4   O24   S    
Cr7   O51   S    
C135  O43   A    
O57   C153  S    
C153  H43   S    
C105  C117  S    
C107  C119  S    
C159  H60   S    
C150  H33   S    
C67   C68   A    
C50   C58   T    
C142  H14   S    
Cr1   O17   S    
C158  H56   S    
C94   C110  A    
C33   C37   A    
Cr11  O15   S    
Cr12  O40   S    
C18   C90   S    
C35   C39   A    
O63   C159  S    
C156  H50   S    
C96   C112  A    
C38   C54   S    
C84   C120  T    
C70   C73   A    
C149  H29   S    
Cr9   O17   S    
C87   O59   S    
Cr7   O27   S    
C5    C14   S    
C7    C16   S    
C28   Br24  S    
C100  C112  A    
C8    C15   S    
C1    O25   A    
C31   C35   A    
C36   Br4   S    
C104  C108  A    
C125  O49   A    
C151  H36   S    
C48   O32   A    
C19   C55   T    
C84   C136  S    
C71   Br7   S    
C116  C124  T    
C91   O39   A    
C89   O37   A    
C130  O6    A    
Cr12  O16   S    
C128  O52   A    
C45   O33   A    
Cr2   O46   S    
C15   C147  T    
C43   C51   S    
Cr9   O9    S    
C133  O41   A    
Cr5   O5    S    
C19   C91   S    
C26   Br22  S    
C3    C58   S    
C27   C43   A    
C21   C37   A    
C92   O40   A    
C160  H62   S    
C22   C26   A    
C10   H21   S    
C89   O1    A    
C153  H41   S    
C30   C42   A    
C92   O4    A    
C102  Br10  S    
C100  O64   S    
C138  H10   S    
C45   O29   A    
C132  O12   A    
Cr12  O12   S    
Cr8   O52   S    
C136  O44   A    
Cr3   O23   S    
C86   O58   S    
C154  H45   S    
C155  H48   S    
C152  H38   S    
C156  H52   S    
C23   C39   A    
C46   C145  S    
C140  H19   S    
C65   C73   A    
C139  H20   S    
C86   C94   A    
C4    C57   S    
C73   C78   S    
C23   C27   A    
Cr6   O30   S    
C75   C80   S    
C83   C135  S    
C109  C113  S    
Cr3   O3    S    
C93   H5    S    
C140  H12   S    
C141  H13   S    
C98   O62   S    
C85   C105  A    
C134  O14   A    
C158  H58   S    
C101  C105  A    
C2    O22   A    
C27   Br23  S    
C34   Br2   S    
C45   C146  S    
C36   C40   A    
C47   O31   A    
C152  H39   S    
Cr6   O6    S    
C6    C138  S    
C131  O11   A    
C139  C144  S    
C5    C141  S    
C61   C78   T    
C160  H64   S    
O56   C152  S    
C141  O54   S    
C32   C44   A    
C113  C121  T    
C8    C144  S    
Cr6   O18   S    
O64   C160  S    
Cr11  O39   S    
C143  O56   S    
Cr10  O14   S    
C51   C59   T    
C136  O16   A    
C9    Br14  S    
C47   C148  S    
C34   C38   A    
C137  H9    S    
C129  O5    A    
C150  H32   S    
C142  O53   S    
C14   C146  T    
C4    O24   A    
Cr5   O49   S    
C16   C148  T    
C5    C10   S    
C24   Br20  S    
C95   C111  A    
C6    C13   S    
C7    C139  S    
C8    C11   S    
Cr11  O35   S    
C24   C40   A    
C102  C106  A    
C157  H54   S    
C125  O45   A    
C18   C54   T    
C114  C122  T    
C101  Br9   S    
Cr10  O34   S    
C65   C66   A    
C132  O8    A    
C111  C115  S    
C130  O10   A    
C97   C101  A    
C11   C12   S    
C124  C125  S    
