data_mof_unit_50233.cif
_audit_creation_date              2013-03-05T15:50:44-0500
_audit_creation_method            fapswitch 2.2
_symmetry_space_group_name_H-M    P1
_symmetry_Int_Tables_number       1
_space_group_crystal_system       triclinic
_cell_length_a                    22.814826
_cell_length_b                    7.229843
_cell_length_c                    20.796937
_cell_angle_alpha                 90.004314
_cell_angle_beta                  93.307505
_cell_angle_gamma                 90.005855
_cell_volume                      3424.69088958

loop_
_atom_site_label
_atom_site_type_symbol
_atom_site_description
_atom_site_fract_x
_atom_site_fract_y
_atom_site_fract_z
_atom_type_partial_charge
O1    O     O_R   0.438030 0.494310 0.439340 -0.587921
O2    O     O_R   0.561970 0.994310 0.560660 -0.588241
O3    O     O_R   0.556900 0.822900 0.435960 -0.585056
O4    O     O_R   0.443100 0.322900 0.564040 -0.585119
C1    C     C_R   0.575840 0.655490 0.421091 0.961567
C2    C     C_R   0.424159 0.155487 0.578908 0.961494
O5    O     O_R   0.438170 0.823950 0.431660 -0.596445
O6    O     O_R   0.561830 0.323950 0.568340 -0.596943
O7    O     O_R   0.442390 0.995390 0.556340 -0.584303
O8    O     O_R   0.557610 0.495390 0.443660 -0.584212
C3    C     C_R   0.418407 0.655336 0.415667 0.927222
C4    C     C_R   0.581582 0.155334 0.584350 0.927243
O9    O     O_3   0.501520 0.661170 0.540910 -0.287288
O10   O     O_3   0.498480 0.161170 0.459090 -0.286864
V1    V     V_3+5 0.499720 0.935580 0.492410 1.156485
V2    V     V_3+5 0.500280 0.435580 0.507590 1.156254
C5    C     C_R   0.829462 0.937848 0.856678 -0.194487
C6    C     C_R   0.173788 0.446243 0.138875 -0.135990
C7    C     C_R   0.869825 0.083796 0.864948 -0.154246
C8    C     C_R   0.130667 0.584570 0.134272 -0.166883
C9    C     C_R   0.863181 0.241041 0.825255 -0.144976
C10   C     C_R   0.134995 0.735905 0.176763 -0.135077
C11   C     C_R   0.817608 0.252865 0.776508 -0.033767
C12   C     C_R   0.182937 0.754857 0.222460 -0.038452
C13   C     C_R   0.775666 0.108322 0.770995 0.020602
C14   C     C_R   0.225813 0.612594 0.226855 -0.001331
C15   C     C_R   0.781993 0.950249 0.810873 0.224221
C16   C     C_R   0.220695 0.457455 0.185427 0.205145
C17   C     C_R   0.812076 0.406148 0.733764 0.323292
C18   C     C_R   0.188696 0.908480 0.265161 0.336361
C19   C     C_R   0.762371 0.419625 0.690693 -0.303938
C20   C     C_R   0.237179 0.918213 0.309980 -0.308531
C21   C     C_R   0.720153 0.278828 0.686106 0.088837
C22   C     C_R   0.279603 0.778194 0.314262 0.094917
C23   C     C_R   0.727417 0.120676 0.725327 0.045334
C24   C     C_R   0.273570 0.623467 0.273266 0.045000
C25   C     C_R   0.686481 0.974310 0.718756 0.174930
C26   C     C_R   0.315136 0.478632 0.278991 0.175146
C27   C     C_R   0.693786 0.817482 0.758109 -0.225254
C28   C     C_R   0.308973 0.324803 0.238063 -0.238956
C29   C     C_R   0.740908 0.805998 0.803967 -0.193175
C30   C     C_R   0.262433 0.314913 0.191450 -0.192957
C31   C     C_R   0.671677 0.291402 0.641369 -0.197157
C32   C     C_R   0.327655 0.789729 0.359602 -0.195732
C33   C     C_R   0.631112 0.145209 0.633890 -0.143108
C34   C     C_R   0.368974 0.645442 0.366009 -0.144410
C35   C     C_R   0.639089 0.986685 0.672735 -0.251561
C36   C     C_R   0.362062 0.489626 0.325682 -0.250866
H1    H     H_    0.834135 0.816236 0.887050 0.120771
H2    H     H_    0.170729 0.329194 0.106242 0.128840
H3    H     H_    0.893666 0.354287 0.833198 0.180040
H4    H     H_    0.099774 0.835615 0.174172 0.192347
H5    H     H_    0.757759 0.537809 0.658735 0.189000
H6    H     H_    0.241794 0.036882 0.341749 0.183533
H7    H     H_    0.666445 0.412984 0.611059 0.139208
H8    H     H_    0.332116 0.909214 0.391023 0.138983
H9    H     H_    0.608047 0.873344 0.667589 0.141041
H10   H     H_    0.393676 0.377714 0.330078 0.140576
H11   H     H_    0.745490 0.683299 0.833763 0.117156
H12   H     H_    0.258758 0.194542 0.160418 0.129148
C37   C     C_3   0.236574 0.296552 0.793976 -0.452592
C38   C     C_3   0.763415 0.796517 0.206005 -0.453378
C39   C     C_3   0.255935 0.958505 0.807146 -0.358475
C40   C     C_3   0.744058 0.458446 0.192856 -0.358157
C41   C     C_3   0.304570 0.967666 0.757779 -0.379184
C42   C     C_3   0.695424 0.467613 0.242223 -0.379426
H13   H     H_    0.328555 0.342397 0.772616 0.157781
H14   H     H_    0.671432 0.842304 0.227358 0.157803
H15   H     H_    0.255317 0.323476 0.843696 0.171034
H16   H     H_    0.744673 0.823383 0.156283 0.171236
H17   H     H_    0.237587 0.816477 0.808793 0.196417
H18   H     H_    0.762409 0.316430 0.191216 0.196327
H19   H     H_    0.275975 0.986651 0.856240 0.146812
H20   H     H_    0.724018 0.486534 0.143761 0.146585
H21   H     H_    0.306900 0.832680 0.732310 0.172993
H22   H     H_    0.693098 0.332650 0.267701 0.173054
C43   C     C_1   0.378435 0.146388 0.624588 -0.266047
C44   C     C_1   0.621559 0.646399 0.375406 -0.265910
C45   C     C_3   0.206915 0.102944 0.790571 0.210998
C46   C     C_3   0.793077 0.602935 0.209423 0.212286
C47   C     C_3   0.286225 0.309506 0.745783 -0.383201
C48   C     C_3   0.713762 0.809477 0.254195 -0.383009
C49   C     C_3   0.292008 0.125294 0.708216 0.343755
C50   C     C_3   0.707982 0.625301 0.291775 0.343780
C51   C     C_3   0.232159 0.084068 0.671764 -0.482597
C52   C     C_3   0.767832 0.584161 0.328230 -0.482453
C53   C     C_3   0.181834 0.074993 0.719625 0.249792
C54   C     C_3   0.818157 0.575068 0.280371 0.251096
C55   C     C_1   0.339757 0.137493 0.662344 -0.056536
C56   C     C_1   0.660235 0.637504 0.337647 -0.056612
C57   C     C_1   0.159643 0.091917 0.837129 -0.020497
C58   C     C_1   0.840352 0.591903 0.162866 -0.022779
C59   C     C_1   0.121233 0.083469 0.875210 -0.216621
C60   C     C_1   0.878764 0.583456 0.124788 -0.218775
H23   H     H_    0.222045 0.194561 0.635534 0.171026
H24   H     H_    0.777944 0.694704 0.364450 0.170360
H25   H     H_    0.203353 0.406287 0.782730 0.210723
H26   H     H_    0.796634 0.906287 0.217248 0.209952
H27   H     H_    0.276505 0.425030 0.711435 0.186576
H28   H     H_    0.723477 0.925046 0.288535 0.186494
O11   O     O_R   0.942420 0.735670 0.056390 -0.588142
O12   O     O_R   0.057580 0.235670 0.943610 -0.586928
O13   O     O_R   0.061840 0.404850 0.068350 -0.569776
O14   O     O_R   0.938160 0.904850 0.931650 -0.583213
C61   C     C_R   0.081484 0.573645 0.084408 0.928353
C62   C     C_R   0.918539 0.073608 0.915494 0.931476
O15   O     O_R   0.943100 0.406010 0.064050 -0.577223
O16   O     O_R   0.056900 0.906010 0.935950 -0.577017
O17   O     O_R   0.938020 0.234710 0.939330 -0.601970
O18   O     O_R   0.061980 0.734710 0.060670 -0.597056
C63   C     C_R   0.924292 0.574473 0.078891 0.950876
C64   C     C_R   0.075708 0.074477 0.921110 0.957978
O19   O     O_3   0.998500 0.567790 0.959120 -0.279579
O20   O     O_3   0.001500 0.067790 0.040880 -0.272456
V3    V     V_3+5 0.000280 0.293330 0.007580 1.203272
V4    V     V_3+5 0.999720 0.793330 0.992420 1.196008
H29   H     H_    0.347932 0.990498 0.783873 0.149308
H30   H     H_    0.652061 0.490381 0.216128 0.149344
H31   H     H_    0.151457 0.192614 0.707874 0.106993
H32   H     H_    0.848533 0.692716 0.292114 0.103775
N1    N     N_R   0.147958 0.902943 0.711493 0.248225
O21   O     O_R   0.173816 0.742424 0.712800 -0.428771
O22   O     O_R   0.091449 0.910648 0.699185 -0.323858
N2    N     N_R   0.852030 0.403045 0.288514 0.247747
O23   O     O_R   0.826171 0.242512 0.287218 -0.430302
O24   O     O_R   0.908538 0.410792 0.300827 -0.332886
H33   H     H_    0.235232 0.952513 0.644403 0.206206
H34   H     H_    0.764760 0.452637 0.355603 0.206066
N3    N     N_R   0.857626 0.543283 0.730538 0.239363
O25   O     O_R   0.844364 0.711130 0.712431 -0.376493
O26   O     O_R   0.912356 0.492288 0.731186 -0.343585
N4    N     N_R   0.145888 0.054714 0.264932 0.243064
O27   O     O_R   0.133051 0.131552 0.318950 -0.338283
O28   O     O_R   0.126778 0.131293 0.211188 -0.422675
H35   H     H_    0.662987 0.703485 0.753461 0.133513
H36   H     H_    0.340260 0.212023 0.242012 0.136574

loop_
_geom_bond_atom_site_label_1
_geom_bond_atom_site_label_2
_geom_bond_distance
_ccdc_geom_bond_type
C18   C20   1.406518 A    
C61   O18   1.331381 A    
C39   C41   1.555982 S    
O4    V2    1.980003 S    
O12   C64   1.330610 A    
O1    C3    1.331510 A    
C54   N2    1.468961 S    
O2    C4    1.331399 A    
C2    O7    1.324985 A    
O14   C62   1.335940 A    
O20   V3    1.771230 S    
C27   C29   1.397835 A    
C27   H35   1.083698 S    
C44   C56   1.216278 T    
O5    C3    1.335116 A    
C28   H36   1.083733 S    
C43   C55   1.216282 T    
C11   C17   1.421800 A    
C38   C46   1.554501 S    
C23   C25   1.412712 A    
C12   C14   1.418816 A    
N3    O25   1.301131 A    
C52   C54   1.563688 S    
C41   C49   1.552253 S    
C57   C59   1.216102 T    
C60   C63   1.452139 S    
C38   H16   1.113045 S    
C33   C35   1.408020 A    
C15   C29   1.403980 A    
O12   V3    1.963008 S    
C5    C7    1.404456 A    
O14   V4    2.003865 S    
C17   N3    1.440608 S    
N4    O27   1.301658 A    
C19   C21   1.400799 A    
C54   H32   1.115235 S    
C26   C36   1.405502 A    
O19   V4    1.771129 S    
O5    V1    2.003596 S    
C38   C48   1.558040 S    
O6    V2    2.003787 S    
C38   H26   1.112789 S    
C45   C53   1.564540 S    
C17   C19   1.407350 A    
C40   C46   1.554315 S    
C50   C56   1.491474 S    
C20   H6    1.084238 S    
C47   C49   1.553490 S    
C32   C34   1.407242 A    
C51   C53   1.563698 S    
C49   C55   1.491481 S    
C34   C36   1.407787 A    
C52   H34   1.112594 S    
C45   C57   1.492511 S    
C5    C15   1.403336 A    
C6    C16   1.403405 A    
C29   H11   1.083732 S    
O4    C2    1.327674 A    
C30   H12   1.083768 S    
C53   N1    1.468973 S    
C2    C43   1.452387 S    
C39   C45   1.554321 S    
C39   H19   1.113108 S    
O16   C64   1.333463 A    
C40   C42   1.555990 S    
C46   C58   1.492530 S    
O13   V3    2.003673 S    
C53   H31   1.115244 S    
C35   H9    1.084267 S    
C32   H8    1.084366 S    
C28   C30   1.397659 A    
O6    C4    1.335269 A    
C42   H22   1.113099 S    
C58   C60   1.216114 T    
C22   C32   1.406642 A    
O13   C61   1.335746 A    
O1    V2    1.994894 S    
C19   H5    1.083949 S    
O2    V1    1.994787 S    
C31   C33   1.407473 A    
O15   V3    1.980306 S    
N1    O21   1.301494 A    
C52   H24   1.113188 S    
C13   C23   1.414612 A    
C14   C24   1.415487 A    
C49   C51   1.551919 S    
C39   H17   1.110131 S    
H13   C47   1.112813 S    
C48   C50   1.553479 S    
C9    C11   1.412281 A    
C10   C12   1.413621 A    
C51   H33   1.112598 S    
C25   C35   1.404894 A    
C5    H1    1.084319 S    
O18   V4    1.994876 S    
C9    H3    1.080723 S    
O3    V1    1.980041 S    
C6    H2    1.084448 S    
N2    O24   1.301031 A    
C8    C61   1.485407 S    
C37   H15   1.113052 S    
C41   H29   1.112868 S    
C7    C9    1.408042 A    
O15   C63   1.333475 A    
C37   H25   1.112794 S    
C8    C10   1.406253 A    
C4    C33   1.486426 S    
O3    C1    1.327683 A    
C36   H10   1.084324 S    
C31   H7    1.084291 S    
C13   C15   1.414606 A    
C47   H27   1.113063 S    
C14   C16   1.414999 A    
C41   H21   1.113104 S    
C48   H28   1.113060 S    
H14   C48   1.112809 S    
O16   V4    1.980266 S    
C24   C26   1.413207 A    
O7    V1    1.966258 S    
C1    O8    1.324991 A    
C46   C54   1.564530 S    
O8    V2    1.966242 S    
C26   C28   1.402568 A    
C51   H23   1.113192 S    
C37   C45   1.554503 S    
C18   N4    1.439212 S    
O11   C63   1.330625 A    
C16   C30   1.403911 A    
C21   C23   1.408821 A    
C22   C24   1.408374 A    
C10   H4    1.078624 S    
C6    C8    1.402346 A    
C40   H18   1.110125 S    
C12   C18   1.423328 A    
N1    O22   1.301039 A    
O17   V3    1.994772 S    
C59   C64   1.452118 S    
C42   C50   1.552249 S    
C7    C62   1.486907 S    
C25   C27   1.402724 A    
C11   C13   1.417045 A    
N4    O28   1.299920 A    
C42   H30   1.112863 S    
O9    V2    1.771622 S    
O11   V4    1.962995 S    
C40   H20   1.113100 S    
O10   V1    1.771724 S    
C50   C52   1.551906 S    
C3    C34   1.486329 S    
C37   C47   1.558038 S    
C1    C44   1.452380 S    
C21   C31   1.406557 A    
C20   C22   1.399933 A    
N2    O23   1.301488 A    
N3    O26   1.301317 A    
C62   O17   1.332017 A    
