data_mof_unit_59340.cif
_audit_creation_date              2013-03-05T16:01:36-0500
_audit_creation_method            fapswitch 2.2
_symmetry_space_group_name_H-M    P1
_symmetry_Int_Tables_number       1
_space_group_crystal_system       triclinic
_cell_length_a                    14.251063
_cell_length_b                    14.949754
_cell_length_c                    15.606973
_cell_angle_alpha                 87.769755
_cell_angle_beta                  67.614948
_cell_angle_gamma                 90.4974
_cell_volume                      3071.18216117

loop_
_atom_site_label
_atom_site_type_symbol
_atom_site_description
_atom_site_fract_x
_atom_site_fract_y
_atom_site_fract_z
_atom_type_partial_charge
O1    O     O_R   0.419720 0.632140 0.499980 -0.577305
O2    O     O_R   0.580280 0.367860 0.500020 -0.577231
O3    O     O_R   0.580270 0.632160 0.499970 -0.569601
O4    O     O_R   0.419730 0.367840 0.500030 -0.569668
C1    C     C_R   0.500274 0.672550 0.500437 0.989586
C2    C     C_R   0.499719 0.327446 0.499582 0.989593
O5    O     O_R   0.373870 0.499980 0.632250 -0.574033
O6    O     O_R   0.626130 0.500020 0.367750 -0.573984
O7    O     O_R   0.534420 0.500000 0.632240 -0.595880
O8    O     O_R   0.465580 0.500000 0.367760 -0.595929
C3    C     C_R   0.436073 0.501280 0.675816 0.985588
C4    C     C_R   0.563925 0.498657 0.324185 0.985422
Zn1   Zn    Zn3+2 0.392800 0.499980 0.500010 1.110921
Zn2   Zn    Zn3+2 0.607200 0.500020 0.499990 1.110918
C5    C     C_R   0.396902 0.505441 0.777468 -0.184729
C6    C     C_R   0.603095 0.494202 0.222552 -0.184964
C7    C     C_R   0.262701 0.507528 0.931029 0.282884
C8    C     C_R   0.737322 0.491672 0.069035 0.282956
C9    C     C_R   0.293861 0.517219 0.833722 0.247293
C10   C     C_R   0.706131 0.482278 0.166361 0.247361
C11   C     C_R   0.467974 0.500390 0.818848 -0.098009
C12   C     C_R   0.532031 0.498989 0.181140 -0.097718
C13   C     C_R   0.439623 0.505333 0.913855 0.043723
C14   C     C_R   0.560435 0.493829 0.086135 0.043681
C15   C     C_R   0.336060 0.491015 0.970448 -0.142479
C16   C     C_R   0.664009 0.508085 0.029551 -0.142375
C17   C     C_R   0.513502 0.513868 0.953159 -0.033698
C18   C     C_R   0.486602 0.485192 0.046795 -0.033811
C19   C     C_R   0.388240 0.445548 0.096587 0.223138
C20   C     C_R   0.611900 0.553454 0.903345 0.221708
C21   C     C_R   0.311184 0.454524 0.061323 0.305233
C22   C     C_R   0.688945 0.544445 0.938617 0.305578
H1    H     H_    0.453169 0.509980 0.222845 0.225748
H2    H     H_    0.546816 0.489378 0.777105 0.225318
C23   C     C_R   0.478187 0.183587 0.583419 0.254367
C24   C     C_R   0.521793 0.816401 0.416613 0.254318
C25   C     C_R   0.497959 0.231921 0.499909 -0.233241
C26   C     C_R   0.502037 0.768069 0.500119 -0.233253
C27   C     C_R   0.517264 0.189893 0.416670 0.258413
C28   C     C_R   0.482763 0.810089 0.583357 0.258268
C29   C     C_R   0.505552 0.096668 0.418834 -0.081484
C30   C     C_R   0.494460 0.903317 0.581199 -0.081450
C31   C     C_R   0.499707 0.046822 0.500003 -0.033954
C32   C     C_R   0.500296 0.953164 0.500031 -0.033910
C33   C     C_R   0.492328 0.090810 0.581396 -0.070901
C34   C     C_R   0.507664 0.909178 0.418639 -0.070924
C35   C     C_R   0.496118 0.052248 0.344055 0.240895
C36   C     C_R   0.503886 0.947741 0.655980 0.240822
C37   C     C_R   0.498884 0.958844 0.343217 0.241534
C38   C     C_R   0.501108 0.041147 0.656819 0.241553
C39   C     C_R   0.175031 0.445401 0.562415 0.380853
C40   C     C_R   0.825009 0.554558 0.437581 0.381023
N1    N     N_R   0.249980 0.499930 0.499960 -0.166473
N2    N     N_R   0.750020 0.500070 0.500040 -0.166242
C41   C     C_R   0.227288 0.556144 0.439078 0.360052
C42   C     C_R   0.772656 0.443805 0.560933 0.359210
C43   C     C_R   0.129936 0.551363 0.431813 -0.155331
C44   C     C_R   0.870083 0.448389 0.568106 -0.155510
C45   C     C_R   0.050453 0.500070 0.500189 -0.009937
C46   C     C_R   0.949556 0.499767 0.499787 -0.009570
C47   C     C_R   0.071585 0.450404 0.569895 -0.134780
C48   C     C_R   0.928452 0.549472 0.430083 -0.134588
C49   C     C_R   0.109366 0.595317 0.358506 0.274194
C50   C     C_R   0.890808 0.404147 0.641214 0.273808
C51   C     C_R   0.011754 0.591276 0.355822 0.266178
C52   C     C_R   0.988336 0.408413 0.644034 0.267094
N3    N     N_R   0.214283 0.410620 0.110467 0.256913
O9    O     O_R   0.160726 0.428528 0.196038 -0.281421
O10   O     O_R   0.183155 0.347290 0.071981 -0.257434
N4    N     N_R   0.785900 0.588241 0.889418 0.257009
O11   O     O_R   0.839351 0.570318 0.803827 -0.282022
O12   O     O_R   0.817127 0.651571 0.927832 -0.257465
Br1   Br    Br    0.217314 0.353508 0.628340 -0.281573
Br2   Br    Br    0.782794 0.646558 0.371713 -0.281580
Br3   Br    Br    0.326111 0.648116 0.371726 -0.280474
Br4   Br    Br    0.673376 0.352321 0.628714 -0.281655
N5    N     N_R   0.188720 0.638441 0.280487 0.253914
O13   O     O_R   0.255468 0.590769 0.219677 -0.346212
O14   O     O_R   0.187023 0.724359 0.264212 -0.233331
N6    N     N_R   0.811810 0.359976 0.718717 0.253729
O15   O     O_R   0.745823 0.406842 0.781183 -0.343705
O16   O     O_R   0.813941 0.273806 0.733359 -0.233498
Br5   Br    Br    0.007225 0.626891 0.236742 -0.137156
Br6   Br    Br    0.992738 0.372496 0.763100 -0.136602
N7    N     N_R   0.778022 0.458670 0.206864 0.241515
O17   O     O_R   0.763967 0.385927 0.259199 -0.284540
O18   O     O_R   0.861986 0.505147 0.184994 -0.252858
N8    N     N_R   0.221928 0.540954 0.793305 0.241521
O19   O     O_R   0.235904 0.613830 0.741176 -0.284404
O20   O     O_R   0.138042 0.494394 0.814993 -0.252812
Br7   Br    Br    0.125013 0.535450 0.007742 -0.110562
Br8   Br    Br    0.874956 0.463475 0.992424 -0.110300
Br9   Br    Br    0.362824 0.359595 0.199734 -0.250864
Br10  Br    Br    0.637349 0.639511 0.800264 -0.251680
Br11  Br    Br    0.419223 0.245588 0.698304 -0.296925
Br12  Br    Br    0.580704 0.754387 0.301729 -0.296670
N9    N     N_R   0.557532 0.241253 0.330217 0.221061
O21   O     O_R   0.642967 0.219451 0.266153 -0.265627
O22   O     O_R   0.506557 0.306561 0.313345 -0.359619
N10   N     N_R   0.442527 0.758716 0.669806 0.221007
O23   O     O_R   0.357062 0.780465 0.733863 -0.265548
O24   O     O_R   0.493529 0.693420 0.686667 -0.359237
Br13  Br    Br    0.455070 0.113944 0.252784 -0.144660
Br14  Br    Br    0.544930 0.886051 0.747259 -0.144477
N11   N     N_R   0.478346 0.915063 0.271824 0.254537
O25   O     O_R   0.538497 0.928358 0.185248 -0.223782
O26   O     O_R   0.395152 0.867372 0.292745 -0.249872
N12   N     N_R   0.521622 0.084934 0.728222 0.254512
O27   O     O_R   0.461451 0.071641 0.814792 -0.223840
O28   O     O_R   0.604796 0.132651 0.707313 -0.249581

loop_
_geom_bond_atom_site_label_1
_geom_bond_atom_site_label_2
_geom_bond_distance
_ccdc_geom_bond_type
C15   C21   1.410061 A    
C26   C28   1.397302 A    
C49   C51   1.408412 A    
C16   C22   1.410096 A    
C42   Br4   1.924884 S    
C50   N6    1.433297 S    
N1    C41   1.374875 A    
C8    C16   1.419362 A    
C31   C32   1.400241 A    
N9    O21   1.301301 A    
C27   C29   1.399771 A    
N5    O13   1.300117 A    
C21   N3    1.436801 S    
N11   O26   1.301132 A    
C34   C37   1.413614 A    
O1    C1    1.295145 A    
C18   C19   1.428337 A    
C23   C25   1.394149 A    
C14   C16   1.411046 A    
C40   Br2   1.919825 S    
C27   N9    1.435740 S    
C44   C46   1.418090 A    
C36   Br14  1.940076 S    
N12   O27   1.301533 A    
C46   C48   1.419928 A    
O4    Zn1   2.015674 S    
C5    C9    1.411637 A    
C3    C5    1.471783 S    
C47   C52   1.423165 A    
C4    C6    1.471906 S    
C32   C34   1.421869 A    
C7    Br7   1.929167 S    
C6    C12   1.394507 A    
C24   C34   1.403103 A    
N4    O11   1.301086 A    
C13   C17   1.413060 A    
C42   C44   1.436091 A    
O6    C4    1.307065 A    
C41   Br3   1.924887 S    
C28   C30   1.399804 A    
C45   C46   1.440264 A    
C1    C26   1.427783 S    
C17   C20   1.428438 A    
C38   N12   1.434359 S    
C29   C31   1.418481 A    
O2    C2    1.295149 A    
C30   C32   1.418508 A    
N9    O22   1.299355 A    
C40   N2    1.373124 A    
C43   C49   1.423715 A    
Zn1   N1    2.035628 S    
N5    O14   1.301822 A    
C44   C50   1.424026 A    
N2    C42   1.375041 A    
C45   C47   1.419881 A    
C35   Br13  1.940057 S    
N7    O18   1.298888 A    
N3    O9    1.301081 A    
C14   C18   1.413020 A    
N6    O16   1.302193 A    
C9    N8    1.433904 S    
C19   Br9   1.939245 S    
C22   N4    1.436833 S    
C11   H2    1.080740 S    
N7    O17   1.300904 A    
C39   N1    1.373156 A    
C51   Br5   1.938174 S    
C50   C52   1.408203 A    
O5    C3    1.307028 A    
O7    Zn2   1.924928 S    
C31   C33   1.421850 A    
C24   Br12  1.943074 S    
C5    C11   1.394405 A    
C6    C10   1.411692 A    
C10   N7    1.433884 S    
N10   O24   1.299387 A    
C29   C35   1.414005 A    
C2    C25   1.427862 S    
C30   C36   1.414025 A    
C36   C38   1.397724 A    
O7    C3    1.304878 A    
O3    Zn2   2.015672 S    
O8    C4    1.304891 A    
O4    C2    1.292423 A    
Zn2   N2    2.035629 S    
N8    O20   1.298921 A    
C41   C43   1.435788 A    
C12   C14   1.385864 A    
O1    Zn1   2.009335 S    
C23   C33   1.403133 A    
C49   N5    1.433388 S    
C12   H1    1.080797 S    
O6    Zn2   1.976929 S    
C48   C51   1.423354 A    
C19   C21   1.408533 A    
C39   Br1   1.919775 S    
N6    O15   1.300760 A    
O3    C1    1.292389 A    
O8    Zn1   1.924931 S    
C28   N10   1.435774 S    
C37   N11   1.434356 S    
C23   Br11  1.943037 S    
C35   C37   1.397691 A    
N11   O25   1.301530 A    
C8    Br8   1.929205 S    
C11   C13   1.385668 A    
C7    C15   1.419476 A    
C25   C27   1.397302 A    
C40   C48   1.436640 A    
C20   C22   1.408515 A    
C39   C47   1.436685 A    
C33   C38   1.413616 A    
C24   C26   1.394118 A    
N10   O23   1.301302 A    
C7    C9    1.411607 A    
N12   O28   1.301134 A    
C8    C10   1.411597 A    
C13   C15   1.411062 A    
O2    Zn2   2.009337 S    
C43   C45   1.417890 A    
C52   Br6   1.938322 S    
O5    Zn1   1.976929 S    
N8    O19   1.300910 A    
C20   Br10  1.939399 S    
C17   C18   1.409972 A    
N4    O12   1.301500 A    
N3    O10   1.301489 A    
