data_mof_unit_29594.cif
_audit_creation_date              2012-12-10T16:44:13-0500
_audit_creation_method            fapswitch 2.2
_symmetry_space_group_name_H-M    P1
_symmetry_Int_Tables_number       1
_space_group_crystal_system       triclinic
_cell_length_a                    7.438404
_cell_length_b                    8.713181
_cell_length_c                    13.409856
_cell_angle_alpha                 94.056635
_cell_angle_beta                  77.246895
_cell_angle_gamma                 103.059937
_cell_volume                      825.555843385

loop_
_atom_site_label
_atom_site_type_symbol
_atom_type_description
_atom_site_fract_x
_atom_site_fract_y
_atom_site_fract_z
_atom_type_partial_charge
C1    C     C_R   0.540508 0.799599 0.509158 0.841262
C2    C     C_R   0.425993 0.489363 0.972674 0.082389
C3    C     C_R   0.464340 0.545578 0.871582 0.093059
C4    C     C_R   0.565227 0.539336 0.033381 0.066163
C5    C     C_R   0.733888 0.649153 0.993631 0.130597
C6    C     C_R   0.762567 0.710369 0.896917 -0.239361
C7    C     C_R   0.628309 0.662432 0.837861 -0.208942
C8    C     C_R   0.540425 0.487289 0.133331 -0.296474
C9    C     C_R   0.837336 0.660751 0.154627 0.147896
C10   C     C_R   0.336895 0.484624 0.806444 -0.102111
C11   C     C_2   0.559605 0.967211 0.513520 -0.418725
C12   C     C_R   0.399002 0.495562 0.694452 0.764243
C13   C     C_2   0.410728 0.036434 0.532362 -0.019822
C14   C     C_R   0.449300 0.200878 0.506850 0.856495
C15   C     C_R   0.603355 0.517898 0.306104 0.783011
C16   C     C_R   0.869739 0.703642 0.052575 -0.201427
C17   C     C_R   0.668195 0.551588 0.196007 -0.081474
C18   C     C_R   0.159271 0.391732 0.847231 -0.196274
C19   C     C_R   0.114985 0.345804 0.948324 -0.132736
C20   C     C_R   0.248301 0.388557 0.009316 -0.196649
Cu1   Cu    Cu3+1 0.321300 0.483160 0.488710 0.941173
Cu2   Cu    Cu3+1 0.678700 0.516840 0.511290 0.979870
H1    H     H_    0.996611 0.593803 0.591248 0.174509
H2    H     H_    0.888122 0.798649 0.867479 0.142214
H3    H     H_    0.998123 0.787437 0.020478 0.136839
H4    H     H_    0.417975 0.400336 0.166456 0.149899
H5    H     H_    0.057843 0.347737 0.799558 0.158526
H6    H     H_    0.205823 0.343166 0.085326 0.121260
H7    H     H_    0.978726 0.271202 0.978622 0.143552
H8    H     H_    0.653043 0.721407 0.766249 0.159289
H9    H     H_    0.702166 0.035105 0.489809 0.154609
N1    N     N_2   0.947230 0.542220 0.528320 -0.146228
N2    N     N_2   0.052770 0.457780 0.471680 0.071166
O1    O     O_R   0.383920 0.714220 0.492660 -0.593988
O2    O     O_R   0.685730 0.742660 0.511730 -0.598479
O3    O     O_R   0.275440 0.478800 0.636790 -0.614573
O4    O     O_R   0.577250 0.507240 0.655860 -0.585888
O5    O     O_R   0.314270 0.257340 0.488270 -0.621403
O6    O     O_R   0.616080 0.285780 0.507340 -0.561712
O7    O     O_R   0.422750 0.492760 0.344140 -0.589566
O8    O     O_R   0.724560 0.521200 0.363210 -0.510773
C21   C     C_3   0.980540 0.744108 0.216172 -0.429700
C22   C     C_3   0.142305 0.659561 0.204642 -0.700998
H10   H     H_    0.228218 0.705947 0.262601 0.249905
H11   H     H_    0.087600 0.531152 0.214356 0.280749
H12   H     H_    0.234251 0.680267 0.127418 0.229702
H13   H     H_    0.042293 0.865538 0.187851 0.181307
H14   H     H_    0.915835 0.759824 0.297796 0.222048
C23   C     C_3   0.209368 0.955534 0.583562 -0.349870
C24   C     C_3   0.121440 0.052745 0.672947 -0.877479
H15   H     H_    0.218790 0.090603 0.726387 0.252107
H16   H     H_    0.086667 0.157413 0.645682 0.272870
H17   H     H_    0.987495 0.979984 0.715335 0.230601
H18   H     H_    0.119024 0.931876 0.525946 0.209350
H19   H     H_    0.205687 0.842899 0.618065 0.216740
O9    O     O_3   0.997433 0.405866 0.384241 -0.445082
C25   C     C_3   0.027922 0.252579 0.362850 0.225235
H20   H     H_    0.994617 0.182686 0.433479 0.133417
H21   H     H_    0.176220 0.256057 0.323176 0.146112
C26   C     C_3   0.899462 0.169892 0.292320 -0.920018
H22   H     H_    0.949668 0.219548 0.214688 0.231286
H23   H     H_    0.897467 0.042463 0.287765 0.196195
H24   H     H_    0.752800 0.184662 0.321992 0.264107

loop_
_geom_bond_atom_site_label_1
_geom_bond_atom_site_label_2
_ccdc_geom_bond_type
C24   H16   S    
C22   H10   S    
C6    C7    A    
C14   O5    A    
C11   C13   D    
C2    C4    A    
C19   C20   A    
C1    C11   S    
C4    C8    A    
C6    H2    S    
N1    N2    D    
N2    O9    S    
C2    C3    A    
C25   H20   S    
C11   H9    S    
Cu1   O3    S    
C21   H14   S    
Cu1   Cu2   S    
H1    N1    S    
Cu2   O2    S    
C22   H11   S    
C15   O8    A    
C9    C21   S    
C4    C5    A    
Cu1   O7    S    
Cu2   N1    S    
C10   C18   A    
C26   H24   S    
C3    C10   A    
Cu2   O6    S    
C10   C12   S    
C9    C17   A    
C19   H7    S    
C9    C16   A    
C1    O1    A    
C23   C24   S    
C3    C7    A    
C21   H13   S    
C5    C6    A    
C22   H12   S    
C13   C23   S    
C15   O7    A    
C25   H21   S    
C24   H17   S    
C12   O3    A    
C21   C22   S    
C8    H4    S    
C2    C20   A    
C23   H18   S    
Cu2   O8    S    
C12   O4    A    
Cu1   N2    S    
O9    C25   S    
C1    O2    A    
C26   H23   S    
C18   C19   A    
C16   H3    S    
C15   C17   S    
Cu1   O5    S    
C25   C26   S    
Cu1   O1    S    
C20   H6    S    
C24   H15   S    
C14   O6    A    
C13   C14   S    
Cu2   O4    S    
C18   H5    S    
C8    C17   A    
C26   H22   S    
C5    C16   A    
C23   H19   S    
C7    H8    S    
