data_mof_unit_33604.cif
_audit_creation_date              2012-12-10T17:36:42-0500
_audit_creation_method            fapswitch 2.2
_symmetry_space_group_name_H-M    P1
_symmetry_Int_Tables_number       1
_space_group_crystal_system       triclinic
_cell_length_a                    12.036909
_cell_length_b                    12.830159
_cell_length_c                    15.702946
_cell_angle_alpha                 90.319961
_cell_angle_beta                  87.074835
_cell_angle_gamma                 94.289252
_cell_volume                      2415.14463695

loop_
_atom_site_label
_atom_site_type_symbol
_atom_type_description
_atom_site_fract_x
_atom_site_fract_y
_atom_site_fract_z
_atom_type_partial_charge
C1    C     C_R   0.522705 0.700413 0.498943 0.906323
C2    C     C_R   0.477138 0.299648 0.500130 0.909957
C3    C     C_R   0.635000 0.970702 0.442521 0.563888
C4    C     C_R   0.361503 0.028993 0.550330 0.548456
C5    C     C_R   0.628357 0.862694 0.451347 -0.319133
C6    C     C_R   0.367904 0.136971 0.541560 -0.275860
C7    C     C_R   0.450861 0.867554 0.531738 -0.232468
C8    C     C_R   0.548012 0.132814 0.464557 -0.238549
C9    C     C_R   0.452259 0.973953 0.519622 -0.011492
C10   C     C_R   0.545316 0.026026 0.474775 -0.005419
C11   C     C_R   0.950333 0.399307 0.420393 0.490789
C12   C     C_R   0.047754 0.581101 0.591744 0.466057
C13   C     C_R   0.834012 0.408244 0.431099 -0.235504
C14   C     C_R   0.163340 0.574687 0.580990 -0.210200
C15   C     C_R   0.859862 0.542853 0.534115 0.636297
C16   C     C_R   0.141165 0.466612 0.458866 0.648301
C17   C     C_R   0.976388 0.530589 0.532558 -0.294731
C18   C     C_R   0.022675 0.464648 0.469948 -0.266100
C19   C     C_R   0.500904 0.500098 0.661930 0.899784
C20   C     C_R   0.499100 0.499978 0.338080 0.899984
C21   C     C_3   0.451932 0.586760 0.029737 -0.322127
C22   C     C_3   0.547611 0.413652 0.970354 -0.318171
C23   C     C_3   0.559496 0.587808 0.970615 -0.313123
C24   C     C_3   0.440046 0.412607 0.029471 -0.320131
C25   C     C_1   0.502703 0.500101 0.750796 -0.162814
C26   C     C_1   0.497239 0.500127 0.249239 -0.184195
C27   C     C_3   0.396864 0.499158 0.975185 0.648933
C28   C     C_3   0.602681 0.501255 0.024892 0.650626
C29   C     C_3   0.502436 0.500184 0.917034 0.046939
C30   C     C_3   0.497114 0.500227 0.083045 0.049045
C31   C     C_1   0.503113 0.500136 0.826119 0.016737
C32   C     C_1   0.496618 0.500204 0.173938 0.004023
C33   C     C_R   0.461975 0.188009 0.500354 -0.140101
C34   C     C_R   0.536851 0.812133 0.496098 -0.144015
H1    H     H_    0.608924 0.657974 0.944452 0.165172
H2    H     H_    0.390604 0.342461 0.055660 0.163211
H3    H     H_    0.412018 0.656049 0.056125 0.161591
H4    H     H_    0.587524 0.344350 0.943993 0.162638
H5    H     H_    0.619023 0.174065 0.431071 0.204517
H6    H     H_    0.380840 0.826699 0.566711 0.210914
H7    H     H_    0.301640 0.180775 0.569616 0.181239
H8    H     H_    0.692327 0.818613 0.420622 0.164506
H9    H     H_    0.218025 0.613863 0.625618 0.189422
H10   H     H_    0.775681 0.357420 0.397245 0.173153
N1    N     N_R   0.207800 0.519340 0.515560 -0.175054
N2    N     N_R   0.792200 0.480660 0.484440 -0.163261
O1    O     O_R   0.421700 0.658830 0.504150 -0.631780
O2    O     O_R   0.578300 0.341170 0.495850 -0.633953
O3    O     O_R   0.609310 0.646410 0.494170 -0.600665
O4    O     O_R   0.390690 0.353590 0.505830 -0.588733
O5    O     O_R   0.406210 0.506220 0.628210 -0.620864
O6    O     O_R   0.593790 0.493780 0.371790 -0.616185
O7    O     O_R   0.593830 0.493800 0.618230 -0.576079
O8    O     O_R   0.406170 0.506200 0.381770 -0.589375
Zn1   Zn    Zn3+2 0.374730 0.508290 0.506660 0.981002
Zn2   Zn    Zn3+2 0.625270 0.491710 0.493340 0.979466
O9    O     O_3   0.709248 0.502338 0.058499 -0.598190
C35   C     C_3   0.790911 0.503250 0.990931 -0.334762
H11   H     H_    0.790225 0.574682 0.951221 0.162046
H12   H     H_    0.780408 0.431869 0.950773 0.160084
H13   H     H_    0.874186 0.503985 0.018209 0.188245
O10   O     O_3   0.290308 0.498063 0.941565 -0.596643
C36   C     C_3   0.208653 0.497296 0.009126 -0.334185
H14   H     H_    0.219147 0.568783 0.049164 0.157403
H15   H     H_    0.209378 0.425979 0.048970 0.157416
H16   H     H_    0.125378 0.496460 0.981831 0.189193
O11   O     O_3   0.723753 0.020806 0.395801 -0.618567
C37   C     C_3   0.816901 0.030292 0.446992 -0.345564
H17   H     H_    0.846004 0.952442 0.461884 0.150397
H18   H     H_    0.798477 0.074127 0.506866 0.169157
H19   H     H_    0.886281 0.075254 0.411139 0.218882
O12   O     O_3   0.271182 0.978730 0.595078 -0.607394
C38   C     C_3   0.182705 0.963098 0.539808 -0.329722
H20   H     H_    0.206869 0.915681 0.483130 0.158489
H21   H     H_    0.153193 0.038811 0.519444 0.173340
H22   H     H_    0.111709 0.919029 0.574538 0.202614
O13   O     O_3   0.191145 0.416921 0.390401 -0.536654
C39   C     C_3   0.186661 0.480045 0.317183 -0.224599
H23   H     H_    0.235346 0.445184 0.263803 0.177208
H24   H     H_    0.223781 0.561022 0.327401 0.137684
H25   H     H_    0.100049 0.483720 0.296907 0.144554
O14   O     O_3   0.812588 0.617699 0.584875 -0.551018
C40   C     C_3   0.835645 0.716164 0.545188 -0.210900
H26   H     H_    0.780273 0.772312 0.575865 0.181349
H27   H     H_    0.820168 0.713436 0.475872 0.119943
H28   H     H_    0.922947 0.747292 0.553415 0.167683
O15   O     O_3   0.994758 0.320196 0.371128 -0.565394
C41   C     C_3   0.938530 0.300968 0.295184 -0.317990
H29   H     H_    0.995070 0.262371 0.249003 0.198915
H30   H     H_    0.916137 0.374258 0.264730 0.151148
H31   H     H_    0.863582 0.246174 0.307376 0.184188
O16   O     O_3   0.006157 0.636317 0.660576 -0.580945
C42   C     C_3   0.989139 0.568079 0.730882 -0.228223
H32   H     H_    0.928545 0.500890 0.717308 0.159663
H33   H     H_    0.953423 0.611575 0.785727 0.182346
H34   H     H_    0.069257 0.539586 0.750189 0.155917

loop_
_geom_bond_atom_site_label_1
_geom_bond_atom_site_label_2
_ccdc_geom_bond_type
C25   C31   T    
O15   C41   S    
C36   H15   S    
C11   C18   A    
C26   C32   T    
C42   H32   S    
C22   C29   S    
C27   C29   S    
C38   H20   S    
C24   C27   S    
C5    H8    S    
O13   C39   S    
C24   H2    S    
C23   C29   S    
C13   N2    A    
C39   H24   S    
C35   H12   S    
C22   H4    S    
C7    C9    A    
C16   O13   S    
C2    O4    A    
C11   O15   S    
C37   H17   S    
C6    H7    S    
C12   C17   A    
C7    H6    S    
C8    H5    S    
C15   O14   S    
C9    C10   A    
C19   O7    A    
C35   H13   S    
C21   C27   S    
C36   H16   S    
C42   H33   S    
C22   C28   S    
C38   H21   S    
C1    C34   S    
C14   N1    A    
O11   C37   S    
C20   O8    A    
C39   H23   S    
C1    O1    A    
C2    O2    A    
C35   H11   S    
C28   O9    S    
O10   C36   S    
C27   O10   S    
C40   H26   S    
C41   H31   S    
C5    C34   A    
C17   C18   A    
C16   C18   A    
C23   C28   S    
C2    C33   S    
C4    C6    A    
C40   H27   S    
C12   C14   A    
C42   H34   S    
C23   H1    S    
C21   C23   S    
C7    C34   A    
C22   C24   S    
C4    O12   S    
O1    Zn1   S    
O7    Zn2   S    
O2    Zn2   S    
O8    Zn1   S    
C12   O16   S    
C8    C10   A    
C3    O11   S    
C41   H30   S    
O12   C38   S    
C3    C5    A    
C16   N1    A    
C15   C17   A    
O3    Zn2   S    
C21   C30   S    
O4    Zn1   S    
C6    C33   A    
C28   C30   S    
C20   O6    A    
C3    C10   A    
C30   C32   S    
C11   C13   A    
C39   H25   S    
O9    C35   S    
C20   C26   S    
C37   H19   S    
O16   C42   S    
C38   H22   S    
O5    Zn1   S    
C8    C33   A    
C19   C25   S    
C24   C30   S    
C36   H14   S    
C19   O5    A    
C40   H28   S    
C21   H3    S    
C41   H29   S    
N1    Zn1   S    
C29   C31   S    
O14   C40   S    
N2    Zn2   S    
C37   H18   S    
C15   N2    A    
C4    C9    A    
C1    O3    A    
C13   H10   S    
O6    Zn2   S    
C14   H9    S    
