data_mof_unit_24387.cif
_audit_creation_date              2012-12-10T16:47:51-0500
_audit_creation_method            fapswitch 2.2
_symmetry_space_group_name_H-M    P1
_symmetry_Int_Tables_number       1
_space_group_crystal_system       triclinic
_cell_length_a                    7.80265
_cell_length_b                    8.580935
_cell_length_c                    10.646658
_cell_angle_alpha                 90.918585
_cell_angle_beta                  87.362529
_cell_angle_gamma                 92.969436
_cell_volume                      711.058914948

loop_
_atom_site_label
_atom_site_type_symbol
_atom_type_description
_atom_site_fract_x
_atom_site_fract_y
_atom_site_fract_z
_atom_type_partial_charge
C1    C     C_R   0.544108 0.793925 0.490573 0.972806
C2    C     C_2   0.565250 0.957383 0.484723 -0.464449
C3    C     C_2   0.263249 0.987095 0.417062 0.959621
C4    C     C_2   0.429346 0.044317 0.470019 -0.205539
C5    C     C_R   0.504685 0.499523 0.737073 0.934015
C6    C     C_R   0.454270 0.205738 0.496126 0.877935
C7    C     C_R   0.497006 0.511811 0.262981 0.884395
C8    C     C_2   0.634097 0.577504 0.063613 -0.215272
C9    C     C_2   0.488531 0.554766 0.133721 -0.057568
C10   C     C_2   0.628338 0.590624 0.928521 0.142671
C11   C     C_2   0.518016 0.493945 0.868897 -0.274458
H1    H     H_    0.759617 0.576451 0.103726 0.150600
H2    H     H_    0.990106 0.436334 0.284165 0.165551
H3    H     H_    0.018981 0.577932 0.714454 0.182795
H4    H     H_    0.012164 0.737233 0.625929 0.194346
H5    H     H_    0.436240 0.406183 0.918023 0.126944
H6    H     H_    0.690244 0.006927 0.510218 0.187629
H7    H     H_    0.242653 0.485566 0.097584 0.174333
H8    H     H_    0.271552 0.676176 0.137964 0.243298
H9    H     H_    0.705126 0.814749 0.896797 0.191623
H10   H     H_    0.864043 0.689491 0.888410 0.174116
H11   H     H_    0.004520 0.978703 0.432722 0.326530
H12   H     H_    0.978353 0.269145 0.363610 0.195502
N1    N     N_2   0.950320 0.457950 0.466680 0.004077
N2    N     N_2   0.049680 0.542050 0.533320 -0.001181
N3    N     N_3   0.324220 0.585243 0.085117 -0.448563
N4    N     N_3   0.738215 0.704708 0.863147 -0.439298
N5    N     N_3   0.029749 0.383868 0.365042 -0.306752
N6    N     N_3   0.970082 0.619988 0.632625 -0.303310
O1    O     O_R   0.389250 0.738570 0.508180 -0.601437
O2    O     O_R   0.107691 0.025735 0.476959 -0.810807
O3    O     O_R   0.678390 0.711630 0.486820 -0.615230
O4    O     O_R   0.355470 0.513470 0.691600 -0.633888
O5    O     O_R   0.644610 0.486520 0.670240 -0.583528
O6    O     O_R   0.321610 0.288370 0.513180 -0.578131
O7    O     O_R   0.610750 0.261430 0.491820 -0.622085
O8    O     O_R   0.355390 0.513480 0.329760 -0.604606
O9    O     O_R   0.644530 0.486530 0.308400 -0.645126
O10   O     O_2   0.263543 0.907063 0.320952 -0.653736
Zn1   Zn    Zn3+2 0.306940 0.517990 0.514260 1.000063
Zn2   Zn    Zn3+2 0.693060 0.482010 0.485740 0.976113

loop_
_geom_bond_atom_site_label_1
_geom_bond_atom_site_label_2
_ccdc_geom_bond_type
C10   N4    S    
C2    C4    D    
O3    Zn2   S    
H2    N5    S    
H4    N6    S    
H9    N4    S    
C11   H5    S    
H7    N3    S    
C8    H1    S    
C5    O5    A    
O6    Zn1   S    
C7    O8    A    
O1    Zn1   S    
H12   N5    S    
C6    O6    A    
C2    H6    S    
C3    O2    S    
N1    Zn2   S    
O7    Zn2   S    
O5    Zn2   S    
C8    C10   S    
C1    O1    A    
C7    O9    A    
C6    O7    A    
C9    N3    S    
C5    C11   S    
O8    Zn1   S    
N2    Zn1   S    
N2    N6    S    
H10   N4    S    
O4    Zn1   S    
C10   C11   D    
H3    N6    S    
C3    O10   D    
C3    C4    S    
N1    N2    D    
O9    Zn2   S    
C4    C6    S    
C1    C2    S    
H11   O2    S    
C7    C9    S    
H8    N3    S    
C1    O3    A    
N1    N5    S    
C8    C9    D    
C5    O4    A    
