data_mof_unit_57732.cif
_audit_creation_date              2012-12-10T16:52:41-0500
_audit_creation_method            fapswitch 2.2
_symmetry_space_group_name_H-M    P1
_symmetry_Int_Tables_number       1
_space_group_crystal_system       triclinic
_cell_length_a                    13.074186
_cell_length_b                    11.009823
_cell_length_c                    9.724377
_cell_angle_alpha                 91.085787
_cell_angle_beta                  95.401791
_cell_angle_gamma                 90.582774
_cell_volume                      1393.2032618

loop_
_atom_site_label
_atom_site_type_symbol
_atom_type_description
_atom_site_fract_x
_atom_site_fract_y
_atom_site_fract_z
_atom_type_partial_charge
C1    C     C_R   0.497957 0.266612 0.498328 0.847357
C2    C     C_R   0.028185 0.501132 0.565975 0.032191
C3    C     C_R   0.975302 0.514895 0.433232 0.104910
C4    C     C_R   0.867846 0.514609 0.416783 0.188852
C5    C     C_R   0.865821 0.493395 0.666175 -0.281789
C6    C     C_R   0.973352 0.490703 0.683549 0.257583
C7    C     C_2   0.522929 0.936095 0.399726 0.217152
C8    C     C_2   0.504277 0.867738 0.510322 0.050494
C9    C     C_2   0.537700 0.068652 0.412155 -0.207111
C10   C     C_2   0.483964 0.137684 0.492590 -0.267830
C11   C     C_2   0.446711 0.423897 0.917756 0.133184
C12   C     C_R   0.301189 0.501350 0.474969 0.812937
C13   C     C_2   0.432209 0.442298 0.068463 -0.100182
C14   C     C_R   0.500701 0.734753 0.501587 0.795984
C15   C     C_R   0.699430 0.501786 0.524257 0.813868
C16   C     C_R   0.812442 0.504047 0.535016 -0.170123
C17   C     C_R   0.189626 0.506420 0.460967 -0.048207
C18   C     C_R   0.031158 0.528914 0.317633 -0.181780
C19   C     C_R   0.137061 0.523772 0.331289 -0.226448
C20   C     C_R   0.135518 0.496411 0.577758 -0.219070
Cu1   Cu    Cu3+1 0.500020 0.500020 0.638640 0.965414
Cu2   Cu    Cu3+1 0.499980 0.499980 0.361360 0.947230
H1    H     H_    0.424386 0.102413 0.550259 0.183618
H2    H     H_    0.366212 0.400163 0.108991 0.146508
H3    H     H_    0.569221 0.517327 0.118987 0.243120
H4    H     H_    0.822872 0.487337 0.755567 0.184399
H5    H     H_    0.993675 0.543913 0.215554 0.172531
H6    H     H_    0.177648 0.533929 0.239971 0.160411
H7    H     H_    0.177593 0.483846 0.677531 0.203972
H8    H     H_    0.591006 0.111107 0.347746 0.150747
N1    N     N_2   0.498860 0.498660 0.846770 -0.116903
N2    N     N_2   0.498840 0.498630 0.152900 -0.273390
O1    O     O_R   0.500020 0.321960 0.617050 -0.556942
O2    O     O_R   0.499980 0.321920 0.382890 -0.577247
O3    O     O_R   0.349010 0.500000 0.598060 -0.559239
O4    O     O_R   0.348980 0.499950 0.363910 -0.593394
O5    O     O_R   0.500020 0.678080 0.617110 -0.598877
O6    O     O_R   0.499980 0.678040 0.382950 -0.543705
O7    O     O_R   0.651020 0.500050 0.636090 -0.586519
O8    O     O_R   0.650990 0.500000 0.401940 -0.584115
N3    N     N_2   0.818097 0.525508 0.280457 -0.442521
H9    H     H_    0.763917 0.592411 0.264918 0.269654
C21   C     C_3   0.797343 0.412139 0.204340 -0.672819
H10   H     H_    0.742545 0.354531 0.255400 0.248282
H11   H     H_    0.869614 0.361191 0.197349 0.227477
H12   H     H_    0.763803 0.431057 0.097966 0.206329
C22   C     C_2   0.401698 0.310647 0.854697 0.845232
O9    O     O_2   0.439224 0.213429 0.889505 -0.626874
O10   O     O_R   0.313887 0.313585 0.761465 -0.764802
H13   H     H_    0.290255 0.229599 0.726596 0.316351
N4    N     N_2   0.518617 0.611809 0.907349 -0.348466
H14   H     H_    0.466038 0.675836 0.872793 0.260444
C23   C     C_3   0.624249 0.652364 0.907950 -0.598079
H15   H     H_    0.638353 0.729914 0.982155 0.190231
H16   H     H_    0.640852 0.683093 0.804543 0.240558
H17   H     H_    0.677538 0.578234 0.940677 0.203775
N5    N     N_2   0.027668 0.480483 0.817704 -0.423316
H18   H     H_    0.076379 0.552506 0.847291 0.242220
C24   C     C_3   0.976664 0.428272 0.928818 -0.704827
H19   H     H_    0.034886 0.406174 0.014990 0.229855
H20   H     H_    0.935665 0.342817 0.893278 0.242823
H21   H     H_    0.922096 0.494381 0.967729 0.219418
N6    N     N_2   0.537567 0.881131 0.269156 -0.420583
H22   H     H_    0.600724 0.915106 0.225850 0.240252
C25   C     C_3   0.446557 0.880249 0.172225 -0.619724
H23   H     H_    0.462298 0.830236 0.076456 0.221760
H24   H     H_    0.424398 0.974681 0.145182 0.227288
H25   H     H_    0.381764 0.833902 0.216862 0.230095
N7    N     N_2   0.500627 0.922338 0.644434 -0.428038
H26   H     H_    0.561041 0.897805 0.713884 0.260987
C26   C     C_3   0.402201 0.912575 0.701529 -0.693761
H27   H     H_    0.402885 0.972297 0.794835 0.261792
H28   H     H_    0.386316 0.818296 0.731571 0.223476
H29   H     H_    0.338634 0.940805 0.625351 0.215922

loop_
_geom_bond_atom_site_label_1
_geom_bond_atom_site_label_2
_ccdc_geom_bond_type
C12   C17   S    
C4    C16   A    
C26   H29   S    
C21   H10   S    
N6    C25   S    
Cu1   O3    S    
C10   H1    S    
C12   O4    A    
N3    C21   S    
C9    C10   D    
C15   O7    A    
C13   N2    D    
C11   C22   S    
C22   O9    D    
Cu1   O7    S    
C25   H25   S    
Cu2   O8    S    
C26   H27   S    
Cu1   N1    S    
H3    N2    S    
C2    C3    A    
N5    H18   S    
C11   N1    D    
C24   H19   S    
C21   H11   S    
Cu1   Cu2   S    
C12   O3    A    
C19   H6    S    
C11   C13   S    
C6    N5    S    
C7    N6    S    
C8    N7    S    
C2    C6    A    
Cu2   N2    S    
C9    H8    S    
C3    C18   A    
C22   O10   S    
C17   C19   A    
C1    O2    A    
O10   H13   S    
C20   H7    S    
C23   H16   S    
C5    C6    A    
Cu2   O2    S    
C21   H12   S    
N7    H26   S    
C15   O8    A    
C24   H20   S    
N5    C24   S    
C14   O6    A    
C4    N3    S    
C1    O1    A    
C2    C20   A    
N4    H14   S    
Cu2   O6    S    
C5    H4    S    
N7    C26   S    
C7    C8    D    
C17   C20   A    
Cu1   O1    S    
C3    C4    A    
Cu1   O5    S    
C14   O5    A    
C25   H23   S    
N3    H9    S    
C23   H17   S    
C26   H28   S    
C7    C9    S    
C18   C19   A    
C24   H21   S    
C8    C14   S    
N4    C23   S    
C23   H15   S    
C5    C16   A    
C1    C10   S    
Cu2   O4    S    
C18   H5    S    
C15   C16   S    
C13   H2    S    
N1    N4    S    
N6    H22   S    
C25   H24   S    
